MODEL        1
REMARK 921   NORMALIZED FREE ENERGY PREDICTED BY IDOCK:   -7.47 KCAL/MOL
REMARK 922        TOTAL FREE ENERGY PREDICTED BY IDOCK:   -9.34 KCAL/MOL
REMARK 923 INTER-LIGAND FREE ENERGY PREDICTED BY IDOCK:   -8.78 KCAL/MOL
REMARK 924 INTRA-LIGAND FREE ENERGY PREDICTED BY IDOCK:   -0.56 KCAL/MOL
REMARK 927      BINDING AFFINITY PREDICTED BY RF-SCORE:    0.00 PKD
ROOT
HETATM    1  C   UNL     1     -12.901  11.873  63.479  1.00  0.00    -0.305 C  
HETATM    2  O   UNL     1     -12.929  12.411  64.799  1.00  0.00    -0.786 OA 
ENDROOT
BRANCH   2   3
HETATM    3  C   UNL     1     -12.062  13.435  65.059  1.00  0.00    -0.401 A  
HETATM    4  C   UNL     1     -11.111  13.247  66.067  1.00  0.00    -0.283 A  
HETATM    5  C   UNL     1     -10.217  14.268  66.429  1.00  0.00    -0.295 A  
HETATM    6  S   UNL     1     -10.980  11.679  66.880  1.00  0.00    -0.304 S  
HETATM    7  O   UNL     1      -9.781  11.885  67.947  1.00  0.00    -0.181 OA 
HETATM    8  O   UNL     1     -10.517  10.708  65.911  1.00  0.00    -0.236 OA 
HETATM    9  C   UNL     1     -10.256  15.492  65.764  1.00  0.00    -0.390 A  
HETATM   10  O   UNL     1     -12.154  11.493  67.700  1.00  0.00    -0.623 OA 
HETATM   11  H   UNL     1     -12.055  17.035  63.471  1.00  0.00     0.000 HD 
HETATM   12  C   UNL     1     -11.236  15.700  64.786  1.00  0.00    -0.382 A  
HETATM   13  O   UNL     1     -11.390  16.894  64.134  1.00  0.00    -1.208 OA 
HETATM   14  C   UNL     1     -12.125  14.682  64.431  1.00  0.00    -0.481 A  
BRANCH   9  15
HETATM   15  C   UNL     1      -9.309  16.582  66.107  1.00  0.00    -0.304 C  
HETATM   16  O   UNL     1      -8.146  16.472  65.715  1.00  0.00    -0.198 OA 
BRANCH  15  17
HETATM   17  C   UNL     1      -9.695  17.759  66.928  1.00  0.00    -0.300 A  
HETATM   18  C   UNL     1      -9.878  18.988  66.282  1.00  0.00    -0.417 A  
HETATM   19  C   UNL     1     -10.167  20.134  67.024  1.00  0.00    -0.558 A  
HETATM   20  C   UNL     1     -10.278  20.058  68.411  1.00  0.00    -0.510 A  
HETATM   21  C   UNL     1     -10.103  18.836  69.060  1.00  0.00    -0.295 A  
HETATM   22  C   UNL     1      -9.801  17.689  68.324  1.00  0.00    -0.324 A  
ENDBRANCH  15  17
ENDBRANCH   9  15
ENDBRANCH   2   3
TORSDOF 3
ENDMDL
MODEL        2
REMARK 921   NORMALIZED FREE ENERGY PREDICTED BY IDOCK:   -6.95 KCAL/MOL
REMARK 922        TOTAL FREE ENERGY PREDICTED BY IDOCK:   -8.73 KCAL/MOL
REMARK 923 INTER-LIGAND FREE ENERGY PREDICTED BY IDOCK:   -8.03 KCAL/MOL
REMARK 924 INTRA-LIGAND FREE ENERGY PREDICTED BY IDOCK:   -0.70 KCAL/MOL
REMARK 927      BINDING AFFINITY PREDICTED BY RF-SCORE:    0.00 PKD
ROOT
HETATM    1  C   UNL     1     -12.976  11.761  71.948  1.00  0.00    -0.330 C  
HETATM    2  O   UNL     1     -13.329  13.098  71.605  1.00  0.00    -0.370 OA 
ENDROOT
BRANCH   2   3
HETATM    3  C   UNL     1     -12.376  13.835  70.959  1.00  0.00    -0.372 A  
HETATM    4  C   UNL     1     -11.985  15.048  71.534  1.00  0.00    -0.357 A  
HETATM    5  C   UNL     1     -11.049  15.887  70.907  1.00  0.00    -0.317 A  
HETATM    6  S   UNL     1     -12.633  15.530  73.110  1.00  0.00    -0.534 S  
HETATM    7  O   UNL     1     -11.933  16.960  73.405  1.00  0.00    -0.364 OA 
HETATM    8  O   UNL     1     -12.131  14.605  74.104  1.00  0.00    -0.463 OA 
HETATM    9  C   UNL     1     -10.476  15.504  69.696  1.00  0.00    -0.289 A  
HETATM   10  O   UNL     1     -14.031  15.848  72.948  1.00  0.00    -0.592 OA 
HETATM   11  H   UNL     1     -10.727  13.088  67.465  1.00  0.00     0.000 HD 
HETATM   12  C   UNL     1     -10.898  14.312  69.095  1.00  0.00    -0.242 A  
HETATM   13  O   UNL     1     -10.440  13.897  67.873  1.00  0.00    -0.236 OA 
HETATM   14  C   UNL     1     -11.832  13.482  69.721  1.00  0.00    -0.395 A  
BRANCH   9  15
HETATM   15  C   UNL     1      -9.465  16.356  69.022  1.00  0.00    -0.258 C  
HETATM   16  O   UNL     1      -8.278  16.068  69.180  1.00  0.00    -0.226 OA 
BRANCH  15  17
HETATM   17  C   UNL     1      -9.826  17.549  68.213  1.00  0.00    -0.319 A  
HETATM   18  C   UNL     1     -10.170  17.361  66.868  1.00  0.00    -0.322 A  
HETATM   19  C   UNL     1     -10.443  18.461  66.053  1.00  0.00    -0.400 A  
HETATM   20  C   UNL     1     -10.376  19.751  66.576  1.00  0.00    -0.621 A  
HETATM   21  C   UNL     1     -10.040  19.945  67.916  1.00  0.00    -0.571 A  
HETATM   22  C   UNL     1      -9.754  18.849  68.732  1.00  0.00    -0.454 A  
ENDBRANCH  15  17
ENDBRANCH   9  15
ENDBRANCH   2   3
TORSDOF 3
ENDMDL
MODEL        3
REMARK 921   NORMALIZED FREE ENERGY PREDICTED BY IDOCK:   -6.88 KCAL/MOL
REMARK 922        TOTAL FREE ENERGY PREDICTED BY IDOCK:   -8.64 KCAL/MOL
REMARK 923 INTER-LIGAND FREE ENERGY PREDICTED BY IDOCK:   -7.96 KCAL/MOL
REMARK 924 INTRA-LIGAND FREE ENERGY PREDICTED BY IDOCK:   -0.68 KCAL/MOL
REMARK 927      BINDING AFFINITY PREDICTED BY RF-SCORE:    0.00 PKD
ROOT
HETATM    1  C   UNL     1     -11.677  15.964  70.856  1.00  0.00    -0.420 C  
HETATM    2  O   UNL     1     -10.671  15.862  69.853  1.00  0.00    -0.282 OA 
ENDROOT
BRANCH   2   3
HETATM    3  C   UNL     1     -10.932  15.019  68.809  1.00  0.00    -0.255 A  
HETATM    4  C   UNL     1     -10.734  15.503  67.511  1.00  0.00    -0.300 A  
HETATM    5  C   UNL     1     -11.027  14.718  66.385  1.00  0.00    -0.331 A  
HETATM    6  S   UNL     1     -10.052  17.119  67.264  1.00  0.00    -0.302 S  
HETATM    7  O   UNL     1      -9.985  17.277  65.655  1.00  0.00    -0.553 OA 
HETATM    8  O   UNL     1      -8.685  17.108  67.741  1.00  0.00    -0.215 OA 
HETATM    9  C   UNL     1     -11.507  13.419  66.550  1.00  0.00    -0.372 A  
HETATM   10  O   UNL     1     -11.034  18.094  67.674  1.00  0.00    -0.324 OA 
HETATM   11  H   UNL     1     -12.449  11.392  68.974  1.00  0.00     0.000 HD 
HETATM   12  C   UNL     1     -11.748  12.947  67.846  1.00  0.00    -0.357 A  
HETATM   13  O   UNL     1     -12.285  11.712  68.095  1.00  0.00    -0.537 OA 
HETATM   14  C   UNL     1     -11.458  13.734  68.964  1.00  0.00    -0.349 A  
BRANCH   9  15
HETATM   15  C   UNL     1     -11.801  12.556  65.380  1.00  0.00    -0.428 C  
HETATM   16  O   UNL     1     -12.959  12.538  64.960  1.00  0.00    -0.779 OA 
BRANCH  15  17
HETATM   17  C   UNL     1     -10.777  11.692  64.737  1.00  0.00    -0.365 A  
HETATM   18  C   UNL     1     -10.431  11.951  63.404  1.00  0.00    -0.487 A  
HETATM   19  C   UNL     1      -9.530  11.119  62.738  1.00  0.00    -0.357 A  
HETATM   20  C   UNL     1      -8.969  10.028  63.399  1.00  0.00    -0.277 A  
HETATM   21  C   UNL     1      -9.304   9.767  64.728  1.00  0.00    -0.327 A  
HETATM   22  C   UNL     1     -10.215  10.589  65.394  1.00  0.00    -0.340 A  
ENDBRANCH  15  17
ENDBRANCH   9  15
ENDBRANCH   2   3
TORSDOF 3
ENDMDL
MODEL        4
REMARK 921   NORMALIZED FREE ENERGY PREDICTED BY IDOCK:   -6.80 KCAL/MOL
REMARK 922        TOTAL FREE ENERGY PREDICTED BY IDOCK:   -8.56 KCAL/MOL
REMARK 923 INTER-LIGAND FREE ENERGY PREDICTED BY IDOCK:   -7.98 KCAL/MOL
REMARK 924 INTRA-LIGAND FREE ENERGY PREDICTED BY IDOCK:   -0.58 KCAL/MOL
REMARK 927      BINDING AFFINITY PREDICTED BY RF-SCORE:    0.00 PKD
ROOT
HETATM    1  C   UNL     1     -11.225  15.439  67.798  1.00  0.00    -0.321 C  
HETATM    2  O   UNL     1     -11.907  15.253  69.035  1.00  0.00    -0.325 OA 
ENDROOT
BRANCH   2   3
HETATM    3  C   UNL     1     -12.079  13.962  69.449  1.00  0.00    -0.337 A  
HETATM    4  C   UNL     1     -12.447  13.746  70.781  1.00  0.00    -0.370 A  
HETATM    5  C   UNL     1     -12.594  12.449  71.298  1.00  0.00    -0.332 A  
HETATM    6  S   UNL     1     -12.790  15.124  71.839  1.00  0.00    -0.382 S  
HETATM    7  O   UNL     1     -13.176  14.446  73.258  1.00  0.00    -0.622 OA 
HETATM    8  O   UNL     1     -13.984  15.780  71.350  1.00  0.00    -0.512 OA 
HETATM    9  C   UNL     1     -12.391  11.345  70.471  1.00  0.00    -0.439 A  
HETATM   10  O   UNL     1     -11.549  15.813  72.104  1.00  0.00    -0.418 OA 
HETATM   11  H   UNL     1     -11.409  10.673  67.396  1.00  0.00     0.000 HD 
HETATM   12  C   UNL     1     -11.979  11.556  69.150  1.00  0.00    -0.320 A  
HETATM   13  O   UNL     1     -11.689  10.529  68.292  1.00  0.00    -0.401 OA 
HETATM   14  C   UNL     1     -11.830  12.850  68.641  1.00  0.00    -0.347 A  
BRANCH   9  15
HETATM   15  C   UNL     1     -12.564   9.962  70.981  1.00  0.00    -0.336 C  
HETATM   16  O   UNL     1     -13.699   9.484  70.963  1.00  0.00    -0.265 OA 
BRANCH  15  17
HETATM   17  C   UNL     1     -11.444   9.163  71.543  1.00  0.00    -0.437 A  
HETATM   18  C   UNL     1     -11.727   8.253  72.569  1.00  0.00    -0.451 A  
HETATM   19  C   UNL     1     -10.694   7.538  73.177  1.00  0.00    -0.452 A  
HETATM   20  C   UNL     1      -9.377   7.726  72.763  1.00  0.00    -0.263 A  
HETATM   21  C   UNL     1      -9.089   8.627  71.738  1.00  0.00    -0.317 A  
HETATM   22  C   UNL     1     -10.117   9.354  71.135  1.00  0.00    -0.335 A  
ENDBRANCH  15  17
ENDBRANCH   9  15
ENDBRANCH   2   3
TORSDOF 3
ENDMDL
MODEL        5
REMARK 921   NORMALIZED FREE ENERGY PREDICTED BY IDOCK:   -6.70 KCAL/MOL
REMARK 922        TOTAL FREE ENERGY PREDICTED BY IDOCK:   -8.43 KCAL/MOL
REMARK 923 INTER-LIGAND FREE ENERGY PREDICTED BY IDOCK:   -8.05 KCAL/MOL
REMARK 924 INTRA-LIGAND FREE ENERGY PREDICTED BY IDOCK:   -0.38 KCAL/MOL
REMARK 927      BINDING AFFINITY PREDICTED BY RF-SCORE:    0.00 PKD
ROOT
HETATM    1  C   UNL     1     -10.564  17.649  65.479  1.00  0.00    -0.068 C  
HETATM    2  O   UNL     1     -10.255  16.260  65.564  1.00  0.00    -0.456 OA 
ENDROOT
BRANCH   2   3
HETATM    3  C   UNL     1     -10.719  15.597  66.665  1.00  0.00    -0.296 A  
HETATM    4  C   UNL     1     -11.578  14.511  66.463  1.00  0.00    -0.371 A  
HETATM    5  C   UNL     1     -12.137  13.810  67.542  1.00  0.00    -0.366 A  
HETATM    6  S   UNL     1     -11.937  13.962  64.817  1.00  0.00    -0.430 S  
HETATM    7  O   UNL     1     -12.939  12.709  65.029  1.00  0.00    -0.812 OA 
HETATM    8  O   UNL     1     -10.718  13.432  64.244  1.00  0.00    -0.407 OA 
HETATM    9  C   UNL     1     -11.824  14.181  68.848  1.00  0.00    -0.382 A  
HETATM   10  O   UNL     1     -12.754  14.963  64.173  1.00  0.00    -0.750 OA 
HETATM   11  H   UNL     1     -10.143  16.525  70.445  1.00  0.00     0.000 HD 
HETATM   12  C   UNL     1     -11.002  15.294  69.056  1.00  0.00    -0.254 A  
HETATM   13  O   UNL     1     -10.700  15.769  70.304  1.00  0.00    -0.315 OA 
HETATM   14  C   UNL     1     -10.449  15.992  67.978  1.00  0.00    -0.275 A  
BRANCH   9  15
HETATM   15  C   UNL     1     -12.379  13.443  70.010  1.00  0.00    -0.226 C  
HETATM   16  O   UNL     1     -13.080  14.072  70.804  1.00  0.00    -0.286 OA 
BRANCH  15  17
HETATM   17  C   UNL     1     -12.088  12.008  70.269  1.00  0.00    -0.395 A  
HETATM   18  C   UNL     1     -12.846  11.342  71.239  1.00  0.00    -0.491 A  
HETATM   19  C   UNL     1     -12.557  10.016  71.567  1.00  0.00    -0.525 A  
HETATM   20  C   UNL     1     -11.513   9.351  70.927  1.00  0.00    -0.382 A  
HETATM   21  C   UNL     1     -10.758  10.008  69.955  1.00  0.00    -0.348 A  
HETATM   22  C   UNL     1     -11.035  11.337  69.633  1.00  0.00    -0.214 A  
ENDBRANCH  15  17
ENDBRANCH   9  15
ENDBRANCH   2   3
TORSDOF 3
ENDMDL
MODEL        6
REMARK 921   NORMALIZED FREE ENERGY PREDICTED BY IDOCK:   -6.61 KCAL/MOL
REMARK 922        TOTAL FREE ENERGY PREDICTED BY IDOCK:   -8.33 KCAL/MOL
REMARK 923 INTER-LIGAND FREE ENERGY PREDICTED BY IDOCK:   -7.75 KCAL/MOL
REMARK 924 INTRA-LIGAND FREE ENERGY PREDICTED BY IDOCK:   -0.58 KCAL/MOL
REMARK 927      BINDING AFFINITY PREDICTED BY RF-SCORE:    0.00 PKD
ROOT
HETATM    1  C   UNL     1     -10.134  10.704  65.449  1.00  0.00    -0.291 C  
HETATM    2  O   UNL     1     -10.936  11.753  65.985  1.00  0.00    -0.291 OA 
ENDROOT
BRANCH   2   3
HETATM    3  C   UNL     1     -10.329  12.968  66.140  1.00  0.00    -0.278 A  
HETATM    4  C   UNL     1     -10.821  14.045  65.396  1.00  0.00    -0.328 A  
HETATM    5  C   UNL     1     -10.222  15.313  65.460  1.00  0.00    -0.417 A  
HETATM    6  S   UNL     1     -12.262  13.839  64.385  1.00  0.00    -0.371 S  
HETATM    7  O   UNL     1     -12.489  15.296  63.718  1.00  0.00    -0.698 OA 
HETATM    8  O   UNL     1     -13.391  13.596  65.257  1.00  0.00    -0.669 OA 
HETATM    9  C   UNL     1      -9.125  15.521  66.294  1.00  0.00    -0.369 A  
HETATM   10  O   UNL     1     -11.916  12.990  63.270  1.00  0.00    -0.562 OA 
HETATM   11  H   UNL     1      -7.130  13.797  68.274  1.00  0.00     0.000 HD 
HETATM   12  C   UNL     1      -8.602  14.435  67.006  1.00  0.00    -0.203 A  
HETATM   13  O   UNL     1      -7.485  14.534  67.792  1.00  0.00    -0.134 OA 
HETATM   14  C   UNL     1      -9.200  13.173  66.936  1.00  0.00    -0.236 A  
BRANCH   9  15
HETATM   15  C   UNL     1      -8.486  16.855  66.404  1.00  0.00    -0.290 C  
HETATM   16  O   UNL     1      -7.337  16.976  65.976  1.00  0.00    -0.255 OA 
BRANCH  15  17
HETATM   17  C   UNL     1      -9.154  18.021  67.040  1.00  0.00    -0.259 A  
HETATM   18  C   UNL     1      -9.475  19.122  66.237  1.00  0.00    -0.359 A  
HETATM   19  C   UNL     1     -10.035  20.267  66.807  1.00  0.00    -0.587 A  
HETATM   20  C   UNL     1     -10.278  20.316  68.178  1.00  0.00    -0.399 A  
HETATM   21  C   UNL     1      -9.965  19.220  68.983  1.00  0.00    -0.446 A  
HETATM   22  C   UNL     1      -9.394  18.078  68.420  1.00  0.00    -0.306 A  
ENDBRANCH  15  17
ENDBRANCH   9  15
ENDBRANCH   2   3
TORSDOF 3
ENDMDL
MODEL        7
REMARK 921   NORMALIZED FREE ENERGY PREDICTED BY IDOCK:   -6.54 KCAL/MOL
REMARK 922        TOTAL FREE ENERGY PREDICTED BY IDOCK:   -8.25 KCAL/MOL
REMARK 923 INTER-LIGAND FREE ENERGY PREDICTED BY IDOCK:   -7.64 KCAL/MOL
REMARK 924 INTRA-LIGAND FREE ENERGY PREDICTED BY IDOCK:   -0.62 KCAL/MOL
REMARK 927      BINDING AFFINITY PREDICTED BY RF-SCORE:    0.00 PKD
ROOT
HETATM    1  C   UNL     1     -12.567  12.092  63.578  1.00  0.00    -0.506 C  
HETATM    2  O   UNL     1     -11.563  12.090  64.589  1.00  0.00    -0.331 OA 
ENDROOT
BRANCH   2   3
HETATM    3  C   UNL     1     -11.206  13.307  65.098  1.00  0.00    -0.302 A  
HETATM    4  C   UNL     1     -10.754  13.357  66.421  1.00  0.00    -0.286 A  
HETATM    5  C   UNL     1     -10.416  14.574  67.033  1.00  0.00    -0.268 A  
HETATM    6  S   UNL     1     -10.548  11.858  67.342  1.00  0.00    -0.233 S  
HETATM    7  O   UNL     1     -10.015  12.354  68.788  1.00  0.00    -0.152 OA 
HETATM    8  O   UNL     1      -9.473  11.102  66.736  1.00  0.00    -0.179 OA 
HETATM    9  C   UNL     1     -10.509  15.763  66.312  1.00  0.00    -0.315 A  
HETATM   10  O   UNL     1     -11.855  11.311  67.617  1.00  0.00    -0.614 OA 
HETATM   11  H   UNL     1     -11.530  16.823  63.361  1.00  0.00     0.000 HD 
HETATM   12  C   UNL     1     -11.003  15.723  65.003  1.00  0.00    -0.417 A  
HETATM   13  O   UNL     1     -11.194  16.850  64.249  1.00  0.00    -1.204 OA 
HETATM   14  C   UNL     1     -11.342  14.509  64.398  1.00  0.00    -0.247 A  
BRANCH   9  15
HETATM   15  C   UNL     1     -10.135  17.063  66.923  1.00  0.00    -0.298 C  
HETATM   16  O   UNL     1     -10.909  17.551  67.748  1.00  0.00    -0.368 OA 
BRANCH  15  17
HETATM   17  C   UNL     1      -8.902  17.805  66.549  1.00  0.00    -0.283 A  
HETATM   18  C   UNL     1      -8.989  19.192  66.377  1.00  0.00    -0.356 A  
HETATM   19  C   UNL     1      -7.875  19.918  65.953  1.00  0.00    -0.313 A  
HETATM   20  C   UNL     1      -6.671  19.263  65.701  1.00  0.00    -0.308 A  
HETATM   21  C   UNL     1      -6.576  17.882  65.876  1.00  0.00    -0.304 A  
HETATM   22  C   UNL     1      -7.691  17.151  66.288  1.00  0.00    -0.350 A  
ENDBRANCH  15  17
ENDBRANCH   9  15
ENDBRANCH   2   3
TORSDOF 3
ENDMDL
MODEL        8
REMARK 921   NORMALIZED FREE ENERGY PREDICTED BY IDOCK:   -6.39 KCAL/MOL
REMARK 922        TOTAL FREE ENERGY PREDICTED BY IDOCK:   -8.07 KCAL/MOL
REMARK 923 INTER-LIGAND FREE ENERGY PREDICTED BY IDOCK:   -7.46 KCAL/MOL
REMARK 924 INTRA-LIGAND FREE ENERGY PREDICTED BY IDOCK:   -0.61 KCAL/MOL
REMARK 927      BINDING AFFINITY PREDICTED BY RF-SCORE:    0.00 PKD
ROOT
HETATM    1  C   UNL     1      -9.770  18.125  68.514  1.00  0.00    -0.362 C  
HETATM    2  O   UNL     1     -10.624  17.093  69.002  1.00  0.00    -0.324 OA 
ENDROOT
BRANCH   2   3
HETATM    3  C   UNL     1     -10.984  16.126  68.107  1.00  0.00    -0.341 A  
HETATM    4  C   UNL     1     -11.617  14.980  68.601  1.00  0.00    -0.325 A  
HETATM    5  C   UNL     1     -11.974  13.918  67.754  1.00  0.00    -0.390 A  
HETATM    6  S   UNL     1     -12.033  14.870  70.320  1.00  0.00    -0.337 S  
HETATM    7  O   UNL     1     -12.740  13.421  70.463  1.00  0.00    -0.231 OA 
HETATM    8  O   UNL     1     -13.049  15.862  70.601  1.00  0.00    -0.467 OA 
HETATM    9  C   UNL     1     -11.715  14.004  66.388  1.00  0.00    -0.407 A  
HETATM   10  O   UNL     1     -10.810  14.742  71.075  1.00  0.00    -0.017 OA 
HETATM   11  H   UNL     1     -10.228  16.023  64.247  1.00  0.00     0.000 HD 
HETATM   12  C   UNL     1     -11.042  15.128  65.896  1.00  0.00    -0.319 A  
HETATM   13  O   UNL     1     -10.685  15.261  64.580  1.00  0.00    -0.365 OA 
HETATM   14  C   UNL     1     -10.686  16.181  66.743  1.00  0.00    -0.235 A  
BRANCH   9  15
HETATM   15  C   UNL     1     -12.103  12.910  65.463  1.00  0.00    -0.458 C  
HETATM   16  O   UNL     1     -13.273  12.875  65.078  1.00  0.00    -0.765 OA 
BRANCH  15  17
HETATM   17  C   UNL     1     -11.159  11.847  65.029  1.00  0.00    -0.360 A  
HETATM   18  C   UNL     1     -10.544  11.063  66.012  1.00  0.00    -0.275 A  
HETATM   19  C   UNL     1      -9.594  10.105  65.653  1.00  0.00    -0.302 A  
HETATM   20  C   UNL     1      -9.256   9.925  64.313  1.00  0.00    -0.317 A  
HETATM   21  C   UNL     1      -9.870  10.699  63.328  1.00  0.00    -0.364 A  
HETATM   22  C   UNL     1     -10.811  11.667  63.683  1.00  0.00    -0.503 A  
ENDBRANCH  15  17
ENDBRANCH   9  15
ENDBRANCH   2   3
TORSDOF 3
ENDMDL
MODEL        9
REMARK 921   NORMALIZED FREE ENERGY PREDICTED BY IDOCK:   -6.37 KCAL/MOL
REMARK 922        TOTAL FREE ENERGY PREDICTED BY IDOCK:   -8.04 KCAL/MOL
REMARK 923 INTER-LIGAND FREE ENERGY PREDICTED BY IDOCK:   -7.38 KCAL/MOL
REMARK 924 INTRA-LIGAND FREE ENERGY PREDICTED BY IDOCK:   -0.66 KCAL/MOL
REMARK 927      BINDING AFFINITY PREDICTED BY RF-SCORE:    0.00 PKD
ROOT
HETATM    1  C   UNL     1     -11.644  10.904  68.713  1.00  0.00    -0.309 C  
HETATM    2  O   UNL     1     -12.110  11.908  67.816  1.00  0.00    -0.564 OA 
ENDROOT
BRANCH   2   3
HETATM    3  C   UNL     1     -11.296  12.990  67.633  1.00  0.00    -0.300 A  
HETATM    4  C   UNL     1     -10.961  13.343  66.321  1.00  0.00    -0.288 A  
HETATM    5  C   UNL     1     -10.089  14.410  66.051  1.00  0.00    -0.338 A  
HETATM    6  S   UNL     1     -11.682  12.471  64.958  1.00  0.00    -0.378 S  
HETATM    7  O   UNL     1     -11.046  13.185  63.652  1.00  0.00    -0.324 OA 
HETATM    8  O   UNL     1     -13.101  12.756  64.943  1.00  0.00    -0.833 OA 
HETATM    9  C   UNL     1      -9.555  15.153  67.102  1.00  0.00    -0.224 A  
HETATM   10  O   UNL     1     -11.134  11.136  64.933  1.00  0.00    -0.187 OA 
HETATM   11  H   UNL     1      -9.516  15.149  70.399  1.00  0.00     0.000 HD 
HETATM   12  C   UNL     1      -9.852  14.775  68.417  1.00  0.00    -0.220 A  
HETATM   13  O   UNL     1      -9.315  15.406  69.507  1.00  0.00    -0.265 OA 
HETATM   14  C   UNL     1     -10.718  13.710  68.681  1.00  0.00    -0.272 A  
BRANCH   9  15
HETATM   15  C   UNL     1      -8.652  16.303  66.848  1.00  0.00    -0.215 C  
HETATM   16  O   UNL     1      -7.456  16.062  66.674  1.00  0.00    -0.218 OA 
BRANCH  15  17
HETATM   17  C   UNL     1      -9.122  17.713  66.841  1.00  0.00    -0.262 A  
HETATM   18  C   UNL     1      -8.163  18.733  66.791  1.00  0.00    -0.286 A  
HETATM   19  C   UNL     1      -8.557  20.070  66.858  1.00  0.00    -0.402 A  
HETATM   20  C   UNL     1      -9.907  20.395  66.972  1.00  0.00    -0.594 A  
HETATM   21  C   UNL     1     -10.868  19.384  67.016  1.00  0.00    -0.540 A  
HETATM   22  C   UNL     1     -10.478  18.045  66.962  1.00  0.00    -0.361 A  
ENDBRANCH  15  17
ENDBRANCH   9  15
ENDBRANCH   2   3
TORSDOF 3
ENDMDL
MODEL       10
REMARK 921   NORMALIZED FREE ENERGY PREDICTED BY IDOCK:   -6.36 KCAL/MOL
REMARK 922        TOTAL FREE ENERGY PREDICTED BY IDOCK:   -8.03 KCAL/MOL
REMARK 923 INTER-LIGAND FREE ENERGY PREDICTED BY IDOCK:   -7.36 KCAL/MOL
REMARK 924 INTRA-LIGAND FREE ENERGY PREDICTED BY IDOCK:   -0.67 KCAL/MOL
REMARK 927      BINDING AFFINITY PREDICTED BY RF-SCORE:    0.00 PKD
ROOT
HETATM    1  C   UNL     1      -9.239  10.614  65.700  1.00  0.00    -0.196 C  
HETATM    2  O   UNL     1     -10.521  11.226  65.813  1.00  0.00    -0.246 OA 
ENDROOT
BRANCH   2   3
HETATM    3  C   UNL     1     -10.554  12.475  66.367  1.00  0.00    -0.247 A  
HETATM    4  C   UNL     1     -11.242  13.479  65.676  1.00  0.00    -0.292 A  
HETATM    5  C   UNL     1     -11.281  14.799  66.153  1.00  0.00    -0.337 A  
HETATM    6  S   UNL     1     -12.133  13.085  64.197  1.00  0.00    -0.439 S  
HETATM    7  O   UNL     1     -12.773  14.498  63.733  1.00  0.00    -0.780 OA 
HETATM    8  O   UNL     1     -13.238  12.221  64.554  1.00  0.00    -0.799 OA 
HETATM    9  C   UNL     1     -10.640  15.125  67.347  1.00  0.00    -0.271 A  
HETATM   10  O   UNL     1     -11.177  12.774  63.161  1.00  0.00    -0.305 OA 
HETATM   11  H   UNL     1      -8.704  13.712  69.611  1.00  0.00     0.000 HD 
HETATM   12  C   UNL     1      -9.914  14.135  68.017  1.00  0.00    -0.226 A  
HETATM   13  O   UNL     1      -9.198  14.385  69.157  1.00  0.00    -0.071 OA 
HETATM   14  C   UNL     1      -9.875  12.822  67.538  1.00  0.00    -0.211 A  
BRANCH   9  15
HETATM   15  C   UNL     1     -10.684  16.506  67.889  1.00  0.00    -0.337 C  
HETATM   16  O   UNL     1     -11.367  16.703  68.895  1.00  0.00    -0.258 OA 
BRANCH  15  17
HETATM   17  C   UNL     1      -9.982  17.648  67.247  1.00  0.00    -0.322 A  
HETATM   18  C   UNL     1      -8.668  17.455  66.805  1.00  0.00    -0.278 A  
HETATM   19  C   UNL     1      -7.946  18.521  66.265  1.00  0.00    -0.273 A  
HETATM   20  C   UNL     1      -8.532  19.780  66.163  1.00  0.00    -0.367 A  
HETATM   21  C   UNL     1      -9.843  19.978  66.596  1.00  0.00    -0.577 A  
HETATM   22  C   UNL     1     -10.565  18.918  67.148  1.00  0.00    -0.531 A  
ENDBRANCH  15  17
ENDBRANCH   9  15
ENDBRANCH   2   3
TORSDOF 3
ENDMDL
MODEL       11
REMARK 921   NORMALIZED FREE ENERGY PREDICTED BY IDOCK:   -6.31 KCAL/MOL
REMARK 922        TOTAL FREE ENERGY PREDICTED BY IDOCK:   -7.98 KCAL/MOL
REMARK 923 INTER-LIGAND FREE ENERGY PREDICTED BY IDOCK:   -7.38 KCAL/MOL
REMARK 924 INTRA-LIGAND FREE ENERGY PREDICTED BY IDOCK:   -0.60 KCAL/MOL
REMARK 927      BINDING AFFINITY PREDICTED BY RF-SCORE:    0.00 PKD
ROOT
HETATM    1  C   UNL     1     -11.011   5.365  73.027  1.00  0.00    -0.297 C  
HETATM    2  O   UNL     1     -10.649   6.681  73.435  1.00  0.00    -0.268 OA 
ENDROOT
BRANCH   2   3
HETATM    3  C   UNL     1     -11.084   7.707  72.643  1.00  0.00    -0.359 A  
HETATM    4  C   UNL     1     -10.123   8.571  72.106  1.00  0.00    -0.323 A  
HETATM    5  C   UNL     1     -10.490   9.678  71.324  1.00  0.00    -0.216 A  
HETATM    6  S   UNL     1      -8.401   8.249  72.363  1.00  0.00    -0.159 S  
HETATM    7  O   UNL     1      -7.653   9.457  71.587  1.00  0.00    -0.310 OA 
HETATM    8  O   UNL     1      -8.062   7.028  71.663  1.00  0.00    -0.103 OA 
HETATM    9  C   UNL     1     -11.836   9.920  71.053  1.00  0.00    -0.463 A  
HETATM   10  O   UNL     1      -8.098   8.483  73.755  1.00  0.00    -0.378 OA 
HETATM   11  H   UNL     1     -14.802   8.726  71.858  1.00  0.00     0.000 HD 
HETATM   12  C   UNL     1     -12.802   9.085  71.625  1.00  0.00    -0.359 A  
HETATM   13  O   UNL     1     -14.147   9.293  71.470  1.00  0.00    -0.277 OA 
HETATM   14  C   UNL     1     -12.432   7.986  72.406  1.00  0.00    -0.256 A  
BRANCH   9  15
HETATM   15  C   UNL     1     -12.255  11.067  70.209  1.00  0.00    -0.363 C  
HETATM   16  O   UNL     1     -12.360  10.875  68.997  1.00  0.00    -0.464 OA 
BRANCH  15  17
HETATM   17  C   UNL     1     -12.504  12.425  70.759  1.00  0.00    -0.356 A  
HETATM   18  C   UNL     1     -13.247  12.537  71.940  1.00  0.00    -0.495 A  
HETATM   19  C   UNL     1     -13.569  13.796  72.450  1.00  0.00    -0.690 A  
HETATM   20  C   UNL     1     -13.149  14.946  71.786  1.00  0.00    -0.425 A  
HETATM   21  C   UNL     1     -12.403  14.841  70.612  1.00  0.00    -0.401 A  
HETATM   22  C   UNL     1     -12.089  13.585  70.091  1.00  0.00    -0.425 A  
ENDBRANCH  15  17
ENDBRANCH   9  15
ENDBRANCH   2   3
TORSDOF 3
ENDMDL
MODEL       12
REMARK 921   NORMALIZED FREE ENERGY PREDICTED BY IDOCK:   -6.25 KCAL/MOL
REMARK 922        TOTAL FREE ENERGY PREDICTED BY IDOCK:   -7.91 KCAL/MOL
REMARK 923 INTER-LIGAND FREE ENERGY PREDICTED BY IDOCK:   -7.47 KCAL/MOL
REMARK 924 INTRA-LIGAND FREE ENERGY PREDICTED BY IDOCK:   -0.44 KCAL/MOL
REMARK 927      BINDING AFFINITY PREDICTED BY RF-SCORE:    0.00 PKD
ROOT
HETATM    1  C   UNL     1      -9.475  11.079  62.859  1.00  0.00    -0.356 C  
HETATM    2  O   UNL     1     -10.657  10.914  63.637  1.00  0.00    -0.326 OA 
ENDROOT
BRANCH   2   3
HETATM    3  C   UNL     1     -10.486  10.758  64.984  1.00  0.00    -0.237 A  
HETATM    4  C   UNL     1     -11.000  11.747  65.828  1.00  0.00    -0.301 A  
HETATM    5  C   UNL     1     -10.822  11.686  67.220  1.00  0.00    -0.302 A  
HETATM    6  S   UNL     1     -11.943  13.085  65.152  1.00  0.00    -0.430 S  
HETATM    7  O   UNL     1     -12.344  13.977  66.442  1.00  0.00    -0.460 OA 
HETATM    8  O   UNL     1     -13.175  12.543  64.619  1.00  0.00    -0.848 OA 
HETATM    9  C   UNL     1     -10.137  10.612  67.785  1.00  0.00    -0.203 A  
HETATM   10  O   UNL     1     -11.051  13.935  64.400  1.00  0.00    -0.376 OA 
HETATM   11  H   UNL     1      -8.458   7.938  66.833  1.00  0.00     0.000 HD 
HETATM   12  C   UNL     1      -9.582   9.643  66.940  1.00  0.00    -0.167 A  
HETATM   13  O   UNL     1      -8.835   8.595  67.406  1.00  0.00    -0.132 OA 
HETATM   14  C   UNL     1      -9.759   9.710  65.555  1.00  0.00    -0.372 A  
BRANCH   9  15
HETATM   15  C   UNL     1      -9.955  10.505  69.254  1.00  0.00    -0.213 C  
HETATM   16  O   UNL     1      -8.808  10.588  69.695  1.00  0.00    -0.096 OA 
BRANCH  15  17
HETATM   17  C   UNL     1     -11.082  10.262  70.192  1.00  0.00    -0.385 A  
HETATM   18  C   UNL     1     -11.927  11.334  70.507  1.00  0.00    -0.467 A  
HETATM   19  C   UNL     1     -12.951  11.169  71.440  1.00  0.00    -0.506 A  
HETATM   20  C   UNL     1     -13.139   9.935  72.059  1.00  0.00    -0.545 A  
HETATM   21  C   UNL     1     -12.306   8.861  71.745  1.00  0.00    -0.424 A  
HETATM   22  C   UNL     1     -11.272   9.024  70.822  1.00  0.00    -0.329 A  
ENDBRANCH  15  17
ENDBRANCH   9  15
ENDBRANCH   2   3
TORSDOF 3
ENDMDL
MODEL       13
REMARK 921   NORMALIZED FREE ENERGY PREDICTED BY IDOCK:   -6.25 KCAL/MOL
REMARK 922        TOTAL FREE ENERGY PREDICTED BY IDOCK:   -7.91 KCAL/MOL
REMARK 923 INTER-LIGAND FREE ENERGY PREDICTED BY IDOCK:   -7.29 KCAL/MOL
REMARK 924 INTRA-LIGAND FREE ENERGY PREDICTED BY IDOCK:   -0.62 KCAL/MOL
REMARK 927      BINDING AFFINITY PREDICTED BY RF-SCORE:    0.00 PKD
ROOT
HETATM    1  C   UNL     1     -10.526  18.848  66.413  1.00  0.00    -0.439 C  
HETATM    2  O   UNL     1      -9.677  17.924  65.738  1.00  0.00    -0.527 OA 
ENDROOT
BRANCH   2   3
HETATM    3  C   UNL     1     -10.141  16.645  65.617  1.00  0.00    -0.217 A  
HETATM    4  C   UNL     1      -9.445  15.630  66.283  1.00  0.00    -0.319 A  
HETATM    5  C   UNL     1      -9.827  14.284  66.169  1.00  0.00    -0.335 A  
HETATM    6  S   UNL     1      -8.082  16.038  67.338  1.00  0.00    -0.178 S  
HETATM    7  O   UNL     1      -7.578  14.607  67.903  1.00  0.00    -0.115 OA 
HETATM    8  O   UNL     1      -8.597  16.778  68.471  1.00  0.00    -0.225 OA 
HETATM    9  C   UNL     1     -10.934  13.940  65.394  1.00  0.00    -0.316 A  
HETATM   10  O   UNL     1      -6.990  16.496  66.514  1.00  0.00    -0.202 OA 
HETATM   11  H   UNL     1     -13.112  15.371  63.374  1.00  0.00     0.000 HD 
HETATM   12  C   UNL     1     -11.605  14.947  64.690  1.00  0.00    -0.395 A  
HETATM   13  O   UNL     1     -12.657  14.688  63.852  1.00  0.00    -0.834 OA 
HETATM   14  C   UNL     1     -11.219  16.285  64.804  1.00  0.00    -0.267 A  
BRANCH   9  15
HETATM   15  C   UNL     1     -11.378  12.530  65.274  1.00  0.00    -0.324 C  
HETATM   16  O   UNL     1     -12.490  12.241  65.719  1.00  0.00    -0.564 OA 
BRANCH  15  17
HETATM   17  C   UNL     1     -10.527  11.463  64.686  1.00  0.00    -0.373 A  
HETATM   18  C   UNL     1     -10.058  10.447  65.529  1.00  0.00    -0.352 A  
HETATM   19  C   UNL     1      -9.195   9.468  65.035  1.00  0.00    -0.297 A  
HETATM   20  C   UNL     1      -8.799   9.496  63.699  1.00  0.00    -0.236 A  
HETATM   21  C   UNL     1      -9.267  10.502  62.853  1.00  0.00    -0.318 A  
HETATM   22  C   UNL     1     -10.120  11.490  63.345  1.00  0.00    -0.454 A  
ENDBRANCH  15  17
ENDBRANCH   9  15
ENDBRANCH   2   3
TORSDOF 3
ENDMDL
MODEL       14
REMARK 921   NORMALIZED FREE ENERGY PREDICTED BY IDOCK:   -6.23 KCAL/MOL
REMARK 922        TOTAL FREE ENERGY PREDICTED BY IDOCK:   -7.88 KCAL/MOL
REMARK 923 INTER-LIGAND FREE ENERGY PREDICTED BY IDOCK:   -7.29 KCAL/MOL
REMARK 924 INTRA-LIGAND FREE ENERGY PREDICTED BY IDOCK:   -0.59 KCAL/MOL
REMARK 927      BINDING AFFINITY PREDICTED BY RF-SCORE:    0.00 PKD
ROOT
HETATM    1  C   UNL     1      -9.319  11.032  65.523  1.00  0.00    -0.215 C  
HETATM    2  O   UNL     1      -9.531  12.412  65.238  1.00  0.00    -0.064 OA 
ENDROOT
BRANCH   2   3
HETATM    3  C   UNL     1      -9.877  13.207  66.294  1.00  0.00    -0.283 A  
HETATM    4  C   UNL     1     -11.161  13.763  66.301  1.00  0.00    -0.306 A  
HETATM    5  C   UNL     1     -11.577  14.631  67.323  1.00  0.00    -0.404 A  
HETATM    6  S   UNL     1     -12.318  13.334  65.030  1.00  0.00    -0.452 S  
HETATM    7  O   UNL     1     -13.650  14.172  65.409  1.00  0.00    -0.568 OA 
HETATM    8  O   UNL     1     -12.648  11.933  65.177  1.00  0.00    -0.258 OA 
HETATM    9  C   UNL     1     -10.709  14.937  68.369  1.00  0.00    -0.245 A  
HETATM   10  O   UNL     1     -11.871  13.924  63.791  1.00  0.00    -0.337 OA 
HETATM   11  H   UNL     1      -7.588  14.375  69.273  1.00  0.00     0.000 HD 
HETATM   12  C   UNL     1      -9.409  14.419  68.343  1.00  0.00    -0.206 A  
HETATM   13  O   UNL     1      -8.471  14.726  69.292  1.00  0.00    -0.136 OA 
HETATM   14  C   UNL     1      -8.998  13.558  67.321  1.00  0.00    -0.222 A  
BRANCH   9  15
HETATM   15  C   UNL     1     -11.128  15.831  69.477  1.00  0.00    -0.306 C  
HETATM   16  O   UNL     1     -10.796  17.015  69.413  1.00  0.00    -0.275 OA 
BRANCH  15  17
HETATM   17  C   UNL     1     -11.883  15.346  70.663  1.00  0.00    -0.388 A  
HETATM   18  C   UNL     1     -11.949  16.173  71.791  1.00  0.00    -0.560 A  
HETATM   19  C   UNL     1     -12.583  15.727  72.952  1.00  0.00    -0.571 A  
HETATM   20  C   UNL     1     -13.155  14.457  72.990  1.00  0.00    -0.581 A  
HETATM   21  C   UNL     1     -13.097  13.631  71.868  1.00  0.00    -0.476 A  
HETATM   22  C   UNL     1     -12.454  14.067  70.709  1.00  0.00    -0.442 A  
ENDBRANCH  15  17
ENDBRANCH   9  15
ENDBRANCH   2   3
TORSDOF 3
ENDMDL
MODEL       15
REMARK 921   NORMALIZED FREE ENERGY PREDICTED BY IDOCK:   -6.21 KCAL/MOL
REMARK 922        TOTAL FREE ENERGY PREDICTED BY IDOCK:   -7.86 KCAL/MOL
REMARK 923 INTER-LIGAND FREE ENERGY PREDICTED BY IDOCK:   -7.31 KCAL/MOL
REMARK 924 INTRA-LIGAND FREE ENERGY PREDICTED BY IDOCK:   -0.55 KCAL/MOL
REMARK 927      BINDING AFFINITY PREDICTED BY RF-SCORE:    0.00 PKD
ROOT
HETATM    1  C   UNL     1     -11.013  16.242  69.535  1.00  0.00    -0.339 C  
HETATM    2  O   UNL     1     -11.747  15.285  68.776  1.00  0.00    -0.340 OA 
ENDROOT
BRANCH   2   3
HETATM    3  C   UNL     1     -11.942  14.064  69.357  1.00  0.00    -0.343 A  
HETATM    4  C   UNL     1     -11.757  12.925  68.566  1.00  0.00    -0.339 A  
HETATM    5  C   UNL     1     -11.986  11.636  69.074  1.00  0.00    -0.368 A  
HETATM    6  S   UNL     1     -11.171  13.089  66.903  1.00  0.00    -0.309 S  
HETATM    7  O   UNL     1     -11.093  11.566  66.360  1.00  0.00    -0.296 OA 
HETATM    8  O   UNL     1      -9.813  13.587  66.951  1.00  0.00    -0.243 OA 
HETATM    9  C   UNL     1     -12.388  11.474  70.399  1.00  0.00    -0.390 A  
HETATM   10  O   UNL     1     -12.216  13.692  66.111  1.00  0.00    -0.417 OA 
HETATM   11  H   UNL     1     -13.238  13.318  72.997  1.00  0.00     0.000 HD 
HETATM   12  C   UNL     1     -12.618  12.612  71.180  1.00  0.00    -0.258 A  
HETATM   13  O   UNL     1     -13.082  12.545  72.467  1.00  0.00    -0.298 OA 
HETATM   14  C   UNL     1     -12.392  13.894  70.669  1.00  0.00    -0.451 A  
BRANCH   9  15
HETATM   15  C   UNL     1     -12.614  10.124  70.972  1.00  0.00    -0.381 C  
HETATM   16  O   UNL     1     -13.774   9.713  71.029  1.00  0.00    -0.274 OA 
BRANCH  15  17
HETATM   17  C   UNL     1     -11.514   9.282  71.512  1.00  0.00    -0.454 A  
HETATM   18  C   UNL     1     -11.821   8.346  72.507  1.00  0.00    -0.427 A  
HETATM   19  C   UNL     1     -10.807   7.588  73.095  1.00  0.00    -0.448 A  
HETATM   20  C   UNL     1      -9.485   7.760  72.691  1.00  0.00    -0.251 A  
HETATM   21  C   UNL     1      -9.172   8.687  71.697  1.00  0.00    -0.326 A  
HETATM   22  C   UNL     1     -10.181   9.456  71.115  1.00  0.00    -0.361 A  
ENDBRANCH  15  17
ENDBRANCH   9  15
ENDBRANCH   2   3
TORSDOF 3
ENDMDL
MODEL       16
REMARK 921   NORMALIZED FREE ENERGY PREDICTED BY IDOCK:   -6.20 KCAL/MOL
REMARK 922        TOTAL FREE ENERGY PREDICTED BY IDOCK:   -7.84 KCAL/MOL
REMARK 923 INTER-LIGAND FREE ENERGY PREDICTED BY IDOCK:   -7.54 KCAL/MOL
REMARK 924 INTRA-LIGAND FREE ENERGY PREDICTED BY IDOCK:   -0.31 KCAL/MOL
REMARK 927      BINDING AFFINITY PREDICTED BY RF-SCORE:    0.00 PKD
ROOT
HETATM    1  C   UNL     1      -8.476  10.509  64.961  1.00  0.00    -0.163 C  
HETATM    2  O   UNL     1      -9.610  11.369  65.039  1.00  0.00    -0.230 OA 
ENDROOT
BRANCH   2   3
HETATM    3  C   UNL     1     -10.226  11.459  66.255  1.00  0.00    -0.233 A  
HETATM    4  C   UNL     1     -11.338  12.301  66.365  1.00  0.00    -0.354 A  
HETATM    5  C   UNL     1     -11.996  12.487  67.591  1.00  0.00    -0.287 A  
HETATM    6  S   UNL     1     -11.976  13.116  64.928  1.00  0.00    -0.415 S  
HETATM    7  O   UNL     1     -13.237  13.966  65.483  1.00  0.00    -0.698 OA 
HETATM    8  O   UNL     1     -12.510  12.107  64.038  1.00  0.00    -0.457 OA 
HETATM    9  C   UNL     1     -11.553  11.810  68.726  1.00  0.00    -0.367 A  
HETATM   10  O   UNL     1     -11.026  14.122  64.517  1.00  0.00    -0.385 OA 
HETATM   11  H   UNL     1      -9.098   9.810  69.645  1.00  0.00     0.000 HD 
HETATM   12  C   UNL     1     -10.414  11.002  68.631  1.00  0.00    -0.192 A  
HETATM   13  O   UNL     1      -9.871  10.358  69.710  1.00  0.00    -0.198 OA 
HETATM   14  C   UNL     1      -9.761  10.822  67.408  1.00  0.00    -0.194 A  
BRANCH   9  15
HETATM   15  C   UNL     1     -12.243  11.967  70.031  1.00  0.00    -0.217 C  
HETATM   16  O   UNL     1     -12.760  10.965  70.528  1.00  0.00    -0.323 OA 
BRANCH  15  17
HETATM   17  C   UNL     1     -12.368  13.275  70.726  1.00  0.00    -0.425 A  
HETATM   18  C   UNL     1     -13.175  13.345  71.868  1.00  0.00    -0.522 A  
HETATM   19  C   UNL     1     -13.381  14.569  72.507  1.00  0.00    -0.565 A  
HETATM   20  C   UNL     1     -12.782  15.725  72.011  1.00  0.00    -0.518 A  
HETATM   21  C   UNL     1     -11.972  15.660  70.877  1.00  0.00    -0.440 A  
HETATM   22  C   UNL     1     -11.773  14.441  70.227  1.00  0.00    -0.355 A  
ENDBRANCH  15  17
ENDBRANCH   9  15
ENDBRANCH   2   3
TORSDOF 3
ENDMDL
MODEL       17
REMARK 921   NORMALIZED FREE ENERGY PREDICTED BY IDOCK:   -6.17 KCAL/MOL
REMARK 922        TOTAL FREE ENERGY PREDICTED BY IDOCK:   -7.81 KCAL/MOL
REMARK 923 INTER-LIGAND FREE ENERGY PREDICTED BY IDOCK:   -7.31 KCAL/MOL
REMARK 924 INTRA-LIGAND FREE ENERGY PREDICTED BY IDOCK:   -0.50 KCAL/MOL
REMARK 927      BINDING AFFINITY PREDICTED BY RF-SCORE:    0.00 PKD
ROOT
HETATM    1  C   UNL     1      -7.593  16.762  68.934  1.00  0.00    -0.239 C  
HETATM    2  O   UNL     1      -9.000  16.812  68.712  1.00  0.00    -0.248 OA 
ENDROOT
BRANCH   2   3
HETATM    3  C   UNL     1      -9.544  15.778  68.004  1.00  0.00    -0.210 A  
HETATM    4  C   UNL     1     -10.199  16.080  66.804  1.00  0.00    -0.274 A  
HETATM    5  C   UNL     1     -10.827  15.081  66.043  1.00  0.00    -0.334 A  
HETATM    6  S   UNL     1     -10.201  17.741  66.191  1.00  0.00    -0.283 S  
HETATM    7  O   UNL     1     -11.042  17.651  64.810  1.00  0.00    -0.915 OA 
HETATM    8  O   UNL     1      -8.842  18.089  65.832  1.00  0.00    -0.504 OA 
HETATM    9  C   UNL     1     -10.789  13.755  66.471  1.00  0.00    -0.287 A  
HETATM   10  O   UNL     1     -11.030  18.545  67.057  1.00  0.00    -0.293 OA 
HETATM   11  H   UNL     1      -9.736  11.990  69.049  1.00  0.00     0.000 HD 
HETATM   12  C   UNL     1     -10.174  13.456  67.692  1.00  0.00    -0.228 A  
HETATM   13  O   UNL     1     -10.153  12.193  68.220  1.00  0.00    -0.201 OA 
HETATM   14  C   UNL     1      -9.552  14.454  68.448  1.00  0.00    -0.219 A  
BRANCH   9  15
HETATM   15  C   UNL     1     -11.422  12.674  65.676  1.00  0.00    -0.350 C  
HETATM   16  O   UNL     1     -12.644  12.545  65.757  1.00  0.00    -0.569 OA 
BRANCH  15  17
HETATM   17  C   UNL     1     -10.642  11.729  64.834  1.00  0.00    -0.344 A  
HETATM   18  C   UNL     1     -10.095  10.593  65.443  1.00  0.00    -0.356 A  
HETATM   19  C   UNL     1      -9.293   9.720  64.707  1.00  0.00    -0.327 A  
HETATM   20  C   UNL     1      -9.037   9.974  63.361  1.00  0.00    -0.301 A  
HETATM   21  C   UNL     1      -9.584  11.101  62.747  1.00  0.00    -0.334 A  
HETATM   22  C   UNL     1     -10.376  11.984  63.482  1.00  0.00    -0.492 A  
ENDBRANCH  15  17
ENDBRANCH   9  15
ENDBRANCH   2   3
TORSDOF 3
ENDMDL
MODEL       18
REMARK 921   NORMALIZED FREE ENERGY PREDICTED BY IDOCK:   -6.16 KCAL/MOL
REMARK 922        TOTAL FREE ENERGY PREDICTED BY IDOCK:   -7.80 KCAL/MOL
REMARK 923 INTER-LIGAND FREE ENERGY PREDICTED BY IDOCK:   -7.11 KCAL/MOL
REMARK 924 INTRA-LIGAND FREE ENERGY PREDICTED BY IDOCK:   -0.69 KCAL/MOL
REMARK 927      BINDING AFFINITY PREDICTED BY RF-SCORE:    0.00 PKD
ROOT
HETATM    1  C   UNL     1     -14.004   8.721  72.080  1.00  0.00    -0.460 C  
HETATM    2  O   UNL     1     -12.605   8.989  72.106  1.00  0.00    -0.363 OA 
ENDROOT
BRANCH   2   3
HETATM    3  C   UNL     1     -12.108   9.744  71.081  1.00  0.00    -0.370 A  
HETATM    4  C   UNL     1     -11.143   9.166  70.250  1.00  0.00    -0.239 A  
HETATM    5  C   UNL     1     -10.547   9.891  69.206  1.00  0.00    -0.245 A  
HETATM    6  S   UNL     1     -10.688   7.468  70.470  1.00  0.00    -0.239 S  
HETATM    7  O   UNL     1      -9.574   7.206  69.325  1.00  0.00    -0.155 OA 
HETATM    8  O   UNL     1     -11.833   6.649  70.136  1.00  0.00    -0.389 OA 
HETATM    9  C   UNL     1     -10.930  11.210  68.971  1.00  0.00    -0.286 A  
HETATM   10  O   UNL     1      -9.955   7.351  71.708  1.00  0.00    -0.171 OA 
HETATM   11  H   UNL     1     -12.875  13.522  70.294  1.00  0.00     0.000 HD 
HETATM   12  C   UNL     1     -11.863  11.807  69.828  1.00  0.00    -0.349 A  
HETATM   13  O   UNL     1     -12.242  13.117  69.712  1.00  0.00    -0.280 OA 
HETATM   14  C   UNL     1     -12.451  11.081  70.868  1.00  0.00    -0.509 A  
BRANCH   9  15
HETATM   15  C   UNL     1     -10.338  11.995  67.860  1.00  0.00    -0.197 C  
HETATM   16  O   UNL     1      -9.372  12.714  68.120  1.00  0.00    -0.202 OA 
BRANCH  15  17
HETATM   17  C   UNL     1     -10.885  11.979  66.478  1.00  0.00    -0.314 A  
HETATM   18  C   UNL     1     -10.219  11.219  65.508  1.00  0.00    -0.312 A  
HETATM   19  C   UNL     1     -10.655  11.234  64.183  1.00  0.00    -0.437 A  
HETATM   20  C   UNL     1     -11.758  12.005  63.820  1.00  0.00    -0.575 A  
HETATM   21  C   UNL     1     -12.429  12.760  64.782  1.00  0.00    -0.539 A  
HETATM   22  C   UNL     1     -11.990  12.757  66.107  1.00  0.00    -0.476 A  
ENDBRANCH  15  17
ENDBRANCH   9  15
ENDBRANCH   2   3
TORSDOF 3
ENDMDL
MODEL       19
REMARK 921   NORMALIZED FREE ENERGY PREDICTED BY IDOCK:   -6.16 KCAL/MOL
REMARK 922        TOTAL FREE ENERGY PREDICTED BY IDOCK:   -7.80 KCAL/MOL
REMARK 923 INTER-LIGAND FREE ENERGY PREDICTED BY IDOCK:   -7.17 KCAL/MOL
REMARK 924 INTRA-LIGAND FREE ENERGY PREDICTED BY IDOCK:   -0.63 KCAL/MOL
REMARK 927      BINDING AFFINITY PREDICTED BY RF-SCORE:    0.00 PKD
ROOT
HETATM    1  C   UNL     1     -11.864  11.846  69.116  1.00  0.00    -0.311 C  
HETATM    2  O   UNL     1     -12.339  12.393  67.889  1.00  0.00    -0.261 OA 
ENDROOT
BRANCH   2   3
HETATM    3  C   UNL     1     -11.816  13.599  67.515  1.00  0.00    -0.381 A  
HETATM    4  C   UNL     1     -11.447  13.765  66.176  1.00  0.00    -0.338 A  
HETATM    5  C   UNL     1     -10.856  14.955  65.722  1.00  0.00    -0.343 A  
HETATM    6  S   UNL     1     -11.770  12.478  65.002  1.00  0.00    -0.378 S  
HETATM    7  O   UNL     1     -11.206  13.068  63.604  1.00  0.00    -0.399 OA 
HETATM    8  O   UNL     1     -13.205  12.354  64.855  1.00  0.00    -0.714 OA 
HETATM    9  C   UNL     1     -10.646  16.008  66.611  1.00  0.00    -0.297 A  
HETATM   10  O   UNL     1     -10.897  11.367  65.295  1.00  0.00    -0.284 OA 
HETATM   11  H   UNL     1     -10.955  16.663  69.828  1.00  0.00     0.000 HD 
HETATM   12  C   UNL     1     -10.973  15.830  67.960  1.00  0.00    -0.330 A  
HETATM   13  O   UNL     1     -10.734  16.785  68.912  1.00  0.00    -0.315 OA 
HETATM   14  C   UNL     1     -11.557  14.641  68.408  1.00  0.00    -0.351 A  
BRANCH   9  15
HETATM   15  C   UNL     1     -10.048  17.288  66.157  1.00  0.00    -0.302 C  
HETATM   16  O   UNL     1     -10.778  18.079  65.558  1.00  0.00    -0.597 OA 
BRANCH  15  17
HETATM   17  C   UNL     1      -8.614  17.624  66.356  1.00  0.00    -0.269 A  
HETATM   18  C   UNL     1      -8.238  18.973  66.337  1.00  0.00    -0.314 A  
HETATM   19  C   UNL     1      -6.893  19.329  66.444  1.00  0.00    -0.219 A  
HETATM   20  C   UNL     1      -5.919  18.342  66.575  1.00  0.00    -0.193 A  
HETATM   21  C   UNL     1      -6.286  16.996  66.601  1.00  0.00    -0.247 A  
HETATM   22  C   UNL     1      -7.629  16.635  66.481  1.00  0.00    -0.327 A  
ENDBRANCH  15  17
ENDBRANCH   9  15
ENDBRANCH   2   3
TORSDOF 3
ENDMDL
MODEL       20
REMARK 921   NORMALIZED FREE ENERGY PREDICTED BY IDOCK:   -6.06 KCAL/MOL
REMARK 922        TOTAL FREE ENERGY PREDICTED BY IDOCK:   -7.69 KCAL/MOL
REMARK 923 INTER-LIGAND FREE ENERGY PREDICTED BY IDOCK:   -7.40 KCAL/MOL
REMARK 924 INTRA-LIGAND FREE ENERGY PREDICTED BY IDOCK:   -0.29 KCAL/MOL
REMARK 927      BINDING AFFINITY PREDICTED BY RF-SCORE:    0.00 PKD
ROOT
HETATM    1  C   UNL     1     -11.057  10.503  67.849  1.00  0.00    -0.304 C  
HETATM    2  O   UNL     1     -10.241  10.979  66.783  1.00  0.00    -0.212 OA 
ENDROOT
BRANCH   2   3
HETATM    3  C   UNL     1     -10.406  12.288  66.425  1.00  0.00    -0.225 A  
HETATM    4  C   UNL     1      -9.348  13.171  66.665  1.00  0.00    -0.239 A  
HETATM    5  C   UNL     1      -9.457  14.540  66.373  1.00  0.00    -0.316 A  
HETATM    6  S   UNL     1      -7.813  12.559  67.303  1.00  0.00    -0.131 S  
HETATM    7  O   UNL     1      -6.882  13.878  67.424  1.00  0.00    -0.186 OA 
HETATM    8  O   UNL     1      -7.212  11.713  66.294  1.00  0.00     0.047 OA 
HETATM    9  C   UNL     1     -10.631  15.038  65.813  1.00  0.00    -0.351 A  
HETATM   10  O   UNL     1      -8.021  12.148  68.671  1.00  0.00    -0.130 OA 
HETATM   11  H   UNL     1     -13.651  13.995  64.998  1.00  0.00     0.000 HD 
HETATM   12  C   UNL     1     -11.708  14.167  65.612  1.00  0.00    -0.357 A  
HETATM   13  O   UNL     1     -12.921  14.586  65.134  1.00  0.00    -0.543 OA 
HETATM   14  C   UNL     1     -11.597  12.805  65.908  1.00  0.00    -0.428 A  
BRANCH   9  15
HETATM   15  C   UNL     1     -10.768  16.475  65.469  1.00  0.00    -0.256 C  
HETATM   16  O   UNL     1     -11.055  16.760  64.306  1.00  0.00    -1.106 OA 
BRANCH  15  17
HETATM   17  C   UNL     1     -10.531  17.566  66.451  1.00  0.00    -0.277 A  
HETATM   18  C   UNL     1     -10.341  18.866  65.966  1.00  0.00    -0.485 A  
HETATM   19  C   UNL     1     -10.041  19.907  66.847  1.00  0.00    -0.579 A  
HETATM   20  C   UNL     1      -9.933  19.655  68.213  1.00  0.00    -0.543 A  
HETATM   21  C   UNL     1     -10.127  18.363  68.703  1.00  0.00    -0.407 A  
HETATM   22  C   UNL     1     -10.414  17.317  67.825  1.00  0.00    -0.371 A  
ENDBRANCH  15  17
ENDBRANCH   9  15
ENDBRANCH   2   3
TORSDOF 3
ENDMDL
MODEL       21
REMARK 921   NORMALIZED FREE ENERGY PREDICTED BY IDOCK:   -6.04 KCAL/MOL
REMARK 922        TOTAL FREE ENERGY PREDICTED BY IDOCK:   -7.67 KCAL/MOL
REMARK 923 INTER-LIGAND FREE ENERGY PREDICTED BY IDOCK:   -6.95 KCAL/MOL
REMARK 924 INTRA-LIGAND FREE ENERGY PREDICTED BY IDOCK:   -0.71 KCAL/MOL
REMARK 927      BINDING AFFINITY PREDICTED BY RF-SCORE:    0.00 PKD
ROOT
HETATM    1  C   UNL     1     -13.983   8.541  72.002  1.00  0.00    -0.433 C  
HETATM    2  O   UNL     1     -12.580   8.785  72.037  1.00  0.00    -0.335 OA 
ENDROOT
BRANCH   2   3
HETATM    3  C   UNL     1     -12.076   9.597  71.060  1.00  0.00    -0.337 A  
HETATM    4  C   UNL     1     -11.095   9.070  70.213  1.00  0.00    -0.235 A  
HETATM    5  C   UNL     1     -10.491   9.854  69.217  1.00  0.00    -0.240 A  
HETATM    6  S   UNL     1     -10.630   7.366  70.350  1.00  0.00    -0.232 S  
HETATM    7  O   UNL     1      -9.499   7.173  69.208  1.00  0.00    -0.153 OA 
HETATM    8  O   UNL     1     -11.764   6.557  69.957  1.00  0.00    -0.416 OA 
HETATM    9  C   UNL     1     -10.882  11.180  69.046  1.00  0.00    -0.276 A  
HETATM   10  O   UNL     1      -9.912   7.190  71.590  1.00  0.00    -0.178 OA 
HETATM   11  H   UNL     1     -12.862  13.405  70.462  1.00  0.00     0.000 HD 
HETATM   12  C   UNL     1     -11.830  11.724  69.920  1.00  0.00    -0.348 A  
HETATM   13  O   UNL     1     -12.219  13.036  69.868  1.00  0.00    -0.277 OA 
HETATM   14  C   UNL     1     -12.427  10.941  70.913  1.00  0.00    -0.507 A  
BRANCH   9  15
HETATM   15  C   UNL     1     -10.281  12.027  67.986  1.00  0.00    -0.198 C  
HETATM   16  O   UNL     1      -9.332  12.747  68.299  1.00  0.00    -0.209 OA 
BRANCH  15  17
HETATM   17  C   UNL     1     -10.803  12.070  66.595  1.00  0.00    -0.311 A  
HETATM   18  C   UNL     1     -11.920  12.871  66.329  1.00  0.00    -0.472 A  
HETATM   19  C   UNL     1     -12.488  12.882  65.054  1.00  0.00    -0.553 A  
HETATM   20  C   UNL     1     -11.943  12.097  64.040  1.00  0.00    -0.533 A  
HETATM   21  C   UNL     1     -10.826  11.302  64.297  1.00  0.00    -0.398 A  
HETATM   22  C   UNL     1     -10.262  11.278  65.573  1.00  0.00    -0.312 A  
ENDBRANCH  15  17
ENDBRANCH   9  15
ENDBRANCH   2   3
TORSDOF 3
ENDMDL
MODEL       22
REMARK 921   NORMALIZED FREE ENERGY PREDICTED BY IDOCK:   -5.99 KCAL/MOL
REMARK 922        TOTAL FREE ENERGY PREDICTED BY IDOCK:   -7.60 KCAL/MOL
REMARK 923 INTER-LIGAND FREE ENERGY PREDICTED BY IDOCK:   -7.62 KCAL/MOL
REMARK 924 INTRA-LIGAND FREE ENERGY PREDICTED BY IDOCK:    0.02 KCAL/MOL
REMARK 927      BINDING AFFINITY PREDICTED BY RF-SCORE:    0.00 PKD
ROOT
HETATM    1  C   UNL     1     -10.716   6.805  68.968  1.00  0.00    -0.246 C  
HETATM    2  O   UNL     1     -10.444   7.643  70.088  1.00  0.00    -0.216 OA 
ENDROOT
BRANCH   2   3
HETATM    3  C   UNL     1     -10.769   8.964  69.955  1.00  0.00    -0.228 A  
HETATM    4  C   UNL     1     -11.840   9.453  70.711  1.00  0.00    -0.256 A  
HETATM    5  C   UNL     1     -12.269  10.785  70.595  1.00  0.00    -0.474 A  
HETATM    6  S   UNL     1     -12.651   8.400  71.882  1.00  0.00    -0.367 S  
HETATM    7  O   UNL     1     -13.800   9.339  72.528  1.00  0.00    -0.468 OA 
HETATM    8  O   UNL     1     -11.712   8.098  72.941  1.00  0.00    -0.373 OA 
HETATM    9  C   UNL     1     -11.610  11.653  69.726  1.00  0.00    -0.389 A  
HETATM   10  O   UNL     1     -13.387   7.394  71.154  1.00  0.00    -0.305 OA 
HETATM   11  H   UNL     1      -9.206  11.584  67.471  1.00  0.00     0.000 HD 
HETATM   12  C   UNL     1     -10.567  11.156  68.936  1.00  0.00    -0.207 A  
HETATM   13  O   UNL     1      -9.913  11.921  68.007  1.00  0.00    -0.179 OA 
HETATM   14  C   UNL     1     -10.145   9.829  69.053  1.00  0.00    -0.195 A  
BRANCH   9  15
HETATM   15  C   UNL     1     -12.023  13.073  69.600  1.00  0.00    -0.302 C  
HETATM   16  O   UNL     1     -12.121  13.541  68.465  1.00  0.00    -0.359 OA 
BRANCH  15  17
HETATM   17  C   UNL     1     -12.276  13.947  70.775  1.00  0.00    -0.441 A  
HETATM   18  C   UNL     1     -13.337  13.622  71.629  1.00  0.00    -0.424 A  
HETATM   19  C   UNL     1     -13.657  14.457  72.701  1.00  0.00    -0.589 A  
HETATM   20  C   UNL     1     -12.918  15.616  72.927  1.00  0.00    -0.600 A  
HETATM   21  C   UNL     1     -11.856  15.943  72.084  1.00  0.00    -0.615 A  
HETATM   22  C   UNL     1     -11.540  15.118  71.003  1.00  0.00    -0.390 A  
ENDBRANCH  15  17
ENDBRANCH   9  15
ENDBRANCH   2   3
TORSDOF 3
ENDMDL
MODEL       23
REMARK 921   NORMALIZED FREE ENERGY PREDICTED BY IDOCK:   -5.99 KCAL/MOL
REMARK 922        TOTAL FREE ENERGY PREDICTED BY IDOCK:   -7.60 KCAL/MOL
REMARK 923 INTER-LIGAND FREE ENERGY PREDICTED BY IDOCK:   -6.97 KCAL/MOL
REMARK 924 INTRA-LIGAND FREE ENERGY PREDICTED BY IDOCK:   -0.63 KCAL/MOL
REMARK 927      BINDING AFFINITY PREDICTED BY RF-SCORE:    0.00 PKD
ROOT
HETATM    1  C   UNL     1     -10.415  18.849  65.931  1.00  0.00    -0.391 C  
HETATM    2  O   UNL     1      -9.537  17.727  65.903  1.00  0.00    -0.517 OA 
ENDROOT
BRANCH   2   3
HETATM    3  C   UNL     1      -9.942  16.618  66.593  1.00  0.00    -0.283 A  
HETATM    4  C   UNL     1      -9.192  16.232  67.709  1.00  0.00    -0.203 A  
HETATM    5  C   UNL     1      -9.511  15.077  68.441  1.00  0.00    -0.201 A  
HETATM    6  S   UNL     1      -7.839  17.236  68.257  1.00  0.00    -0.253 S  
HETATM    7  O   UNL     1      -7.262  16.450  69.549  1.00  0.00    -0.219 OA 
HETATM    8  O   UNL     1      -8.377  18.492  68.735  1.00  0.00    -0.313 OA 
HETATM    9  C   UNL     1     -10.608  14.301  68.069  1.00  0.00    -0.238 A  
HETATM   10  O   UNL     1      -6.778  17.139  67.283  1.00  0.00    -0.139 OA 
HETATM   11  H   UNL     1     -12.872  14.157  65.676  1.00  0.00     0.000 HD 
HETATM   12  C   UNL     1     -11.333  14.659  66.927  1.00  0.00    -0.356 A  
HETATM   13  O   UNL     1     -12.380  13.915  66.451  1.00  0.00    -0.448 OA 
HETATM   14  C   UNL     1     -11.010  15.808  66.199  1.00  0.00    -0.169 A  
BRANCH   9  15
HETATM   15  C   UNL     1     -10.986  13.090  68.838  1.00  0.00    -0.230 C  
HETATM   16  O   UNL     1     -10.526  12.010  68.465  1.00  0.00    -0.218 OA 
BRANCH  15  17
HETATM   17  C   UNL     1     -11.920  13.126  69.994  1.00  0.00    -0.391 A  
HETATM   18  C   UNL     1     -12.416  14.369  70.408  1.00  0.00    -0.420 A  
HETATM   19  C   UNL     1     -13.235  14.457  71.534  1.00  0.00    -0.419 A  
HETATM   20  C   UNL     1     -13.564  13.307  72.250  1.00  0.00    -0.703 A  
HETATM   21  C   UNL     1     -13.078  12.066  71.839  1.00  0.00    -0.475 A  
HETATM   22  C   UNL     1     -12.248  11.974  70.721  1.00  0.00    -0.382 A  
ENDBRANCH  15  17
ENDBRANCH   9  15
ENDBRANCH   2   3
TORSDOF 3
ENDMDL
MODEL       24
REMARK 921   NORMALIZED FREE ENERGY PREDICTED BY IDOCK:   -5.95 KCAL/MOL
REMARK 922        TOTAL FREE ENERGY PREDICTED BY IDOCK:   -7.55 KCAL/MOL
REMARK 923 INTER-LIGAND FREE ENERGY PREDICTED BY IDOCK:   -6.91 KCAL/MOL
REMARK 924 INTRA-LIGAND FREE ENERGY PREDICTED BY IDOCK:   -0.64 KCAL/MOL
REMARK 927      BINDING AFFINITY PREDICTED BY RF-SCORE:    0.00 PKD
ROOT
HETATM    1  C   UNL     1     -12.467  14.666  69.957  1.00  0.00    -0.284 C  
HETATM    2  O   UNL     1     -11.419  14.559  68.998  1.00  0.00    -0.258 OA 
ENDROOT
BRANCH   2   3
HETATM    3  C   UNL     1     -10.990  15.725  68.430  1.00  0.00    -0.323 A  
HETATM    4  C   UNL     1     -10.721  15.724  67.057  1.00  0.00    -0.306 A  
HETATM    5  C   UNL     1     -10.229  16.867  66.406  1.00  0.00    -0.326 A  
HETATM    6  S   UNL     1     -11.050  14.275  66.092  1.00  0.00    -0.331 S  
HETATM    7  O   UNL     1     -10.614  14.693  64.590  1.00  0.00    -0.392 OA 
HETATM    8  O   UNL     1     -12.482  14.066  66.069  1.00  0.00    -0.468 OA 
HETATM    9  C   UNL     1     -10.019  18.040  67.129  1.00  0.00    -0.326 A  
HETATM   10  O   UNL     1     -10.099  13.256  66.465  1.00  0.00    -0.262 OA 
HETATM   11  H   UNL     1     -10.148  19.113  70.244  1.00  0.00     0.000 HD 
HETATM   12  C   UNL     1     -10.244  18.032  68.511  1.00  0.00    -0.385 A  
HETATM   13  O   UNL     1      -9.996  19.119  69.307  1.00  0.00    -0.355 OA 
HETATM   14  C   UNL     1     -10.731  16.891  69.155  1.00  0.00    -0.298 A  
BRANCH   9  15
HETATM   15  C   UNL     1      -9.524  19.272  66.466  1.00  0.00    -0.357 C  
HETATM   16  O   UNL     1     -10.338  19.947  65.835  1.00  0.00    -0.495 OA 
BRANCH  15  17
HETATM   17  C   UNL     1      -8.098  19.689  66.498  1.00  0.00    -0.338 A  
HETATM   18  C   UNL     1      -7.160  18.899  65.822  1.00  0.00    -0.274 A  
HETATM   19  C   UNL     1      -5.801  19.212  65.888  1.00  0.00    -0.190 A  
HETATM   20  C   UNL     1      -5.374  20.313  66.628  1.00  0.00    -0.185 A  
HETATM   21  C   UNL     1      -6.304  21.107  67.299  1.00  0.00    -0.425 A  
HETATM   22  C   UNL     1      -7.663  20.791  67.246  1.00  0.00    -0.332 A  
ENDBRANCH  15  17
ENDBRANCH   9  15
ENDBRANCH   2   3
TORSDOF 3
ENDMDL
MODEL       25
REMARK 921   NORMALIZED FREE ENERGY PREDICTED BY IDOCK:   -5.93 KCAL/MOL
REMARK 922        TOTAL FREE ENERGY PREDICTED BY IDOCK:   -7.53 KCAL/MOL
REMARK 923 INTER-LIGAND FREE ENERGY PREDICTED BY IDOCK:   -7.15 KCAL/MOL
REMARK 924 INTRA-LIGAND FREE ENERGY PREDICTED BY IDOCK:   -0.38 KCAL/MOL
REMARK 927      BINDING AFFINITY PREDICTED BY RF-SCORE:    0.00 PKD
ROOT
HETATM    1  C   UNL     1      -6.141  16.827  66.904  1.00  0.00    -0.177 C  
HETATM    2  O   UNL     1      -7.452  17.275  66.571  1.00  0.00    -0.222 OA 
ENDROOT
BRANCH   2   3
HETATM    3  C   UNL     1      -8.492  16.612  67.161  1.00  0.00    -0.189 A  
HETATM    4  C   UNL     1      -9.619  17.356  67.526  1.00  0.00    -0.257 A  
HETATM    5  C   UNL     1     -10.708  16.760  68.181  1.00  0.00    -0.361 A  
HETATM    6  S   UNL     1      -9.716  19.076  67.115  1.00  0.00    -0.334 S  
HETATM    7  O   UNL     1     -11.151  19.542  67.700  1.00  0.00    -0.346 OA 
HETATM    8  O   UNL     1      -9.793  19.191  65.674  1.00  0.00    -0.382 OA 
HETATM    9  C   UNL     1     -10.686  15.395  68.462  1.00  0.00    -0.256 A  
HETATM   10  O   UNL     1      -8.757  19.791  67.923  1.00  0.00    -0.313 OA 
HETATM   11  H   UNL     1      -8.631  12.827  68.224  1.00  0.00     0.000 HD 
HETATM   12  C   UNL     1      -9.542  14.656  68.139  1.00  0.00    -0.213 A  
HETATM   13  O   UNL     1      -9.408  13.328  68.443  1.00  0.00    -0.205 OA 
HETATM   14  C   UNL     1      -8.458  15.255  67.489  1.00  0.00    -0.192 A  
BRANCH   9  15
HETATM   15  C   UNL     1     -11.832  14.730  69.131  1.00  0.00    -0.305 C  
HETATM   16  O   UNL     1     -12.383  13.804  68.534  1.00  0.00    -0.269 OA 
BRANCH  15  17
HETATM   17  C   UNL     1     -12.357  15.163  70.452  1.00  0.00    -0.411 A  
HETATM   18  C   UNL     1     -11.485  15.816  71.332  1.00  0.00    -0.496 A  
HETATM   19  C   UNL     1     -11.915  16.173  72.611  1.00  0.00    -0.653 A  
HETATM   20  C   UNL     1     -13.217  15.883  73.016  1.00  0.00    -0.648 A  
HETATM   21  C   UNL     1     -14.093  15.238  72.142  1.00  0.00    -0.658 A  
HETATM   22  C   UNL     1     -13.663  14.868  70.866  1.00  0.00    -0.266 A  
ENDBRANCH  15  17
ENDBRANCH   9  15
ENDBRANCH   2   3
TORSDOF 3
ENDMDL
MODEL       26
REMARK 921   NORMALIZED FREE ENERGY PREDICTED BY IDOCK:   -5.87 KCAL/MOL
REMARK 922        TOTAL FREE ENERGY PREDICTED BY IDOCK:   -7.46 KCAL/MOL
REMARK 923 INTER-LIGAND FREE ENERGY PREDICTED BY IDOCK:   -7.56 KCAL/MOL
REMARK 924 INTRA-LIGAND FREE ENERGY PREDICTED BY IDOCK:    0.10 KCAL/MOL
REMARK 927      BINDING AFFINITY PREDICTED BY RF-SCORE:    0.00 PKD
ROOT
HETATM    1  C   UNL     1     -12.553  11.720  63.483  1.00  0.00    -0.367 C  
HETATM    2  O   UNL     1     -12.485  12.128  64.847  1.00  0.00    -0.467 OA 
ENDROOT
BRANCH   2   3
HETATM    3  C   UNL     1     -11.840  13.305  65.101  1.00  0.00    -0.348 A  
HETATM    4  C   UNL     1     -11.031  13.376  66.240  1.00  0.00    -0.288 A  
HETATM    5  C   UNL     1     -10.374  14.564  66.598  1.00  0.00    -0.274 A  
HETATM    6  S   UNL     1     -10.775  11.932  67.234  1.00  0.00    -0.248 S  
HETATM    7  O   UNL     1      -9.794  12.438  68.419  1.00  0.00    -0.217 OA 
HETATM    8  O   UNL     1     -10.025  10.974  66.450  1.00  0.00    -0.208 OA 
HETATM    9  C   UNL     1     -10.508  15.699  65.800  1.00  0.00    -0.383 A  
HETATM   10  O   UNL     1     -12.012  11.621  67.909  1.00  0.00    -0.599 OA 
HETATM   11  H   UNL     1     -12.169  16.696  63.132  1.00  0.00     0.000 HD 
HETATM   12  C   UNL     1     -11.352  15.645  64.685  1.00  0.00    -0.349 A  
HETATM   13  O   UNL     1     -11.596  16.732  63.889  1.00  0.00    -1.122 OA 
HETATM   14  C   UNL     1     -12.006  14.461  64.334  1.00  0.00    -0.471 A  
BRANCH   9  15
HETATM   15  C   UNL     1      -9.807  16.962  66.139  1.00  0.00    -0.297 C  
HETATM   16  O   UNL     1     -10.236  18.004  65.643  1.00  0.00    -0.584 OA 
BRANCH  15  17
HETATM   17  C   UNL     1      -8.599  17.008  67.004  1.00  0.00    -0.232 A  
HETATM   18  C   UNL     1      -7.343  17.085  66.389  1.00  0.00    -0.328 A  
HETATM   19  C   UNL     1      -6.181  17.055  67.160  1.00  0.00    -0.209 A  
HETATM   20  C   UNL     1      -6.266  16.949  68.547  1.00  0.00    -0.146 A  
HETATM   21  C   UNL     1      -7.514  16.877  69.167  1.00  0.00    -0.180 A  
HETATM   22  C   UNL     1      -8.679  16.895  68.399  1.00  0.00    -0.244 A  
ENDBRANCH  15  17
ENDBRANCH   9  15
ENDBRANCH   2   3
TORSDOF 3
ENDMDL
MODEL       27
REMARK 921   NORMALIZED FREE ENERGY PREDICTED BY IDOCK:   -5.85 KCAL/MOL
REMARK 922        TOTAL FREE ENERGY PREDICTED BY IDOCK:   -7.44 KCAL/MOL
REMARK 923 INTER-LIGAND FREE ENERGY PREDICTED BY IDOCK:   -6.88 KCAL/MOL
REMARK 924 INTRA-LIGAND FREE ENERGY PREDICTED BY IDOCK:   -0.56 KCAL/MOL
REMARK 927      BINDING AFFINITY PREDICTED BY RF-SCORE:    0.00 PKD
ROOT
HETATM    1  C   UNL     1      -7.236  17.955  68.820  1.00  0.00    -0.275 C  
HETATM    2  O   UNL     1      -8.651  18.074  68.698  1.00  0.00    -0.303 OA 
ENDROOT
BRANCH   2   3
HETATM    3  C   UNL     1      -9.306  17.012  68.140  1.00  0.00    -0.254 A  
HETATM    4  C   UNL     1     -10.065  17.243  66.988  1.00  0.00    -0.303 A  
HETATM    5  C   UNL     1     -10.808  16.217  66.383  1.00  0.00    -0.131 A  
HETATM    6  S   UNL     1     -10.058  18.844  66.230  1.00  0.00    -0.411 S  
HETATM    7  O   UNL     1     -11.037  18.680  64.951  1.00  0.00    -0.450 OA 
HETATM    8  O   UNL     1      -8.730  19.091  65.712  1.00  0.00    -0.403 OA 
HETATM    9  C   UNL     1     -10.783  14.932  66.923  1.00  0.00    -0.308 A  
HETATM   10  O   UNL     1     -10.761  19.759  67.097  1.00  0.00    -0.466 OA 
HETATM   11  H   UNL     1      -9.551  13.341  69.535  1.00  0.00     0.000 HD 
HETATM   12  C   UNL     1     -10.062  14.707  68.101  1.00  0.00    -0.224 A  
HETATM   13  O   UNL     1     -10.041  13.493  68.736  1.00  0.00    -0.202 OA 
HETATM   14  C   UNL     1      -9.325  15.732  68.701  1.00  0.00    -0.206 A  
BRANCH   9  15
HETATM   15  C   UNL     1     -11.538  13.820  66.292  1.00  0.00    -0.350 C  
HETATM   16  O   UNL     1     -12.761  13.808  66.433  1.00  0.00    -0.334 OA 
BRANCH  15  17
HETATM   17  C   UNL     1     -10.877  12.716  65.548  1.00  0.00    -0.310 A  
HETATM   18  C   UNL     1     -10.610  12.899  64.186  1.00  0.00    -0.442 A  
HETATM   19  C   UNL     1     -10.060  11.862  63.432  1.00  0.00    -0.464 A  
HETATM   20  C   UNL     1      -9.771  10.639  64.035  1.00  0.00    -0.373 A  
HETATM   21  C   UNL     1     -10.029  10.451  65.393  1.00  0.00    -0.362 A  
HETATM   22  C   UNL     1     -10.590  11.482  66.148  1.00  0.00    -0.314 A  
ENDBRANCH  15  17
ENDBRANCH   9  15
ENDBRANCH   2   3
TORSDOF 3
ENDMDL
MODEL       28
REMARK 921   NORMALIZED FREE ENERGY PREDICTED BY IDOCK:   -5.85 KCAL/MOL
REMARK 922        TOTAL FREE ENERGY PREDICTED BY IDOCK:   -7.44 KCAL/MOL
REMARK 923 INTER-LIGAND FREE ENERGY PREDICTED BY IDOCK:   -6.81 KCAL/MOL
REMARK 924 INTRA-LIGAND FREE ENERGY PREDICTED BY IDOCK:   -0.63 KCAL/MOL
REMARK 927      BINDING AFFINITY PREDICTED BY RF-SCORE:    0.00 PKD
ROOT
HETATM    1  C   UNL     1     -13.822  13.531  72.447  1.00  0.00    -0.586 C  
HETATM    2  O   UNL     1     -13.227  12.329  71.965  1.00  0.00    -0.494 OA 
ENDROOT
BRANCH   2   3
HETATM    3  C   UNL     1     -12.529  12.421  70.793  1.00  0.00    -0.267 A  
HETATM    4  C   UNL     1     -11.974  11.249  70.269  1.00  0.00    -0.379 A  
HETATM    5  C   UNL     1     -11.201  11.266  69.097  1.00  0.00    -0.337 A  
HETATM    6  S   UNL     1     -12.285   9.693  71.056  1.00  0.00    -0.317 S  
HETATM    7  O   UNL     1     -11.482   8.622  70.145  1.00  0.00    -0.158 OA 
HETATM    8  O   UNL     1     -13.694   9.391  70.914  1.00  0.00    -0.173 OA 
HETATM    9  C   UNL     1     -10.991  12.468  68.422  1.00  0.00    -0.277 A  
HETATM   10  O   UNL     1     -11.587   9.675  72.319  1.00  0.00     0.070 OA 
HETATM   11  H   UNL     1     -11.638  15.681  68.779  1.00  0.00     0.000 HD 
HETATM   12  C   UNL     1     -11.507  13.649  68.968  1.00  0.00    -0.301 A  
HETATM   13  O   UNL     1     -11.288  14.880  68.409  1.00  0.00    -0.276 OA 
HETATM   14  C   UNL     1     -12.274  13.627  70.136  1.00  0.00    -0.413 A  
BRANCH   9  15
HETATM   15  C   UNL     1     -10.200  12.515  67.167  1.00  0.00    -0.217 C  
HETATM   16  O   UNL     1      -9.000  12.778  67.258  1.00  0.00    -0.183 OA 
BRANCH  15  17
HETATM   17  C   UNL     1     -10.802  12.304  65.825  1.00  0.00    -0.313 A  
HETATM   18  C   UNL     1      -9.969  11.883  64.782  1.00  0.00    -0.262 A  
HETATM   19  C   UNL     1     -10.477  11.745  63.489  1.00  0.00    -0.500 A  
HETATM   20  C   UNL     1     -11.818  12.023  63.234  1.00  0.00    -0.450 A  
HETATM   21  C   UNL     1     -12.656  12.437  64.270  1.00  0.00    -0.494 A  
HETATM   22  C   UNL     1     -12.149  12.589  65.562  1.00  0.00    -0.481 A  
ENDBRANCH  15  17
ENDBRANCH   9  15
ENDBRANCH   2   3
TORSDOF 3
ENDMDL
MODEL       29
REMARK 921   NORMALIZED FREE ENERGY PREDICTED BY IDOCK:   -5.80 KCAL/MOL
REMARK 922        TOTAL FREE ENERGY PREDICTED BY IDOCK:   -7.38 KCAL/MOL
REMARK 923 INTER-LIGAND FREE ENERGY PREDICTED BY IDOCK:   -7.11 KCAL/MOL
REMARK 924 INTRA-LIGAND FREE ENERGY PREDICTED BY IDOCK:   -0.27 KCAL/MOL
REMARK 927      BINDING AFFINITY PREDICTED BY RF-SCORE:    0.00 PKD
ROOT
HETATM    1  C   UNL     1      -8.929   7.153  69.347  1.00  0.00    -0.136 C  
HETATM    2  O   UNL     1      -9.591   7.759  70.454  1.00  0.00    -0.174 OA 
ENDROOT
BRANCH   2   3
HETATM    3  C   UNL     1     -10.120   9.001  70.243  1.00  0.00    -0.198 A  
HETATM    4  C   UNL     1     -11.347   9.301  70.845  1.00  0.00    -0.308 A  
HETATM    5  C   UNL     1     -11.981  10.536  70.637  1.00  0.00    -0.455 A  
HETATM    6  S   UNL     1     -12.106   8.131  71.937  1.00  0.00    -0.343 S  
HETATM    7  O   UNL     1     -13.473   8.860  72.408  1.00  0.00    -0.425 OA 
HETATM    8  O   UNL     1     -11.271   8.007  73.113  1.00  0.00    -0.336 OA 
HETATM    9  C   UNL     1     -11.377  11.500  69.831  1.00  0.00    -0.267 A  
HETATM   10  O   UNL     1     -12.558   7.006  71.154  1.00  0.00    -0.377 OA 
HETATM   11  H   UNL     1      -8.730  11.835  67.894  1.00  0.00     0.000 HD 
HETATM   12  C   UNL     1     -10.172  11.187  69.191  1.00  0.00    -0.141 A  
HETATM   13  O   UNL     1      -9.547  12.048  68.329  1.00  0.00    -0.197 OA 
HETATM   14  C   UNL     1      -9.546   9.955  69.399  1.00  0.00    -0.229 A  
BRANCH   9  15
HETATM   15  C   UNL     1     -12.010  12.824  69.613  1.00  0.00    -0.288 C  
HETATM   16  O   UNL     1     -12.285  13.142  68.455  1.00  0.00    -0.248 OA 
BRANCH  15  17
HETATM   17  C   UNL     1     -12.278  13.783  70.717  1.00  0.00    -0.437 A  
HETATM   18  C   UNL     1     -11.581  14.997  70.726  1.00  0.00    -0.364 A  
HETATM   19  C   UNL     1     -11.746  15.893  71.783  1.00  0.00    -0.575 A  
HETATM   20  C   UNL     1     -12.608  15.582  72.833  1.00  0.00    -0.533 A  
HETATM   21  C   UNL     1     -13.310  14.377  72.828  1.00  0.00    -0.606 A  
HETATM   22  C   UNL     1     -13.138  13.472  71.779  1.00  0.00    -0.475 A  
ENDBRANCH  15  17
ENDBRANCH   9  15
ENDBRANCH   2   3
TORSDOF 3
ENDMDL
MODEL       30
REMARK 921   NORMALIZED FREE ENERGY PREDICTED BY IDOCK:   -5.70 KCAL/MOL
REMARK 922        TOTAL FREE ENERGY PREDICTED BY IDOCK:   -7.26 KCAL/MOL
REMARK 923 INTER-LIGAND FREE ENERGY PREDICTED BY IDOCK:   -6.58 KCAL/MOL
REMARK 924 INTRA-LIGAND FREE ENERGY PREDICTED BY IDOCK:   -0.68 KCAL/MOL
REMARK 927      BINDING AFFINITY PREDICTED BY RF-SCORE:    0.00 PKD
ROOT
HETATM    1  C   UNL     1      -8.824  10.029  64.237  1.00  0.00    -0.220 C  
HETATM    2  O   UNL     1     -10.089  10.345  64.813  1.00  0.00    -0.339 OA 
ENDROOT
BRANCH   2   3
HETATM    3  C   UNL     1     -10.245  10.057  66.139  1.00  0.00    -0.213 A  
HETATM    4  C   UNL     1     -10.809  11.039  66.961  1.00  0.00    -0.279 A  
HETATM    5  C   UNL     1     -10.957  10.840  68.342  1.00  0.00    -0.299 A  
HETATM    6  S   UNL     1     -11.402  12.551  66.253  1.00  0.00    -0.358 S  
HETATM    7  O   UNL     1     -11.968  13.384  67.520  1.00  0.00    -0.361 OA 
HETATM    8  O   UNL     1     -12.540  12.239  65.414  1.00  0.00    -0.572 OA 
HETATM    9  C   UNL     1     -10.556   9.636  68.917  1.00  0.00    -0.239 A  
HETATM   10  O   UNL     1     -10.265  13.319  65.805  1.00  0.00    -0.284 OA 
HETATM   11  H   UNL     1      -9.052   6.831  68.052  1.00  0.00     0.000 HD 
HETATM   12  C   UNL     1      -9.951   8.668  68.107  1.00  0.00    -0.178 A  
HETATM   13  O   UNL     1      -9.464   7.488  68.601  1.00  0.00    -0.146 OA 
HETATM   14  C   UNL     1      -9.802   8.872  66.732  1.00  0.00    -0.308 A  
BRANCH   9  15
HETATM   15  C   UNL     1     -10.723   9.385  70.370  1.00  0.00    -0.263 C  
HETATM   16  O   UNL     1      -9.750   9.580  71.099  1.00  0.00    -0.234 OA 
BRANCH  15  17
HETATM   17  C   UNL     1     -11.988   8.875  70.961  1.00  0.00    -0.307 A  
HETATM   18  C   UNL     1     -12.181   7.489  71.022  1.00  0.00    -0.288 A  
HETATM   19  C   UNL     1     -13.384   6.968  71.500  1.00  0.00    -0.370 A  
HETATM   20  C   UNL     1     -14.398   7.827  71.920  1.00  0.00    -0.545 A  
HETATM   21  C   UNL     1     -14.211   9.208  71.867  1.00  0.00    -0.288 A  
HETATM   22  C   UNL     1     -13.013   9.734  71.379  1.00  0.00    -0.490 A  
ENDBRANCH  15  17
ENDBRANCH   9  15
ENDBRANCH   2   3
TORSDOF 3
ENDMDL
MODEL       31
REMARK 921   NORMALIZED FREE ENERGY PREDICTED BY IDOCK:   -5.65 KCAL/MOL
REMARK 922        TOTAL FREE ENERGY PREDICTED BY IDOCK:   -7.20 KCAL/MOL
REMARK 923 INTER-LIGAND FREE ENERGY PREDICTED BY IDOCK:   -7.32 KCAL/MOL
REMARK 924 INTRA-LIGAND FREE ENERGY PREDICTED BY IDOCK:    0.12 KCAL/MOL
REMARK 927      BINDING AFFINITY PREDICTED BY RF-SCORE:    0.00 PKD
ROOT
HETATM    1  C   UNL     1     -10.522  17.146  68.461  1.00  0.00    -0.377 C  
HETATM    2  O   UNL     1     -11.722  16.453  68.795  1.00  0.00    -0.262 OA 
ENDROOT
BRANCH   2   3
HETATM    3  C   UNL     1     -11.679  15.089  68.725  1.00  0.00    -0.334 A  
HETATM    4  C   UNL     1     -12.014  14.364  69.873  1.00  0.00    -0.335 A  
HETATM    5  C   UNL     1     -11.946  12.962  69.899  1.00  0.00    -0.377 A  
HETATM    6  S   UNL     1     -12.586  15.212  71.319  1.00  0.00    -0.394 S  
HETATM    7  O   UNL     1     -12.862  14.028  72.388  1.00  0.00    -0.351 OA 
HETATM    8  O   UNL     1     -13.870  15.807  71.013  1.00  0.00    -0.501 OA 
HETATM    9  C   UNL     1     -11.558  12.265  68.756  1.00  0.00    -0.380 A  
HETATM   10  O   UNL     1     -11.479  15.946  71.884  1.00  0.00    -0.406 OA 
HETATM   11  H   UNL     1     -10.461  12.877  65.707  1.00  0.00     0.000 HD 
HETATM   12  C   UNL     1     -11.179  12.988  67.619  1.00  0.00    -0.280 A  
HETATM   13  O   UNL     1     -10.718  12.387  66.478  1.00  0.00    -0.230 OA 
HETATM   14  C   UNL     1     -11.245  14.385  67.599  1.00  0.00    -0.328 A  
BRANCH   9  15
HETATM   15  C   UNL     1     -11.502  10.782  68.743  1.00  0.00    -0.295 C  
HETATM   16  O   UNL     1     -11.467  10.221  67.647  1.00  0.00    -0.345 OA 
BRANCH  15  17
HETATM   17  C   UNL     1     -11.529   9.963  69.983  1.00  0.00    -0.274 A  
HETATM   18  C   UNL     1     -12.737   9.860  70.684  1.00  0.00    -0.227 A  
HETATM   19  C   UNL     1     -12.790   9.163  71.892  1.00  0.00    -0.466 A  
HETATM   20  C   UNL     1     -11.640   8.566  72.404  1.00  0.00    -0.425 A  
HETATM   21  C   UNL     1     -10.435   8.660  71.708  1.00  0.00    -0.394 A  
HETATM   22  C   UNL     1     -10.374   9.366  70.506  1.00  0.00    -0.341 A  
ENDBRANCH  15  17
ENDBRANCH   9  15
ENDBRANCH   2   3
TORSDOF 3
ENDMDL
MODEL       32
REMARK 921   NORMALIZED FREE ENERGY PREDICTED BY IDOCK:   -5.64 KCAL/MOL
REMARK 922        TOTAL FREE ENERGY PREDICTED BY IDOCK:   -7.20 KCAL/MOL
REMARK 923 INTER-LIGAND FREE ENERGY PREDICTED BY IDOCK:   -6.59 KCAL/MOL
REMARK 924 INTRA-LIGAND FREE ENERGY PREDICTED BY IDOCK:   -0.60 KCAL/MOL
REMARK 927      BINDING AFFINITY PREDICTED BY RF-SCORE:    0.00 PKD
ROOT
HETATM    1  C   UNL     1     -12.906  11.497  71.242  1.00  0.00    -0.360 C  
HETATM    2  O   UNL     1     -12.529  11.756  69.893  1.00  0.00    -0.148 OA 
ENDROOT
BRANCH   2   3
HETATM    3  C   UNL     1     -11.796  12.888  69.670  1.00  0.00    -0.320 A  
HETATM    4  C   UNL     1     -10.764  12.825  68.728  1.00  0.00    -0.214 A  
HETATM    5  C   UNL     1      -9.933  13.929  68.478  1.00  0.00    -0.221 A  
HETATM    6  S   UNL     1     -10.517  11.348  67.783  1.00  0.00    -0.194 S  
HETATM    7  O   UNL     1      -9.256  11.695  66.829  1.00  0.00    -0.175 OA 
HETATM    8  O   UNL     1     -11.663  11.172  66.915  1.00  0.00    -0.410 OA 
HETATM    9  C   UNL     1     -10.143  15.125  69.163  1.00  0.00    -0.245 A  
HETATM   10  O   UNL     1     -10.019  10.321  68.667  1.00  0.00    -0.160 OA 
HETATM   11  H   UNL     1     -12.053  16.325  71.568  1.00  0.00     0.000 HD 
HETATM   12  C   UNL     1     -11.146  15.178  70.138  1.00  0.00    -0.274 A  
HETATM   13  O   UNL     1     -11.373  16.289  70.906  1.00  0.00    -0.389 OA 
HETATM   14  C   UNL     1     -11.968  14.076  70.386  1.00  0.00    -0.398 A  
BRANCH   9  15
HETATM   15  C   UNL     1      -9.299  16.317  68.902  1.00  0.00    -0.248 C  
HETATM   16  O   UNL     1      -8.143  16.303  69.329  1.00  0.00    -0.237 OA 
BRANCH  15  17
HETATM   17  C   UNL     1      -9.803  17.524  68.197  1.00  0.00    -0.306 A  
HETATM   18  C   UNL     1     -10.210  17.393  66.863  1.00  0.00    -0.322 A  
HETATM   19  C   UNL     1     -10.619  18.515  66.141  1.00  0.00    -0.377 A  
HETATM   20  C   UNL     1     -10.625  19.770  66.745  1.00  0.00    -0.586 A  
HETATM   21  C   UNL     1     -10.226  19.907  68.075  1.00  0.00    -0.572 A  
HETATM   22  C   UNL     1      -9.804  18.790  68.798  1.00  0.00    -0.434 A  
ENDBRANCH  15  17
ENDBRANCH   9  15
ENDBRANCH   2   3
TORSDOF 3
ENDMDL
MODEL       33
REMARK 921   NORMALIZED FREE ENERGY PREDICTED BY IDOCK:   -5.64 KCAL/MOL
REMARK 922        TOTAL FREE ENERGY PREDICTED BY IDOCK:   -7.19 KCAL/MOL
REMARK 923 INTER-LIGAND FREE ENERGY PREDICTED BY IDOCK:   -6.62 KCAL/MOL
REMARK 924 INTRA-LIGAND FREE ENERGY PREDICTED BY IDOCK:   -0.57 KCAL/MOL
REMARK 927      BINDING AFFINITY PREDICTED BY RF-SCORE:    0.00 PKD
ROOT
HETATM    1  C   UNL     1      -6.362  12.089  67.299  1.00  0.00    -0.151 C  
HETATM    2  O   UNL     1      -7.656  11.681  67.733  1.00  0.00    -0.108 OA 
ENDROOT
BRANCH   2   3
HETATM    3  C   UNL     1      -8.500  12.671  68.153  1.00  0.00    -0.177 A  
HETATM    4  C   UNL     1      -9.873  12.404  68.154  1.00  0.00    -0.213 A  
HETATM    5  C   UNL     1     -10.809  13.383  68.523  1.00  0.00    -0.285 A  
HETATM    6  S   UNL     1     -10.460  10.785  67.736  1.00  0.00    -0.225 S  
HETATM    7  O   UNL     1     -12.069  10.903  67.866  1.00  0.00    -0.527 OA 
HETATM    8  O   UNL     1     -10.022   9.868  68.767  1.00  0.00    -0.162 OA 
HETATM    9  C   UNL     1     -10.372  14.647  68.916  1.00  0.00    -0.245 A  
HETATM   10  O   UNL     1     -10.235  10.571  66.326  1.00  0.00    -0.229 OA 
HETATM   11  H   UNL     1      -7.565  16.362  69.144  1.00  0.00     0.000 HD 
HETATM   12  C   UNL     1      -9.003  14.933  68.873  1.00  0.00    -0.184 A  
HETATM   13  O   UNL     1      -8.494  16.168  69.174  1.00  0.00    -0.247 OA 
HETATM   14  C   UNL     1      -8.075  13.955  68.502  1.00  0.00    -0.133 A  
BRANCH   9  15
HETATM   15  C   UNL     1     -11.334  15.695  69.336  1.00  0.00    -0.330 C  
HETATM   16  O   UNL     1     -11.508  16.649  68.576  1.00  0.00    -0.266 OA 
BRANCH  15  17
HETATM   17  C   UNL     1     -12.051  15.659  70.638  1.00  0.00    -0.443 A  
HETATM   18  C   UNL     1     -13.393  15.260  70.646  1.00  0.00    -0.320 A  
HETATM   19  C   UNL     1     -14.125  15.283  71.834  1.00  0.00    -0.656 A  
HETATM   20  C   UNL     1     -13.520  15.701  73.018  1.00  0.00    -0.654 A  
HETATM   21  C   UNL     1     -12.182  16.094  73.018  1.00  0.00    -0.641 A  
HETATM   22  C   UNL     1     -11.449  16.085  71.830  1.00  0.00    -0.425 A  
ENDBRANCH  15  17
ENDBRANCH   9  15
ENDBRANCH   2   3
TORSDOF 3
ENDMDL
MODEL       34
REMARK 921   NORMALIZED FREE ENERGY PREDICTED BY IDOCK:   -5.62 KCAL/MOL
REMARK 922        TOTAL FREE ENERGY PREDICTED BY IDOCK:   -7.17 KCAL/MOL
REMARK 923 INTER-LIGAND FREE ENERGY PREDICTED BY IDOCK:   -6.53 KCAL/MOL
REMARK 924 INTRA-LIGAND FREE ENERGY PREDICTED BY IDOCK:   -0.63 KCAL/MOL
REMARK 927      BINDING AFFINITY PREDICTED BY RF-SCORE:    0.00 PKD
ROOT
HETATM    1  C   UNL     1     -11.333   8.164  72.719  1.00  0.00    -0.336 C  
HETATM    2  O   UNL     1     -11.912   8.053  71.421  1.00  0.00    -0.288 OA 
ENDROOT
BRANCH   2   3
HETATM    3  C   UNL     1     -11.561   9.011  70.512  1.00  0.00    -0.175 A  
HETATM    4  C   UNL     1     -10.691   8.645  69.479  1.00  0.00    -0.182 A  
HETATM    5  C   UNL     1     -10.243   9.582  68.534  1.00  0.00    -0.223 A  
HETATM    6  S   UNL     1     -10.174   6.959  69.313  1.00  0.00    -0.194 S  
HETATM    7  O   UNL     1      -9.201   6.970  68.019  1.00  0.00    -0.131 OA 
HETATM    8  O   UNL     1     -11.332   6.166  68.960  1.00  0.00    -0.390 OA 
HETATM    9  C   UNL     1     -10.682  10.903  68.604  1.00  0.00    -0.238 A  
HETATM   10  O   UNL     1      -9.293   6.644  70.413  1.00  0.00    -0.158 OA 
HETATM   11  H   UNL     1     -12.504  12.830  70.563  1.00  0.00     0.000 HD 
HETATM   12  C   UNL     1     -11.517  11.283  69.661  1.00  0.00    -0.309 A  
HETATM   13  O   UNL     1     -11.938  12.573  69.846  1.00  0.00    -0.326 OA 
HETATM   14  C   UNL     1     -11.958  10.347  70.602  1.00  0.00    -0.448 A  
BRANCH   9  15
HETATM   15  C   UNL     1     -10.247  11.910  67.605  1.00  0.00    -0.201 C  
HETATM   16  O   UNL     1      -9.389  12.724  67.951  1.00  0.00    -0.193 OA 
BRANCH  15  17
HETATM   17  C   UNL     1     -10.831  11.999  66.241  1.00  0.00    -0.316 A  
HETATM   18  C   UNL     1     -11.998  12.753  66.066  1.00  0.00    -0.491 A  
HETATM   19  C   UNL     1     -12.621  12.801  64.819  1.00  0.00    -0.518 A  
HETATM   20  C   UNL     1     -12.082  12.101  63.741  1.00  0.00    -0.620 A  
HETATM   21  C   UNL     1     -10.916  11.353  63.907  1.00  0.00    -0.442 A  
HETATM   22  C   UNL     1     -10.296  11.291  65.156  1.00  0.00    -0.353 A  
ENDBRANCH  15  17
ENDBRANCH   9  15
ENDBRANCH   2   3
TORSDOF 3
ENDMDL
MODEL       35
REMARK 921   NORMALIZED FREE ENERGY PREDICTED BY IDOCK:   -5.59 KCAL/MOL
REMARK 922        TOTAL FREE ENERGY PREDICTED BY IDOCK:   -7.14 KCAL/MOL
REMARK 923 INTER-LIGAND FREE ENERGY PREDICTED BY IDOCK:   -6.52 KCAL/MOL
REMARK 924 INTRA-LIGAND FREE ENERGY PREDICTED BY IDOCK:   -0.62 KCAL/MOL
REMARK 927      BINDING AFFINITY PREDICTED BY RF-SCORE:    0.00 PKD
ROOT
HETATM    1  C   UNL     1     -10.802  19.200  66.414  1.00  0.00    -0.236 C  
HETATM    2  O   UNL     1      -9.948  18.418  65.584  1.00  0.00    -0.477 OA 
ENDROOT
BRANCH   2   3
HETATM    3  C   UNL     1     -10.164  17.069  65.585  1.00  0.00    -0.176 A  
HETATM    4  C   UNL     1      -9.174  16.247  66.134  1.00  0.00    -0.341 A  
HETATM    5  C   UNL     1      -9.298  14.849  66.128  1.00  0.00    -0.307 A  
HETATM    6  S   UNL     1      -7.753  16.969  66.906  1.00  0.00    -0.243 S  
HETATM    7  O   UNL     1      -6.884  15.697  67.402  1.00  0.00    -0.176 OA 
HETATM    8  O   UNL     1      -8.193  17.667  68.096  1.00  0.00    -0.240 OA 
HETATM    9  C   UNL     1     -10.435  14.255  65.583  1.00  0.00    -0.336 A  
HETATM   10  O   UNL     1      -6.938  17.575  65.880  1.00  0.00    -0.277 OA 
HETATM   11  H   UNL     1     -13.177  15.121  63.970  1.00  0.00     0.000 HD 
HETATM   12  C   UNL     1     -11.406  15.071  64.992  1.00  0.00    -0.394 A  
HETATM   13  O   UNL     1     -12.518  14.567  64.371  1.00  0.00    -0.633 OA 
HETATM   14  C   UNL     1     -11.278  16.463  64.997  1.00  0.00    -0.138 A  
BRANCH   9  15
HETATM   15  C   UNL     1     -10.606  12.781  65.584  1.00  0.00    -0.275 C  
HETATM   16  O   UNL     1     -10.446  12.186  64.517  1.00  0.00    -0.274 OA 
BRANCH  15  17
HETATM   17  C   UNL     1     -11.000  12.015  66.796  1.00  0.00    -0.329 A  
HETATM   18  C   UNL     1     -11.652  12.698  67.830  1.00  0.00    -0.401 A  
HETATM   19  C   UNL     1     -11.973  12.036  69.016  1.00  0.00    -0.321 A  
HETATM   20  C   UNL     1     -11.647  10.690  69.173  1.00  0.00    -0.342 A  
HETATM   21  C   UNL     1     -11.002  10.002  68.145  1.00  0.00    -0.289 A  
HETATM   22  C   UNL     1     -10.669  10.664  66.962  1.00  0.00    -0.317 A  
ENDBRANCH  15  17
ENDBRANCH   9  15
ENDBRANCH   2   3
TORSDOF 3
ENDMDL
MODEL       36
REMARK 921   NORMALIZED FREE ENERGY PREDICTED BY IDOCK:   -5.56 KCAL/MOL
REMARK 922        TOTAL FREE ENERGY PREDICTED BY IDOCK:   -7.10 KCAL/MOL
REMARK 923 INTER-LIGAND FREE ENERGY PREDICTED BY IDOCK:   -6.47 KCAL/MOL
REMARK 924 INTRA-LIGAND FREE ENERGY PREDICTED BY IDOCK:   -0.63 KCAL/MOL
REMARK 927      BINDING AFFINITY PREDICTED BY RF-SCORE:    0.00 PKD
ROOT
HETATM    1  C   UNL     1      -9.782  10.426  63.849  1.00  0.00    -0.305 C  
HETATM    2  O   UNL     1     -10.087  10.299  65.235  1.00  0.00    -0.303 OA 
ENDROOT
BRANCH   2   3
HETATM    3  C   UNL     1     -10.392  11.453  65.901  1.00  0.00    -0.250 A  
HETATM    4  C   UNL     1      -9.597  11.806  66.997  1.00  0.00    -0.187 A  
HETATM    5  C   UNL     1      -9.875  12.948  67.765  1.00  0.00    -0.221 A  
HETATM    6  S   UNL     1      -8.175  10.833  67.409  1.00  0.00    -0.117 S  
HETATM    7  O   UNL     1      -7.551  11.575  68.705  1.00  0.00    -0.127 OA 
HETATM    8  O   UNL     1      -7.210  10.974  66.340  1.00  0.00    -0.141 OA 
HETATM    9  C   UNL     1     -10.952  13.766  67.426  1.00  0.00    -0.296 A  
HETATM   10  O   UNL     1      -8.628   9.559  67.916  1.00  0.00    -0.119 OA 
HETATM   11  H   UNL     1     -13.453  13.846  65.279  1.00  0.00     0.000 HD 
HETATM   12  C   UNL     1     -11.776  13.392  66.359  1.00  0.00    -0.368 A  
HETATM   13  O   UNL     1     -12.893  14.100  66.003  1.00  0.00    -0.425 OA 
HETATM   14  C   UNL     1     -11.497  12.253  65.599  1.00  0.00    -0.416 A  
BRANCH   9  15
HETATM   15  C   UNL     1     -11.256  14.994  68.202  1.00  0.00    -0.308 C  
HETATM   16  O   UNL     1     -11.053  16.080  67.657  1.00  0.00    -0.317 OA 
BRANCH  15  17
HETATM   17  C   UNL     1     -11.746  14.961  69.605  1.00  0.00    -0.356 A  
HETATM   18  C   UNL     1     -11.421  16.032  70.448  1.00  0.00    -0.392 A  
HETATM   19  C   UNL     1     -11.797  16.006  71.791  1.00  0.00    -0.599 A  
HETATM   20  C   UNL     1     -12.499  14.915  72.299  1.00  0.00    -0.422 A  
HETATM   21  C   UNL     1     -12.831  13.848  71.464  1.00  0.00    -0.441 A  
HETATM   22  C   UNL     1     -12.447  13.863  70.122  1.00  0.00    -0.355 A  
ENDBRANCH  15  17
ENDBRANCH   9  15
ENDBRANCH   2   3
TORSDOF 3
ENDMDL
MODEL       37
REMARK 921   NORMALIZED FREE ENERGY PREDICTED BY IDOCK:   -5.55 KCAL/MOL
REMARK 922        TOTAL FREE ENERGY PREDICTED BY IDOCK:   -7.09 KCAL/MOL
REMARK 923 INTER-LIGAND FREE ENERGY PREDICTED BY IDOCK:   -6.44 KCAL/MOL
REMARK 924 INTRA-LIGAND FREE ENERGY PREDICTED BY IDOCK:   -0.65 KCAL/MOL
REMARK 927      BINDING AFFINITY PREDICTED BY RF-SCORE:    0.00 PKD
ROOT
HETATM    1  C   UNL     1      -6.023  17.230  67.649  1.00  0.00    -0.136 C  
HETATM    2  O   UNL     1      -7.060  17.436  66.693  1.00  0.00    -0.190 OA 
ENDROOT
BRANCH   2   3
HETATM    3  C   UNL     1      -8.133  16.593  66.766  1.00  0.00    -0.246 A  
HETATM    4  C   UNL     1      -9.388  17.152  67.032  1.00  0.00    -0.243 A  
HETATM    5  C   UNL     1     -10.532  16.350  67.172  1.00  0.00    -0.297 A  
HETATM    6  S   UNL     1      -9.567  18.911  67.147  1.00  0.00    -0.316 S  
HETATM    7  O   UNL     1     -11.142  19.128  67.451  1.00  0.00    -0.426 OA 
HETATM    8  O   UNL     1      -9.311  19.475  65.839  1.00  0.00    -0.409 OA 
HETATM    9  C   UNL     1     -10.431  14.967  67.025  1.00  0.00    -0.278 A  
HETATM   10  O   UNL     1      -8.910  19.356  68.352  1.00  0.00    -0.332 OA 
HETATM   11  H   UNL     1      -8.117  12.664  66.568  1.00  0.00     0.000 HD 
HETATM   12  C   UNL     1      -9.171  14.401  66.803  1.00  0.00    -0.268 A  
HETATM   13  O   UNL     1      -8.972  13.048  66.718  1.00  0.00    -0.221 OA 
HETATM   14  C   UNL     1      -8.035  15.203  66.668  1.00  0.00     0.084 A  
BRANCH   9  15
HETATM   15  C   UNL     1     -11.626  14.095  67.142  1.00  0.00    -0.377 C  
HETATM   16  O   UNL     1     -12.415  14.076  66.195  1.00  0.00    -0.467 OA 
BRANCH  15  17
HETATM   17  C   UNL     1     -11.923  13.291  68.356  1.00  0.00    -0.336 A  
HETATM   18  C   UNL     1     -12.142  13.966  69.563  1.00  0.00    -0.393 A  
HETATM   19  C   UNL     1     -12.349  13.249  70.741  1.00  0.00    -0.425 A  
HETATM   20  C   UNL     1     -12.341  11.855  70.721  1.00  0.00    -0.416 A  
HETATM   21  C   UNL     1     -12.128  11.176  69.521  1.00  0.00    -0.396 A  
HETATM   22  C   UNL     1     -11.908  11.889  68.341  1.00  0.00    -0.352 A  
ENDBRANCH  15  17
ENDBRANCH   9  15
ENDBRANCH   2   3
TORSDOF 3
ENDMDL
MODEL       38
REMARK 921   NORMALIZED FREE ENERGY PREDICTED BY IDOCK:   -5.54 KCAL/MOL
REMARK 922        TOTAL FREE ENERGY PREDICTED BY IDOCK:   -7.08 KCAL/MOL
REMARK 923 INTER-LIGAND FREE ENERGY PREDICTED BY IDOCK:   -6.53 KCAL/MOL
REMARK 924 INTRA-LIGAND FREE ENERGY PREDICTED BY IDOCK:   -0.55 KCAL/MOL
REMARK 927      BINDING AFFINITY PREDICTED BY RF-SCORE:    0.00 PKD
ROOT
HETATM    1  C   UNL     1      -8.328   8.504  64.298  1.00  0.00    -0.105 C  
HETATM    2  O   UNL     1      -9.260   8.692  65.360  1.00  0.00    -0.154 OA 
ENDROOT
BRANCH   2   3
HETATM    3  C   UNL     1      -9.876   9.910  65.424  1.00  0.00    -0.313 A  
HETATM    4  C   UNL     1     -10.194  10.417  66.688  1.00  0.00    -0.234 A  
HETATM    5  C   UNL     1     -10.872  11.638  66.837  1.00  0.00    -0.322 A  
HETATM    6  S   UNL     1      -9.692   9.542  68.144  1.00  0.00    -0.150 S  
HETATM    7  O   UNL     1     -10.242  10.456  69.363  1.00  0.00    -0.215 OA 
HETATM    8  O   UNL     1      -8.247   9.576  68.214  1.00  0.00    -0.111 OA 
HETATM    9  C   UNL     1     -11.224  12.378  65.710  1.00  0.00    -0.370 A  
HETATM   10  O   UNL     1     -10.469   8.329  68.235  1.00  0.00    -0.205 OA 
HETATM   11  H   UNL     1     -11.135  12.123  62.424  1.00  0.00     0.000 HD 
HETATM   12  C   UNL     1     -10.948  11.853  64.443  1.00  0.00    -0.337 A  
HETATM   13  O   UNL     1     -11.322  12.480  63.284  1.00  0.00    -0.456 OA 
HETATM   14  C   UNL     1     -10.275  10.636  64.299  1.00  0.00    -0.391 A  
BRANCH   9  15
HETATM   15  C   UNL     1     -11.918  13.684  65.836  1.00  0.00    -0.405 C  
HETATM   16  O   UNL     1     -13.086  13.749  65.450  1.00  0.00    -0.727 OA 
BRANCH  15  17
HETATM   17  C   UNL     1     -11.252  14.905  66.360  1.00  0.00    -0.331 A  
HETATM   18  C   UNL     1     -11.426  15.228  67.712  1.00  0.00    -0.312 A  
HETATM   19  C   UNL     1     -10.882  16.404  68.228  1.00  0.00    -0.347 A  
HETATM   20  C   UNL     1     -10.160  17.261  67.400  1.00  0.00    -0.307 A  
HETATM   21  C   UNL     1      -9.977  16.942  66.054  1.00  0.00    -0.313 A  
HETATM   22  C   UNL     1     -10.531  15.773  65.530  1.00  0.00    -0.425 A  
ENDBRANCH  15  17
ENDBRANCH   9  15
ENDBRANCH   2   3
TORSDOF 3
ENDMDL
MODEL       39
REMARK 921   NORMALIZED FREE ENERGY PREDICTED BY IDOCK:   -5.53 KCAL/MOL
REMARK 922        TOTAL FREE ENERGY PREDICTED BY IDOCK:   -7.06 KCAL/MOL
REMARK 923 INTER-LIGAND FREE ENERGY PREDICTED BY IDOCK:   -6.48 KCAL/MOL
REMARK 924 INTRA-LIGAND FREE ENERGY PREDICTED BY IDOCK:   -0.58 KCAL/MOL
REMARK 927      BINDING AFFINITY PREDICTED BY RF-SCORE:    0.00 PKD
ROOT
HETATM    1  C   UNL     1      -5.816  19.581  69.084  1.00  0.00    -0.239 C  
HETATM    2  O   UNL     1      -6.798  19.483  68.056  1.00  0.00    -0.239 OA 
ENDROOT
BRANCH   2   3
HETATM    3  C   UNL     1      -7.643  18.411  68.119  1.00  0.00    -0.274 A  
HETATM    4  C   UNL     1      -8.882  18.515  67.477  1.00  0.00    -0.265 A  
HETATM    5  C   UNL     1      -9.827  17.479  67.536  1.00  0.00    -0.293 A  
HETATM    6  S   UNL     1      -9.264  19.956  66.520  1.00  0.00    -0.388 S  
HETATM    7  O   UNL     1     -10.755  19.673  65.958  1.00  0.00    -0.479 OA 
HETATM    8  O   UNL     1      -8.381  19.982  65.373  1.00  0.00    -0.168 OA 
HETATM    9  C   UNL     1      -9.528  16.307  68.231  1.00  0.00    -0.214 A  
HETATM   10  O   UNL     1      -9.433  21.069  67.423  1.00  0.00    -0.358 OA 
HETATM   11  H   UNL     1      -7.139  15.072  70.138  1.00  0.00     0.000 HD 
HETATM   12  C   UNL     1      -8.309  16.217  68.912  1.00  0.00    -0.233 A  
HETATM   13  O   UNL     1      -7.966  15.133  69.675  1.00  0.00    -0.218 OA 
HETATM   14  C   UNL     1      -7.373  17.253  68.852  1.00  0.00    -0.243 A  
BRANCH   9  15
HETATM   15  C   UNL     1     -10.496  15.183  68.291  1.00  0.00    -0.241 C  
HETATM   16  O   UNL     1     -10.655  14.512  67.270  1.00  0.00    -0.274 OA 
BRANCH  15  17
HETATM   17  C   UNL     1     -11.297  14.872  69.503  1.00  0.00    -0.307 A  
HETATM   18  C   UNL     1     -11.717  13.551  69.701  1.00  0.00    -0.378 A  
HETATM   19  C   UNL     1     -12.534  13.229  70.786  1.00  0.00    -0.403 A  
HETATM   20  C   UNL     1     -12.933  14.223  71.677  1.00  0.00    -0.420 A  
HETATM   21  C   UNL     1     -12.514  15.540  71.489  1.00  0.00    -0.474 A  
HETATM   22  C   UNL     1     -11.707  15.869  70.399  1.00  0.00    -0.371 A  
ENDBRANCH  15  17
ENDBRANCH   9  15
ENDBRANCH   2   3
TORSDOF 3
ENDMDL
MODEL       40
REMARK 921   NORMALIZED FREE ENERGY PREDICTED BY IDOCK:   -5.53 KCAL/MOL
REMARK 922        TOTAL FREE ENERGY PREDICTED BY IDOCK:   -7.06 KCAL/MOL
REMARK 923 INTER-LIGAND FREE ENERGY PREDICTED BY IDOCK:   -6.37 KCAL/MOL
REMARK 924 INTRA-LIGAND FREE ENERGY PREDICTED BY IDOCK:   -0.69 KCAL/MOL
REMARK 927      BINDING AFFINITY PREDICTED BY RF-SCORE:    0.00 PKD
ROOT
HETATM    1  C   UNL     1     -11.631  14.890  68.083  1.00  0.00    -0.334 C  
HETATM    2  O   UNL     1     -12.160  13.746  67.418  1.00  0.00    -0.386 OA 
ENDROOT
BRANCH   2   3
HETATM    3  C   UNL     1     -11.330  12.666  67.308  1.00  0.00    -0.318 A  
HETATM    4  C   UNL     1     -11.184  12.078  66.047  1.00  0.00    -0.335 A  
HETATM    5  C   UNL     1     -10.390  10.936  65.859  1.00  0.00    -0.310 A  
HETATM    6  S   UNL     1     -11.967  12.807  64.635  1.00  0.00    -0.423 S  
HETATM    7  O   UNL     1     -11.546  11.840  63.407  1.00  0.00    -0.410 OA 
HETATM    8  O   UNL     1     -11.346  14.091  64.389  1.00  0.00    -0.367 OA 
HETATM    9  C   UNL     1      -9.712  10.377  66.941  1.00  0.00    -0.223 A  
HETATM   10  O   UNL     1     -13.393  12.619  64.759  1.00  0.00    -0.787 OA 
HETATM   11  H   UNL     1      -9.442  10.785  70.202  1.00  0.00     0.000 HD 
HETATM   12  C   UNL     1      -9.891  10.934  68.212  1.00  0.00    -0.170 A  
HETATM   13  O   UNL     1      -9.320  10.406  69.340  1.00  0.00    -0.205 OA 
HETATM   14  C   UNL     1     -10.685  12.070  68.395  1.00  0.00    -0.255 A  
BRANCH   9  15
HETATM   15  C   UNL     1      -8.845   9.185  66.771  1.00  0.00    -0.127 C  
HETATM   16  O   UNL     1      -7.647   9.376  66.554  1.00  0.00    -0.093 OA 
BRANCH  15  17
HETATM   17  C   UNL     1      -9.368   7.794  66.808  1.00  0.00    -0.227 A  
HETATM   18  C   UNL     1      -8.702   6.814  66.062  1.00  0.00    -0.155 A  
HETATM   19  C   UNL     1      -9.202   5.512  66.009  1.00  0.00    -0.168 A  
HETATM   20  C   UNL     1     -10.367   5.183  66.700  1.00  0.00    -0.325 A  
HETATM   21  C   UNL     1     -11.032   6.154  67.450  1.00  0.00    -0.409 A  
HETATM   22  C   UNL     1     -10.542   7.460  67.496  1.00  0.00    -0.340 A  
ENDBRANCH  15  17
ENDBRANCH   9  15
ENDBRANCH   2   3
TORSDOF 3
ENDMDL
MODEL       41
REMARK 921   NORMALIZED FREE ENERGY PREDICTED BY IDOCK:   -5.52 KCAL/MOL
REMARK 922        TOTAL FREE ENERGY PREDICTED BY IDOCK:   -7.05 KCAL/MOL
REMARK 923 INTER-LIGAND FREE ENERGY PREDICTED BY IDOCK:   -7.45 KCAL/MOL
REMARK 924 INTRA-LIGAND FREE ENERGY PREDICTED BY IDOCK:    0.40 KCAL/MOL
REMARK 927      BINDING AFFINITY PREDICTED BY RF-SCORE:    0.00 PKD
ROOT
HETATM    1  C   UNL     1     -11.455   7.409  72.072  1.00  0.00    -0.273 C  
HETATM    2  O   UNL     1     -11.216   7.943  70.773  1.00  0.00    -0.261 OA 
ENDROOT
BRANCH   2   3
HETATM    3  C   UNL     1     -11.523   9.262  70.588  1.00  0.00    -0.274 A  
HETATM    4  C   UNL     1     -10.908   9.935  69.527  1.00  0.00    -0.246 A  
HETATM    5  C   UNL     1     -11.131  11.302  69.300  1.00  0.00    -0.314 A  
HETATM    6  S   UNL     1      -9.863   9.048  68.404  1.00  0.00    -0.171 S  
HETATM    7  O   UNL     1      -9.373  10.174  67.349  1.00  0.00    -0.146 OA 
HETATM    8  O   UNL     1     -10.685   8.113  67.667  1.00  0.00    -0.221 OA 
HETATM    9  C   UNL     1     -11.997  12.011  70.131  1.00  0.00    -0.401 A  
HETATM   10  O   UNL     1      -8.658   8.674  69.105  1.00  0.00    -0.126 OA 
HETATM   11  H   UNL     1     -13.780  11.542  72.865  1.00  0.00     0.000 HD 
HETATM   12  C   UNL     1     -12.579  11.352  71.220  1.00  0.00    -0.374 A  
HETATM   13  O   UNL     1     -13.385  11.989  72.126  1.00  0.00    -0.510 OA 
HETATM   14  C   UNL     1     -12.352   9.991  71.444  1.00  0.00    -0.512 A  
BRANCH   9  15
HETATM   15  C   UNL     1     -12.273  13.451  69.902  1.00  0.00    -0.271 C  
HETATM   16  O   UNL     1     -12.152  13.880  68.754  1.00  0.00    -0.354 OA 
BRANCH  15  17
HETATM   17  C   UNL     1     -12.642  14.386  70.997  1.00  0.00    -0.419 A  
HETATM   18  C   UNL     1     -11.627  14.850  71.843  1.00  0.00    -0.335 A  
HETATM   19  C   UNL     1     -11.939  15.669  72.929  1.00  0.00    -0.588 A  
HETATM   20  C   UNL     1     -13.263  16.030  73.173  1.00  0.00    -0.633 A  
HETATM   21  C   UNL     1     -14.278  15.576  72.330  1.00  0.00    -0.571 A  
HETATM   22  C   UNL     1     -13.972  14.746  71.250  1.00  0.00    -0.444 A  
ENDBRANCH  15  17
ENDBRANCH   9  15
ENDBRANCH   2   3
TORSDOF 3
ENDMDL
MODEL       42
REMARK 921   NORMALIZED FREE ENERGY PREDICTED BY IDOCK:   -5.51 KCAL/MOL
REMARK 922        TOTAL FREE ENERGY PREDICTED BY IDOCK:   -7.04 KCAL/MOL
REMARK 923 INTER-LIGAND FREE ENERGY PREDICTED BY IDOCK:   -6.42 KCAL/MOL
REMARK 924 INTRA-LIGAND FREE ENERGY PREDICTED BY IDOCK:   -0.62 KCAL/MOL
REMARK 927      BINDING AFFINITY PREDICTED BY RF-SCORE:    0.00 PKD
ROOT
HETATM    1  C   UNL     1      -7.392   8.436  66.236  1.00  0.00    -0.086 C  
HETATM    2  O   UNL     1      -8.806   8.345  66.387  1.00  0.00    -0.136 OA 
ENDROOT
BRANCH   2   3
HETATM    3  C   UNL     1      -9.518   9.491  66.175  1.00  0.00    -0.221 A  
HETATM    4  C   UNL     1     -10.235  10.025  67.251  1.00  0.00    -0.222 A  
HETATM    5  C   UNL     1     -11.032  11.172  67.103  1.00  0.00    -0.350 A  
HETATM    6  S   UNL     1     -10.107   9.284  68.855  1.00  0.00    -0.202 S  
HETATM    7  O   UNL     1     -11.066  10.194  69.788  1.00  0.00    -0.246 OA 
HETATM    8  O   UNL     1      -8.754   9.476  69.331  1.00  0.00    -0.143 OA 
HETATM    9  C   UNL     1     -11.103  11.812  65.867  1.00  0.00    -0.355 A  
HETATM   10  O   UNL     1     -10.766   8.001  68.816  1.00  0.00    -0.162 OA 
HETATM   11  H   UNL     1     -10.036  11.401  62.774  1.00  0.00     0.000 HD 
HETATM   12  C   UNL     1     -10.424  11.256  64.777  1.00  0.00    -0.323 A  
HETATM   13  O   UNL     1     -10.496  11.779  63.514  1.00  0.00    -0.373 OA 
HETATM   14  C   UNL     1      -9.634  10.112  64.928  1.00  0.00    -0.369 A  
BRANCH   9  15
HETATM   15  C   UNL     1     -11.916  13.040  65.684  1.00  0.00    -0.429 C  
HETATM   16  O   UNL     1     -13.023  12.920  65.160  1.00  0.00    -0.758 OA 
BRANCH  15  17
HETATM   17  C   UNL     1     -11.430  14.393  66.065  1.00  0.00    -0.349 A  
HETATM   18  C   UNL     1     -11.091  15.289  65.043  1.00  0.00    -0.436 A  
HETATM   19  C   UNL     1     -10.561  16.541  65.356  1.00  0.00    -0.293 A  
HETATM   20  C   UNL     1     -10.370  16.906  66.687  1.00  0.00    -0.299 A  
HETATM   21  C   UNL     1     -10.711  16.020  67.710  1.00  0.00    -0.323 A  
HETATM   22  C   UNL     1     -11.230  14.762  67.402  1.00  0.00    -0.346 A  
ENDBRANCH  15  17
ENDBRANCH   9  15
ENDBRANCH   2   3
TORSDOF 3
ENDMDL
MODEL       43
REMARK 921   NORMALIZED FREE ENERGY PREDICTED BY IDOCK:   -5.50 KCAL/MOL
REMARK 922        TOTAL FREE ENERGY PREDICTED BY IDOCK:   -7.02 KCAL/MOL
REMARK 923 INTER-LIGAND FREE ENERGY PREDICTED BY IDOCK:   -6.41 KCAL/MOL
REMARK 924 INTRA-LIGAND FREE ENERGY PREDICTED BY IDOCK:   -0.61 KCAL/MOL
REMARK 927      BINDING AFFINITY PREDICTED BY RF-SCORE:    0.00 PKD
ROOT
HETATM    1  C   UNL     1      -9.673  16.111  65.802  1.00  0.00    -0.290 C  
HETATM    2  O   UNL     1     -10.743  15.170  65.807  1.00  0.00    -0.318 OA 
ENDROOT
BRANCH   2   3
HETATM    3  C   UNL     1     -10.396  13.852  65.911  1.00  0.00    -0.311 A  
HETATM    4  C   UNL     1     -11.288  12.899  65.409  1.00  0.00    -0.303 A  
HETATM    5  C   UNL     1     -11.029  11.524  65.522  1.00  0.00    -0.290 A  
HETATM    6  S   UNL     1     -12.754  13.419  64.562  1.00  0.00    -0.044 S  
HETATM    7  O   UNL     1     -13.483  12.034  64.148  1.00  0.00    -0.672 OA 
HETATM    8  O   UNL     1     -12.356  14.067  63.330  1.00  0.00    -0.748 OA 
HETATM    9  C   UNL     1      -9.853  11.087  66.129  1.00  0.00    -0.268 A  
HETATM   10  O   UNL     1     -13.649  14.014  65.526  1.00  0.00    -0.596 OA 
HETATM   11  H   UNL     1      -7.247  12.335  67.717  1.00  0.00     0.000 HD 
HETATM   12  C   UNL     1      -8.980  12.035  66.673  1.00  0.00    -0.204 A  
HETATM   13  O   UNL     1      -7.839  11.691  67.348  1.00  0.00    -0.131 OA 
HETATM   14  C   UNL     1      -9.243  13.404  66.561  1.00  0.00    -0.182 A  
BRANCH   9  15
HETATM   15  C   UNL     1      -9.539   9.641  66.242  1.00  0.00    -0.221 C  
HETATM   16  O   UNL     1      -8.857   9.133  65.351  1.00  0.00    -0.173 OA 
BRANCH  15  17
HETATM   17  C   UNL     1     -10.047   8.788  67.349  1.00  0.00    -0.289 A  
HETATM   18  C   UNL     1     -10.109   9.338  68.635  1.00  0.00    -0.207 A  
HETATM   19  C   UNL     1     -10.508   8.550  69.716  1.00  0.00    -0.220 A  
HETATM   20  C   UNL     1     -10.849   7.214  69.517  1.00  0.00    -0.244 A  
HETATM   21  C   UNL     1     -10.795   6.662  68.237  1.00  0.00    -0.322 A  
HETATM   22  C   UNL     1     -10.385   7.442  67.155  1.00  0.00    -0.377 A  
ENDBRANCH  15  17
ENDBRANCH   9  15
ENDBRANCH   2   3
TORSDOF 3
ENDMDL
MODEL       44
REMARK 921   NORMALIZED FREE ENERGY PREDICTED BY IDOCK:   -5.48 KCAL/MOL
REMARK 922        TOTAL FREE ENERGY PREDICTED BY IDOCK:   -7.00 KCAL/MOL
REMARK 923 INTER-LIGAND FREE ENERGY PREDICTED BY IDOCK:   -6.56 KCAL/MOL
REMARK 924 INTRA-LIGAND FREE ENERGY PREDICTED BY IDOCK:   -0.44 KCAL/MOL
REMARK 927      BINDING AFFINITY PREDICTED BY RF-SCORE:    0.00 PKD
ROOT
HETATM    1  C   UNL     1     -11.838  16.129  72.022  1.00  0.00    -0.530 C  
HETATM    2  O   UNL     1     -11.349  16.351  70.702  1.00  0.00    -0.368 OA 
ENDROOT
BRANCH   2   3
HETATM    3  C   UNL     1     -11.206  15.246  69.910  1.00  0.00    -0.288 A  
HETATM    4  C   UNL     1     -10.546  15.399  68.686  1.00  0.00    -0.239 A  
HETATM    5  C   UNL     1     -10.401  14.325  67.794  1.00  0.00    -0.238 A  
HETATM    6  S   UNL     1      -9.824  16.960  68.260  1.00  0.00    -0.280 S  
HETATM    7  O   UNL     1      -9.170  16.706  66.801  1.00  0.00    -0.218 OA 
HETATM    8  O   UNL     1      -8.729  17.213  69.171  1.00  0.00    -0.155 OA 
HETATM    9  C   UNL     1     -10.906  13.070  68.131  1.00  0.00    -0.267 A  
HETATM   10  O   UNL     1     -10.890  17.900  68.009  1.00  0.00    -0.347 OA 
HETATM   11  H   UNL     1     -12.670  11.646  70.525  1.00  0.00     0.000 HD 
HETATM   12  C   UNL     1     -11.606  12.924  69.333  1.00  0.00    -0.302 A  
HETATM   13  O   UNL     1     -12.194  11.745  69.709  1.00  0.00    -0.269 OA 
HETATM   14  C   UNL     1     -11.750  13.997  70.218  1.00  0.00    -0.308 A  
BRANCH   9  15
HETATM   15  C   UNL     1     -10.747  11.910  67.220  1.00  0.00    -0.236 C  
HETATM   16  O   UNL     1     -10.192  10.905  67.666  1.00  0.00    -0.174 OA 
BRANCH  15  17
HETATM   17  C   UNL     1     -11.186  11.932  65.800  1.00  0.00    -0.365 A  
HETATM   18  C   UNL     1     -10.367  11.321  64.842  1.00  0.00    -0.362 A  
HETATM   19  C   UNL     1     -10.704  11.384  63.489  1.00  0.00    -0.453 A  
HETATM   20  C   UNL     1     -11.858  12.054  63.087  1.00  0.00    -0.301 A  
HETATM   21  C   UNL     1     -12.681  12.659  64.037  1.00  0.00    -0.363 A  
HETATM   22  C   UNL     1     -12.342  12.610  65.390  1.00  0.00    -0.499 A  
ENDBRANCH  15  17
ENDBRANCH   9  15
ENDBRANCH   2   3
TORSDOF 3
ENDMDL
MODEL       45
REMARK 921   NORMALIZED FREE ENERGY PREDICTED BY IDOCK:   -5.47 KCAL/MOL
REMARK 922        TOTAL FREE ENERGY PREDICTED BY IDOCK:   -7.00 KCAL/MOL
REMARK 923 INTER-LIGAND FREE ENERGY PREDICTED BY IDOCK:   -6.50 KCAL/MOL
REMARK 924 INTRA-LIGAND FREE ENERGY PREDICTED BY IDOCK:   -0.49 KCAL/MOL
REMARK 927      BINDING AFFINITY PREDICTED BY RF-SCORE:    0.00 PKD
ROOT
HETATM    1  C   UNL     1      -6.562  16.869  69.891  1.00  0.00     0.105 C  
HETATM    2  O   UNL     1      -7.299  17.836  69.148  1.00  0.00    -0.220 OA 
ENDROOT
BRANCH   2   3
HETATM    3  C   UNL     1      -8.158  17.354  68.201  1.00  0.00    -0.232 A  
HETATM    4  C   UNL     1      -7.888  17.650  66.860  1.00  0.00    -0.224 A  
HETATM    5  C   UNL     1      -8.748  17.235  65.832  1.00  0.00     0.012 A  
HETATM    6  S   UNL     1      -6.408  18.522  66.428  1.00  0.00    -0.203 S  
HETATM    7  O   UNL     1      -6.481  18.649  64.816  1.00  0.00    -0.487 OA 
HETATM    8  O   UNL     1      -5.279  17.669  66.730  1.00  0.00    -0.130 OA 
HETATM    9  C   UNL     1      -9.888  16.494  66.137  1.00  0.00    -0.355 A  
HETATM   10  O   UNL     1      -6.530  19.883  66.894  1.00  0.00    -0.193 OA 
HETATM   11  H   UNL     1     -11.522  15.398  68.784  1.00  0.00     0.000 HD 
HETATM   12  C   UNL     1     -10.186  16.234  67.480  1.00  0.00    -0.270 A  
HETATM   13  O   UNL     1     -11.320  15.575  67.873  1.00  0.00    -0.331 OA 
HETATM   14  C   UNL     1      -9.328  16.652  68.501  1.00  0.00    -0.236 A  
BRANCH   9  15
HETATM   15  C   UNL     1     -10.803  16.018  65.070  1.00  0.00    -0.404 C  
HETATM   16  O   UNL     1     -11.312  16.865  64.334  1.00  0.00    -1.133 OA 
BRANCH  15  17
HETATM   17  C   UNL     1     -11.157  14.586  64.889  1.00  0.00    -0.401 A  
HETATM   18  C   UNL     1     -10.122  13.670  64.660  1.00  0.00    -0.228 A  
HETATM   19  C   UNL     1     -10.414  12.329  64.411  1.00  0.00    -0.355 A  
HETATM   20  C   UNL     1     -11.739  11.895  64.391  1.00  0.00    -0.357 A  
HETATM   21  C   UNL     1     -12.774  12.801  64.624  1.00  0.00    -0.439 A  
HETATM   22  C   UNL     1     -12.487  14.146  64.862  1.00  0.00    -0.419 A  
ENDBRANCH  15  17
ENDBRANCH   9  15
ENDBRANCH   2   3
TORSDOF 3
ENDMDL
MODEL       46
REMARK 921   NORMALIZED FREE ENERGY PREDICTED BY IDOCK:   -5.47 KCAL/MOL
REMARK 922        TOTAL FREE ENERGY PREDICTED BY IDOCK:   -6.99 KCAL/MOL
REMARK 923 INTER-LIGAND FREE ENERGY PREDICTED BY IDOCK:   -6.38 KCAL/MOL
REMARK 924 INTRA-LIGAND FREE ENERGY PREDICTED BY IDOCK:   -0.61 KCAL/MOL
REMARK 927      BINDING AFFINITY PREDICTED BY RF-SCORE:    0.00 PKD
ROOT
HETATM    1  C   UNL     1     -12.165  14.063  64.612  1.00  0.00    -0.435 C  
HETATM    2  O   UNL     1     -11.466  14.459  65.790  1.00  0.00    -0.326 OA 
ENDROOT
BRANCH   2   3
HETATM    3  C   UNL     1     -11.164  13.468  66.682  1.00  0.00    -0.312 A  
HETATM    4  C   UNL     1     -10.711  13.846  67.951  1.00  0.00    -0.240 A  
HETATM    5  C   UNL     1     -10.332  12.891  68.907  1.00  0.00    -0.059 A  
HETATM    6  S   UNL     1     -10.658  15.560  68.397  1.00  0.00    -0.261 S  
HETATM    7  O   UNL     1     -10.094  15.555  69.914  1.00  0.00    -0.286 OA 
HETATM    8  O   UNL     1     -12.018  16.051  68.457  1.00  0.00    -0.273 OA 
HETATM    9  C   UNL     1     -10.422  11.533  68.604  1.00  0.00    -0.224 A  
HETATM   10  O   UNL     1      -9.611  16.195  67.634  1.00  0.00    -0.221 OA 
HETATM   11  H   UNL     1     -11.158   9.585  66.047  1.00  0.00     0.000 HD 
HETATM   12  C   UNL     1     -10.832  11.152  67.321  1.00  0.00    -0.274 A  
HETATM   13  O   UNL     1     -10.881   9.844  66.918  1.00  0.00    -0.178 OA 
HETATM   14  C   UNL     1     -11.205  12.107  66.371  1.00  0.00    -0.380 A  
BRANCH   9  15
HETATM   15  C   UNL     1     -10.053  10.499  69.602  1.00  0.00    -0.139 C  
HETATM   16  O   UNL     1      -8.879  10.129  69.635  1.00  0.00    -0.195 OA 
BRANCH  15  17
HETATM   17  C   UNL     1     -11.042   9.871  70.518  1.00  0.00    -0.398 A  
HETATM   18  C   UNL     1     -12.341  10.394  70.551  1.00  0.00    -0.410 A  
HETATM   19  C   UNL     1     -13.280   9.885  71.450  1.00  0.00    -0.487 A  
HETATM   20  C   UNL     1     -12.928   8.851  72.315  1.00  0.00    -0.479 A  
HETATM   21  C   UNL     1     -11.637   8.322  72.283  1.00  0.00    -0.449 A  
HETATM   22  C   UNL     1     -10.691   8.836  71.395  1.00  0.00    -0.356 A  
ENDBRANCH  15  17
ENDBRANCH   9  15
ENDBRANCH   2   3
TORSDOF 3
ENDMDL
MODEL       47
REMARK 921   NORMALIZED FREE ENERGY PREDICTED BY IDOCK:   -5.44 KCAL/MOL
REMARK 922        TOTAL FREE ENERGY PREDICTED BY IDOCK:   -6.96 KCAL/MOL
REMARK 923 INTER-LIGAND FREE ENERGY PREDICTED BY IDOCK:   -6.34 KCAL/MOL
REMARK 924 INTRA-LIGAND FREE ENERGY PREDICTED BY IDOCK:   -0.62 KCAL/MOL
REMARK 927      BINDING AFFINITY PREDICTED BY RF-SCORE:    0.00 PKD
ROOT
HETATM    1  C   UNL     1     -12.697  13.847  70.597  1.00  0.00    -0.281 C  
HETATM    2  O   UNL     1     -11.542  13.640  69.788  1.00  0.00    -0.279 OA 
ENDROOT
BRANCH   2   3
HETATM    3  C   UNL     1     -11.155  14.685  68.997  1.00  0.00    -0.259 A  
HETATM    4  C   UNL     1     -10.758  14.402  67.686  1.00  0.00    -0.263 A  
HETATM    5  C   UNL     1     -10.299  15.413  66.826  1.00  0.00    -0.279 A  
HETATM    6  S   UNL     1     -10.879  12.749  67.062  1.00  0.00    -0.262 S  
HETATM    7  O   UNL     1     -10.337  12.860  65.541  1.00  0.00    -0.283 OA 
HETATM    8  O   UNL     1     -12.281  12.400  66.983  1.00  0.00    -0.508 OA 
HETATM    9  C   UNL     1     -10.252  16.733  67.271  1.00  0.00    -0.292 A  
HETATM   10  O   UNL     1      -9.889  11.938  67.731  1.00  0.00    -0.177 OA 
HETATM   11  H   UNL     1     -10.761  18.461  70.033  1.00  0.00     0.000 HD 
HETATM   12  C   UNL     1     -10.606  17.014  68.596  1.00  0.00    -0.362 A  
HETATM   13  O   UNL     1     -10.521  18.270  69.134  1.00  0.00    -0.170 OA 
HETATM   14  C   UNL     1     -11.059  16.004  69.449  1.00  0.00    -0.331 A  
BRANCH   9  15
HETATM   15  C   UNL     1      -9.796  17.828  66.378  1.00  0.00    -0.324 C  
HETATM   16  O   UNL     1     -10.579  18.222  65.512  1.00  0.00    -0.632 OA 
BRANCH  15  17
HETATM   17  C   UNL     1      -8.437  18.424  66.462  1.00  0.00    -0.287 A  
HETATM   18  C   UNL     1      -8.329  19.815  66.583  1.00  0.00    -0.360 A  
HETATM   19  C   UNL     1      -7.073  20.423  66.589  1.00  0.00    -0.306 A  
HETATM   20  C   UNL     1      -5.921  19.647  66.477  1.00  0.00    -0.167 A  
HETATM   21  C   UNL     1      -6.022  18.260  66.361  1.00  0.00    -0.202 A  
HETATM   22  C   UNL     1      -7.276  17.648  66.342  1.00  0.00    -0.319 A  
ENDBRANCH  15  17
ENDBRANCH   9  15
ENDBRANCH   2   3
TORSDOF 3
ENDMDL
MODEL       48
REMARK 921   NORMALIZED FREE ENERGY PREDICTED BY IDOCK:   -5.44 KCAL/MOL
REMARK 922        TOTAL FREE ENERGY PREDICTED BY IDOCK:   -6.96 KCAL/MOL
REMARK 923 INTER-LIGAND FREE ENERGY PREDICTED BY IDOCK:   -6.36 KCAL/MOL
REMARK 924 INTRA-LIGAND FREE ENERGY PREDICTED BY IDOCK:   -0.60 KCAL/MOL
REMARK 927      BINDING AFFINITY PREDICTED BY RF-SCORE:    0.00 PKD
ROOT
HETATM    1  C   UNL     1     -10.368  17.615  68.926  1.00  0.00    -0.323 C  
HETATM    2  O   UNL     1     -10.997  16.757  67.978  1.00  0.00    -0.356 OA 
ENDROOT
BRANCH   2   3
HETATM    3  C   UNL     1     -11.205  15.464  68.367  1.00  0.00    -0.315 A  
HETATM    4  C   UNL     1     -10.900  14.448  67.455  1.00  0.00    -0.282 A  
HETATM    5  C   UNL     1     -11.132  13.098  67.760  1.00  0.00    -0.287 A  
HETATM    6  S   UNL     1     -10.156  14.851  65.899  1.00  0.00    -0.348 S  
HETATM    7  O   UNL     1      -9.968  13.418  65.169  1.00  0.00    -0.257 OA 
HETATM    8  O   UNL     1      -8.829  15.368  66.155  1.00  0.00    -0.307 OA 
HETATM    9  C   UNL     1     -11.659  12.747  69.001  1.00  0.00    -0.366 A  
HETATM   10  O   UNL     1     -11.138  15.533  65.089  1.00  0.00    -0.376 OA 
HETATM   11  H   UNL     1     -12.832  14.200  71.719  1.00  0.00     0.000 HD 
HETATM   12  C   UNL     1     -12.007  13.762  69.899  1.00  0.00    -0.347 A  
HETATM   13  O   UNL     1     -12.595  13.510  71.110  1.00  0.00    -0.350 OA 
HETATM   14  C   UNL     1     -11.778  15.106  69.591  1.00  0.00    -0.353 A  
BRANCH   9  15
HETATM   15  C   UNL     1     -11.892  11.327  69.363  1.00  0.00    -0.355 C  
HETATM   16  O   UNL     1     -13.024  10.872  69.193  1.00  0.00     0.026 OA 
BRANCH  15  17
HETATM   17  C   UNL     1     -10.837  10.461  69.954  1.00  0.00    -0.353 A  
HETATM   18  C   UNL     1     -11.089   9.860  71.194  1.00  0.00    -0.359 A  
HETATM   19  C   UNL     1     -10.099   9.101  71.819  1.00  0.00    -0.279 A  
HETATM   20  C   UNL     1      -8.857   8.937  71.211  1.00  0.00    -0.298 A  
HETATM   21  C   UNL     1      -8.601   9.528  69.973  1.00  0.00    -0.234 A  
HETATM   22  C   UNL     1      -9.584  10.298  69.349  1.00  0.00    -0.237 A  
ENDBRANCH  15  17
ENDBRANCH   9  15
ENDBRANCH   2   3
TORSDOF 3
ENDMDL
MODEL       49
REMARK 921   NORMALIZED FREE ENERGY PREDICTED BY IDOCK:   -5.42 KCAL/MOL
REMARK 922        TOTAL FREE ENERGY PREDICTED BY IDOCK:   -6.93 KCAL/MOL
REMARK 923 INTER-LIGAND FREE ENERGY PREDICTED BY IDOCK:   -6.64 KCAL/MOL
REMARK 924 INTRA-LIGAND FREE ENERGY PREDICTED BY IDOCK:   -0.29 KCAL/MOL
REMARK 927      BINDING AFFINITY PREDICTED BY RF-SCORE:    0.00 PKD
ROOT
HETATM    1  C   UNL     1     -11.487  14.181  65.833  1.00  0.00    -0.338 C  
HETATM    2  O   UNL     1     -10.456  13.631  66.649  1.00  0.00    -0.268 OA 
ENDROOT
BRANCH   2   3
HETATM    3  C   UNL     1     -10.854  12.813  67.668  1.00  0.00    -0.228 A  
HETATM    4  C   UNL     1     -10.734  11.431  67.483  1.00  0.00    -0.222 A  
HETATM    5  C   UNL     1     -11.168  10.522  68.462  1.00  0.00    -0.332 A  
HETATM    6  S   UNL     1      -9.975  10.798  66.014  1.00  0.00    -0.252 S  
HETATM    7  O   UNL     1     -10.032   9.191  66.202  1.00  0.00    -0.286 OA 
HETATM    8  O   UNL     1      -8.577  11.173  66.033  1.00  0.00    -0.172 OA 
HETATM    9  C   UNL     1     -11.713  10.994  69.654  1.00  0.00    -0.401 A  
HETATM   10  O   UNL     1     -10.857  11.054  64.900  1.00  0.00    -0.250 OA 
HETATM   11  H   UNL     1     -12.577  13.854  71.048  1.00  0.00     0.000 HD 
HETATM   12  C   UNL     1     -11.876  12.374  69.824  1.00  0.00    -0.317 A  
HETATM   13  O   UNL     1     -12.466  12.918  70.933  1.00  0.00    -0.367 OA 
HETATM   14  C   UNL     1     -11.446  13.275  68.846  1.00  0.00    -0.342 A  
BRANCH   9  15
HETATM   15  C   UNL     1     -12.156  10.059  70.718  1.00  0.00    -0.327 C  
HETATM   16  O   UNL     1     -13.363   9.996  70.956  1.00  0.00    -0.385 OA 
BRANCH  15  17
HETATM   17  C   UNL     1     -11.209   9.244  71.522  1.00  0.00    -0.457 A  
HETATM   18  C   UNL     1      -9.836   9.408  71.299  1.00  0.00    -0.245 A  
HETATM   19  C   UNL     1      -8.914   8.609  71.977  1.00  0.00    -0.286 A  
HETATM   20  C   UNL     1      -9.358   7.647  72.883  1.00  0.00    -0.253 A  
HETATM   21  C   UNL     1     -10.724   7.483  73.114  1.00  0.00    -0.452 A  
HETATM   22  C   UNL     1     -11.650   8.270  72.429  1.00  0.00    -0.464 A  
ENDBRANCH  15  17
ENDBRANCH   9  15
ENDBRANCH   2   3
TORSDOF 3
ENDMDL
MODEL       50
REMARK 921   NORMALIZED FREE ENERGY PREDICTED BY IDOCK:   -5.42 KCAL/MOL
REMARK 922        TOTAL FREE ENERGY PREDICTED BY IDOCK:   -6.93 KCAL/MOL
REMARK 923 INTER-LIGAND FREE ENERGY PREDICTED BY IDOCK:   -6.31 KCAL/MOL
REMARK 924 INTRA-LIGAND FREE ENERGY PREDICTED BY IDOCK:   -0.63 KCAL/MOL
REMARK 927      BINDING AFFINITY PREDICTED BY RF-SCORE:    0.00 PKD
ROOT
HETATM    1  C   UNL     1      -9.635   6.554  67.666  1.00  0.00    -0.122 C  
HETATM    2  O   UNL     1      -9.315   7.785  68.309  1.00  0.00    -0.143 OA 
ENDROOT
BRANCH   2   3
HETATM    3  C   UNL     1      -9.822   8.920  67.742  1.00  0.00    -0.166 A  
HETATM    4  C   UNL     1     -10.610   9.756  68.541  1.00  0.00    -0.221 A  
HETATM    5  C   UNL     1     -11.208  10.915  68.021  1.00  0.00    -0.378 A  
HETATM    6  S   UNL     1     -10.824   9.391  70.261  1.00  0.00    -0.276 S  
HETATM    7  O   UNL     1     -11.776  10.583  70.803  1.00  0.00    -0.326 OA 
HETATM    8  O   UNL     1      -9.543   9.547  70.917  1.00  0.00    -0.251 OA 
HETATM    9  C   UNL     1     -11.006  11.260  66.686  1.00  0.00    -0.326 A  
HETATM   10  O   UNL     1     -11.642   8.207  70.375  1.00  0.00    -0.198 OA 
HETATM   11  H   UNL     1      -9.560  10.048  63.982  1.00  0.00     0.000 HD 
HETATM   12  C   UNL     1     -10.257  10.403  65.872  1.00  0.00    -0.234 A  
HETATM   13  O   UNL     1     -10.068  10.630  64.534  1.00  0.00    -0.320 OA 
HETATM   14  C   UNL     1      -9.665   9.249  66.393  1.00  0.00    -0.325 A  
BRANCH   9  15
HETATM   15  C   UNL     1     -11.605  12.491  66.113  1.00  0.00    -0.395 C  
HETATM   16  O   UNL     1     -12.605  12.364  65.405  1.00  0.00    -0.637 OA 
BRANCH  15  17
HETATM   17  C   UNL     1     -11.025  13.843  66.322  1.00  0.00    -0.298 A  
HETATM   18  C   UNL     1     -11.442  14.580  67.438  1.00  0.00    -0.385 A  
HETATM   19  C   UNL     1     -10.981  15.882  67.632  1.00  0.00    -0.298 A  
HETATM   20  C   UNL     1     -10.099  16.454  66.717  1.00  0.00    -0.287 A  
HETATM   21  C   UNL     1      -9.674  15.724  65.607  1.00  0.00    -0.332 A  
HETATM   22  C   UNL     1     -10.143  14.425  65.401  1.00  0.00    -0.388 A  
ENDBRANCH  15  17
ENDBRANCH   9  15
ENDBRANCH   2   3
TORSDOF 3
ENDMDL
MODEL       51
REMARK 921   NORMALIZED FREE ENERGY PREDICTED BY IDOCK:   -5.38 KCAL/MOL
REMARK 922        TOTAL FREE ENERGY PREDICTED BY IDOCK:   -6.88 KCAL/MOL
REMARK 923 INTER-LIGAND FREE ENERGY PREDICTED BY IDOCK:   -6.32 KCAL/MOL
REMARK 924 INTRA-LIGAND FREE ENERGY PREDICTED BY IDOCK:   -0.57 KCAL/MOL
REMARK 927      BINDING AFFINITY PREDICTED BY RF-SCORE:    0.00 PKD
ROOT
HETATM    1  C   UNL     1     -10.444   5.415  69.592  1.00  0.00    -0.291 C  
HETATM    2  O   UNL     1     -10.990   6.676  69.967  1.00  0.00    -0.260 OA 
ENDROOT
BRANCH   2   3
HETATM    3  C   UNL     1     -10.644   7.747  69.191  1.00  0.00    -0.183 A  
HETATM    4  C   UNL     1     -10.976   9.025  69.654  1.00  0.00    -0.136 A  
HETATM    5  C   UNL     1     -10.701  10.172  68.894  1.00  0.00    -0.249 A  
HETATM    6  S   UNL     1     -11.711   9.224  71.254  1.00  0.00    -0.374 S  
HETATM    7  O   UNL     1     -11.921  10.822  71.395  1.00  0.00    -0.262 OA 
HETATM    8  O   UNL     1     -10.732   8.840  72.249  1.00  0.00    -0.344 OA 
HETATM    9  C   UNL     1     -10.067  10.050  67.658  1.00  0.00    -0.232 A  
HETATM   10  O   UNL     1     -13.053   8.694  71.206  1.00  0.00    -0.272 OA 
HETATM   11  H   UNL     1      -9.019   7.689  65.609  1.00  0.00     0.000 HD 
HETATM   12  C   UNL     1      -9.774   8.771  67.172  1.00  0.00    -0.191 A  
HETATM   13  O   UNL     1      -9.217   8.557  65.939  1.00  0.00    -0.203 OA 
HETATM   14  C   UNL     1     -10.053   7.631  67.931  1.00  0.00    -0.231 A  
BRANCH   9  15
HETATM   15  C   UNL     1      -9.740  11.246  66.842  1.00  0.00    -0.192 C  
HETATM   16  O   UNL     1      -8.712  11.865  67.122  1.00  0.00    -0.163 OA 
BRANCH  15  17
HETATM   17  C   UNL     1     -10.615  11.740  65.747  1.00  0.00    -0.312 A  
HETATM   18  C   UNL     1     -10.304  11.373  64.432  1.00  0.00    -0.375 A  
HETATM   19  C   UNL     1     -11.054  11.875  63.367  1.00  0.00    -0.463 A  
HETATM   20  C   UNL     1     -12.118  12.742  63.611  1.00  0.00    -0.624 A  
HETATM   21  C   UNL     1     -12.437  13.106  64.919  1.00  0.00    -0.490 A  
HETATM   22  C   UNL     1     -11.682  12.617  65.986  1.00  0.00    -0.470 A  
ENDBRANCH  15  17
ENDBRANCH   9  15
ENDBRANCH   2   3
TORSDOF 3
ENDMDL
MODEL       52
REMARK 921   NORMALIZED FREE ENERGY PREDICTED BY IDOCK:   -5.37 KCAL/MOL
REMARK 922        TOTAL FREE ENERGY PREDICTED BY IDOCK:   -6.88 KCAL/MOL
REMARK 923 INTER-LIGAND FREE ENERGY PREDICTED BY IDOCK:   -6.18 KCAL/MOL
REMARK 924 INTRA-LIGAND FREE ENERGY PREDICTED BY IDOCK:   -0.69 KCAL/MOL
REMARK 927      BINDING AFFINITY PREDICTED BY RF-SCORE:    0.00 PKD
ROOT
HETATM    1  C   UNL     1      -9.439  10.362  65.676  1.00  0.00    -0.211 C  
HETATM    2  O   UNL     1     -10.724  10.971  65.590  1.00  0.00    -0.231 OA 
ENDROOT
BRANCH   2   3
HETATM    3  C   UNL     1     -10.907  12.117  66.312  1.00  0.00    -0.282 A  
HETATM    4  C   UNL     1     -11.477  13.216  65.661  1.00  0.00    -0.323 A  
HETATM    5  C   UNL     1     -11.652  14.445  66.317  1.00  0.00    -0.377 A  
HETATM    6  S   UNL     1     -12.044  13.059  63.990  1.00  0.00    -0.461 S  
HETATM    7  O   UNL     1     -12.626  14.526  63.631  1.00  0.00    -0.798 OA 
HETATM    8  O   UNL     1     -13.169  12.149  63.981  1.00  0.00    -0.728 OA 
HETATM    9  C   UNL     1     -11.271  14.579  67.651  1.00  0.00    -0.335 A  
HETATM   10  O   UNL     1     -10.893  12.917  63.131  1.00  0.00    -0.019 OA 
HETATM   11  H   UNL     1      -9.776  12.829  70.012  1.00  0.00     0.000 HD 
HETATM   12  C   UNL     1     -10.660  13.496  68.292  1.00  0.00    -0.250 A  
HETATM   13  O   UNL     1     -10.192  13.564  69.578  1.00  0.00     0.301 OA 
HETATM   14  C   UNL     1     -10.485  12.275  67.634  1.00  0.00    -0.230 A  
BRANCH   9  15
HETATM   15  C   UNL     1     -11.467  15.857  68.380  1.00  0.00    -0.348 C  
HETATM   16  O   UNL     1     -12.511  15.998  69.017  1.00  0.00     0.058 OA 
BRANCH  15  17
HETATM   17  C   UNL     1     -10.484  16.971  68.333  1.00  0.00    -0.370 A  
HETATM   18  C   UNL     1     -10.886  18.189  67.770  1.00  0.00    -0.250 A  
HETATM   19  C   UNL     1      -9.974  19.236  67.637  1.00  0.00    -0.453 A  
HETATM   20  C   UNL     1      -8.658  19.074  68.068  1.00  0.00    -0.337 A  
HETATM   21  C   UNL     1      -8.252  17.866  68.636  1.00  0.00    -0.281 A  
HETATM   22  C   UNL     1      -9.158  16.811  68.759  1.00  0.00    -0.259 A  
ENDBRANCH  15  17
ENDBRANCH   9  15
ENDBRANCH   2   3
TORSDOF 3
ENDMDL
MODEL       53
REMARK 921   NORMALIZED FREE ENERGY PREDICTED BY IDOCK:   -5.37 KCAL/MOL
REMARK 922        TOTAL FREE ENERGY PREDICTED BY IDOCK:   -6.87 KCAL/MOL
REMARK 923 INTER-LIGAND FREE ENERGY PREDICTED BY IDOCK:   -6.59 KCAL/MOL
REMARK 924 INTRA-LIGAND FREE ENERGY PREDICTED BY IDOCK:   -0.28 KCAL/MOL
REMARK 927      BINDING AFFINITY PREDICTED BY RF-SCORE:    0.00 PKD
ROOT
HETATM    1  C   UNL     1      -6.837   9.004  68.485  1.00  0.00    -0.064 C  
HETATM    2  O   UNL     1      -8.105   9.005  67.833  1.00  0.00    -0.105 OA 
ENDROOT
BRANCH   2   3
HETATM    3  C   UNL     1      -9.170   9.439  68.571  1.00  0.00    -0.131 A  
HETATM    4  C   UNL     1     -10.079  10.309  67.958  1.00  0.00    -0.162 A  
HETATM    5  C   UNL     1     -11.172  10.840  68.662  1.00  0.00    -0.333 A  
HETATM    6  S   UNL     1      -9.894  10.719  66.245  1.00  0.00    -0.223 S  
HETATM    7  O   UNL     1     -11.128  11.722  65.943  1.00  0.00    -0.309 OA 
HETATM    8  O   UNL     1     -10.127   9.521  65.468  1.00  0.00    -0.260 OA 
HETATM    9  C   UNL     1     -11.377  10.485  69.994  1.00  0.00    -0.392 A  
HETATM   10  O   UNL     1      -8.722  11.550  66.101  1.00  0.00    -0.186 OA 
HETATM   11  H   UNL     1      -9.901   8.745  72.374  1.00  0.00     0.000 HD 
HETATM   12  C   UNL     1     -10.446   9.652  70.623  1.00  0.00    -0.312 A  
HETATM   13  O   UNL     1     -10.533   9.311  71.947  1.00  0.00    -0.305 OA 
HETATM   14  C   UNL     1      -9.358   9.128  69.920  1.00  0.00    -0.198 A  
BRANCH   9  15
HETATM   15  C   UNL     1     -12.537  11.009  70.757  1.00  0.00    -0.369 C  
HETATM   16  O   UNL     1     -13.404  10.206  71.103  1.00  0.00    -0.376 OA 
BRANCH  15  17
HETATM   17  C   UNL     1     -12.709  12.451  71.075  1.00  0.00    -0.315 A  
HETATM   18  C   UNL     1     -13.532  12.800  72.153  1.00  0.00    -0.591 A  
HETATM   19  C   UNL     1     -13.781  14.143  72.439  1.00  0.00    -0.645 A  
HETATM   20  C   UNL     1     -13.208  15.142  71.655  1.00  0.00    -0.496 A  
HETATM   21  C   UNL     1     -12.382  14.801  70.583  1.00  0.00    -0.401 A  
HETATM   22  C   UNL     1     -12.140  13.460  70.285  1.00  0.00    -0.419 A  
ENDBRANCH  15  17
ENDBRANCH   9  15
ENDBRANCH   2   3
TORSDOF 3
ENDMDL
MODEL       54
REMARK 921   NORMALIZED FREE ENERGY PREDICTED BY IDOCK:   -5.37 KCAL/MOL
REMARK 922        TOTAL FREE ENERGY PREDICTED BY IDOCK:   -6.87 KCAL/MOL
REMARK 923 INTER-LIGAND FREE ENERGY PREDICTED BY IDOCK:   -6.71 KCAL/MOL
REMARK 924 INTRA-LIGAND FREE ENERGY PREDICTED BY IDOCK:   -0.17 KCAL/MOL
REMARK 927      BINDING AFFINITY PREDICTED BY RF-SCORE:    0.00 PKD
ROOT
HETATM    1  C   UNL     1     -13.847  15.299  72.680  1.00  0.00    -0.487 C  
HETATM    2  O   UNL     1     -13.039  15.120  71.520  1.00  0.00    -0.339 OA 
ENDROOT
BRANCH   2   3
HETATM    3  C   UNL     1     -12.693  13.835  71.209  1.00  0.00    -0.371 A  
HETATM    4  C   UNL     1     -11.805  13.634  70.147  1.00  0.00    -0.281 A  
HETATM    5  C   UNL     1     -11.439  12.344  69.733  1.00  0.00    -0.220 A  
HETATM    6  S   UNL     1     -11.074  15.026  69.331  1.00  0.00    -0.294 S  
HETATM    7  O   UNL     1     -10.127  14.365  68.196  1.00  0.00    -0.217 OA 
HETATM    8  O   UNL     1     -10.198  15.690  70.272  1.00  0.00    -0.287 OA 
HETATM    9  C   UNL     1     -11.951  11.231  70.397  1.00  0.00    -0.471 A  
HETATM   10  O   UNL     1     -12.103  15.704  68.580  1.00  0.00    -0.270 OA 
HETATM   11  H   UNL     1     -14.107  10.520  72.788  1.00  0.00     0.000 HD 
HETATM   12  C   UNL     1     -12.875  11.425  71.430  1.00  0.00    -0.397 A  
HETATM   13  O   UNL     1     -13.480  10.388  72.088  1.00  0.00    -0.396 OA 
HETATM   14  C   UNL     1     -13.239  12.712  71.838  1.00  0.00    -0.504 A  
BRANCH   9  15
HETATM   15  C   UNL     1     -11.564   9.854  69.999  1.00  0.00    -0.175 C  
HETATM   16  O   UNL     1     -11.526   9.597  68.795  1.00  0.00     0.056 OA 
BRANCH  15  17
HETATM   17  C   UNL     1     -11.269   8.782  70.985  1.00  0.00    -0.329 A  
HETATM   18  C   UNL     1     -12.002   7.590  70.910  1.00  0.00    -0.278 A  
HETATM   19  C   UNL     1     -11.810   6.588  71.861  1.00  0.00    -0.381 A  
HETATM   20  C   UNL     1     -10.887   6.768  72.889  1.00  0.00    -0.304 A  
HETATM   21  C   UNL     1     -10.149   7.950  72.966  1.00  0.00    -0.384 A  
HETATM   22  C   UNL     1     -10.346   8.961  72.024  1.00  0.00    -0.378 A  
ENDBRANCH  15  17
ENDBRANCH   9  15
ENDBRANCH   2   3
TORSDOF 3
ENDMDL
MODEL       55
REMARK 921   NORMALIZED FREE ENERGY PREDICTED BY IDOCK:   -5.34 KCAL/MOL
REMARK 922        TOTAL FREE ENERGY PREDICTED BY IDOCK:   -6.84 KCAL/MOL
REMARK 923 INTER-LIGAND FREE ENERGY PREDICTED BY IDOCK:   -6.17 KCAL/MOL
REMARK 924 INTRA-LIGAND FREE ENERGY PREDICTED BY IDOCK:   -0.67 KCAL/MOL
REMARK 927      BINDING AFFINITY PREDICTED BY RF-SCORE:    0.00 PKD
ROOT
HETATM    1  C   UNL     1     -10.348  17.112  66.618  1.00  0.00    -0.310 C  
HETATM    2  O   UNL     1      -9.394  16.070  66.432  1.00  0.00    -0.248 OA 
ENDROOT
BRANCH   2   3
HETATM    3  C   UNL     1      -9.754  14.826  66.867  1.00  0.00    -0.240 A  
HETATM    4  C   UNL     1      -8.905  14.177  67.770  1.00  0.00    -0.185 A  
HETATM    5  C   UNL     1      -9.178  12.878  68.226  1.00  0.00    -0.187 A  
HETATM    6  S   UNL     1      -7.479  15.016  68.403  1.00  0.00    -0.121 S  
HETATM    7  O   UNL     1      -6.794  13.936  69.396  1.00  0.00    -0.114 OA 
HETATM    8  O   UNL     1      -7.932  16.115  69.228  1.00  0.00    -0.235 OA 
HETATM    9  C   UNL     1     -10.326  12.217  67.793  1.00  0.00    -0.216 A  
HETATM   10  O   UNL     1      -6.525  15.162  67.329  1.00  0.00    -0.306 OA 
HETATM   11  H   UNL     1     -12.824  12.666  65.688  1.00  0.00     0.000 HD 
HETATM   12  C   UNL     1     -11.154  12.845  66.856  1.00  0.00    -0.278 A  
HETATM   13  O   UNL     1     -12.262  12.240  66.324  1.00  0.00    -0.628 OA 
HETATM   14  C   UNL     1     -10.877  14.138  66.402  1.00  0.00    -0.304 A  
BRANCH   9  15
HETATM   15  C   UNL     1     -10.656  10.853  68.277  1.00  0.00    -0.190 C  
HETATM   16  O   UNL     1     -10.425   9.908  67.521  1.00  0.00    -0.220 OA 
BRANCH  15  17
HETATM   17  C   UNL     1     -11.283  10.596  69.599  1.00  0.00    -0.351 A  
HETATM   18  C   UNL     1     -10.915   9.438  70.295  1.00  0.00    -0.305 A  
HETATM   19  C   UNL     1     -11.534   9.119  71.504  1.00  0.00    -0.437 A  
HETATM   20  C   UNL     1     -12.521   9.954  72.025  1.00  0.00    -0.353 A  
HETATM   21  C   UNL     1     -12.889  11.112  71.339  1.00  0.00    -0.544 A  
HETATM   22  C   UNL     1     -12.281  11.429  70.123  1.00  0.00    -0.401 A  
ENDBRANCH  15  17
ENDBRANCH   9  15
ENDBRANCH   2   3
TORSDOF 3
ENDMDL
MODEL       56
REMARK 921   NORMALIZED FREE ENERGY PREDICTED BY IDOCK:   -5.34 KCAL/MOL
REMARK 922        TOTAL FREE ENERGY PREDICTED BY IDOCK:   -6.84 KCAL/MOL
REMARK 923 INTER-LIGAND FREE ENERGY PREDICTED BY IDOCK:   -6.24 KCAL/MOL
REMARK 924 INTRA-LIGAND FREE ENERGY PREDICTED BY IDOCK:   -0.60 KCAL/MOL
REMARK 927      BINDING AFFINITY PREDICTED BY RF-SCORE:    0.00 PKD
ROOT
HETATM    1  C   UNL     1     -11.973   8.250  71.470  1.00  0.00    -0.296 C  
HETATM    2  O   UNL     1     -10.827   8.766  70.799  1.00  0.00    -0.216 OA 
ENDROOT
BRANCH   2   3
HETATM    3  C   UNL     1     -11.058   9.693  69.822  1.00  0.00    -0.217 A  
HETATM    4  C   UNL     1     -10.667   9.378  68.516  1.00  0.00    -0.161 A  
HETATM    5  C   UNL     1     -10.823  10.296  67.464  1.00  0.00    -0.355 A  
HETATM    6  S   UNL     1     -10.008   7.775  68.151  1.00  0.00    -0.184 S  
HETATM    7  O   UNL     1      -9.698   7.827  66.563  1.00  0.00    -0.213 OA 
HETATM    8  O   UNL     1     -11.062   6.802  68.341  1.00  0.00    -0.210 OA 
HETATM    9  C   UNL     1     -11.397  11.542  67.710  1.00  0.00    -0.364 A  
HETATM   10  O   UNL     1      -8.704   7.671  68.761  1.00  0.00    -0.129 OA 
HETATM   11  H   UNL     1     -12.488  13.333  70.255  1.00  0.00     0.000 HD 
HETATM   12  C   UNL     1     -11.748  11.878  69.023  1.00  0.00    -0.331 A  
HETATM   13  O   UNL     1     -12.251  13.105  69.364  1.00  0.00    -0.251 OA 
HETATM   14  C   UNL     1     -11.587  10.962  70.067  1.00  0.00    -0.424 A  
BRANCH   9  15
HETATM   15  C   UNL     1     -11.599  12.523  66.616  1.00  0.00    -0.380 C  
HETATM   16  O   UNL     1     -12.480  12.284  65.789  1.00  0.00    -0.564 OA 
BRANCH  15  17
HETATM   17  C   UNL     1     -10.761  13.741  66.458  1.00  0.00    -0.284 A  
HETATM   18  C   UNL     1     -11.289  14.823  65.744  1.00  0.00    -0.336 A  
HETATM   19  C   UNL     1     -10.509  15.956  65.508  1.00  0.00    -0.425 A  
HETATM   20  C   UNL     1      -9.202  16.015  65.986  1.00  0.00    -0.375 A  
HETATM   21  C   UNL     1      -8.671  14.943  66.704  1.00  0.00    -0.262 A  
HETATM   22  C   UNL     1      -9.443  13.802  66.931  1.00  0.00    -0.265 A  
ENDBRANCH  15  17
ENDBRANCH   9  15
ENDBRANCH   2   3
TORSDOF 3
ENDMDL
MODEL       57
REMARK 921   NORMALIZED FREE ENERGY PREDICTED BY IDOCK:   -5.32 KCAL/MOL
REMARK 922        TOTAL FREE ENERGY PREDICTED BY IDOCK:   -6.82 KCAL/MOL
REMARK 923 INTER-LIGAND FREE ENERGY PREDICTED BY IDOCK:   -6.43 KCAL/MOL
REMARK 924 INTRA-LIGAND FREE ENERGY PREDICTED BY IDOCK:   -0.39 KCAL/MOL
REMARK 927      BINDING AFFINITY PREDICTED BY RF-SCORE:    0.00 PKD
ROOT
HETATM    1  C   UNL     1     -13.119  13.808  71.456  1.00  0.00    -0.357 C  
HETATM    2  O   UNL     1     -12.454  13.069  70.435  1.00  0.00    -0.280 OA 
ENDROOT
BRANCH   2   3
HETATM    3  C   UNL     1     -12.271  11.735  70.668  1.00  0.00    -0.349 A  
HETATM    4  C   UNL     1     -11.594  10.988  69.698  1.00  0.00    -0.318 A  
HETATM    5  C   UNL     1     -11.409   9.603  69.838  1.00  0.00    -0.200 A  
HETATM    6  S   UNL     1     -10.903  11.797  68.282  1.00  0.00    -0.236 S  
HETATM    7  O   UNL     1     -10.218  10.597  67.437  1.00  0.00    -0.187 OA 
HETATM    8  O   UNL     1      -9.830  12.656  68.734  1.00  0.00    -0.116 OA 
HETATM    9  C   UNL     1     -11.888   8.950  70.973  1.00  0.00    -0.324 A  
HETATM   10  O   UNL     1     -11.987  12.246  67.441  1.00  0.00    -0.530 OA 
HETATM   11  H   UNL     1     -13.658   9.610  73.676  1.00  0.00     0.000 HD 
HETATM   12  C   UNL     1     -12.605   9.686  71.924  1.00  0.00    -0.396 A  
HETATM   13  O   UNL     1     -13.171   9.111  73.031  1.00  0.00    -0.269 OA 
HETATM   14  C   UNL     1     -12.790  11.064  71.779  1.00  0.00    -0.496 A  
BRANCH   9  15
HETATM   15  C   UNL     1     -11.686   7.493  71.162  1.00  0.00    -0.291 C  
HETATM   16  O   UNL     1     -12.135   6.737  70.299  1.00  0.00    -0.328 OA 
BRANCH  15  17
HETATM   17  C   UNL     1     -11.012   6.920  72.357  1.00  0.00    -0.280 A  
HETATM   18  C   UNL     1      -9.952   7.635  72.928  1.00  0.00    -0.319 A  
HETATM   19  C   UNL     1      -9.243   7.099  74.004  1.00  0.00    -0.281 A  
HETATM   20  C   UNL     1      -9.589   5.850  74.515  1.00  0.00    -0.210 A  
HETATM   21  C   UNL     1     -10.648   5.135  73.954  1.00  0.00    -0.340 A  
HETATM   22  C   UNL     1     -11.352   5.661  72.870  1.00  0.00    -0.325 A  
ENDBRANCH  15  17
ENDBRANCH   9  15
ENDBRANCH   2   3
TORSDOF 3
ENDMDL
MODEL       58
REMARK 921   NORMALIZED FREE ENERGY PREDICTED BY IDOCK:   -5.31 KCAL/MOL
REMARK 922        TOTAL FREE ENERGY PREDICTED BY IDOCK:   -6.80 KCAL/MOL
REMARK 923 INTER-LIGAND FREE ENERGY PREDICTED BY IDOCK:   -6.17 KCAL/MOL
REMARK 924 INTRA-LIGAND FREE ENERGY PREDICTED BY IDOCK:   -0.64 KCAL/MOL
REMARK 927      BINDING AFFINITY PREDICTED BY RF-SCORE:    0.00 PKD
ROOT
HETATM    1  C   UNL     1     -10.077  18.106  66.078  1.00  0.00    -0.268 C  
HETATM    2  O   UNL     1      -9.316  16.968  65.679  1.00  0.00    -0.523 OA 
ENDROOT
BRANCH   2   3
HETATM    3  C   UNL     1      -9.823  15.745  66.019  1.00  0.00    -0.337 A  
HETATM    4  C   UNL     1      -9.137  14.997  66.981  1.00  0.00    -0.230 A  
HETATM    5  C   UNL     1      -9.564  13.710  67.348  1.00  0.00    -0.226 A  
HETATM    6  S   UNL     1      -7.729  15.689  67.802  1.00  0.00    -0.156 S  
HETATM    7  O   UNL     1      -7.250  14.522  68.817  1.00  0.00    -0.112 OA 
HETATM    8  O   UNL     1      -8.183  16.795  68.618  1.00  0.00    -0.230 OA 
HETATM    9  C   UNL     1     -10.705  13.165  66.763  1.00  0.00    -0.274 A  
HETATM   10  O   UNL     1      -6.651  15.790  66.848  1.00  0.00    -0.276 OA 
HETATM   11  H   UNL     1     -12.904  13.895  64.416  1.00  0.00     0.000 HD 
HETATM   12  C   UNL     1     -11.368  13.892  65.767  1.00  0.00    -0.307 A  
HETATM   13  O   UNL     1     -12.454  13.402  65.092  1.00  0.00    -0.430 OA 
HETATM   14  C   UNL     1     -10.938  15.171  65.403  1.00  0.00    -0.381 A  
BRANCH   9  15
HETATM   15  C   UNL     1     -11.196  11.818  67.148  1.00  0.00    -0.316 C  
HETATM   16  O   UNL     1     -12.131  11.759  67.949  1.00  0.00    -0.592 OA 
BRANCH  15  17
HETATM   17  C   UNL     1     -10.583  10.561  66.646  1.00  0.00    -0.263 A  
HETATM   18  C   UNL     1     -10.875   9.366  67.315  1.00  0.00    -0.165 A  
HETATM   19  C   UNL     1     -10.262   8.175  66.923  1.00  0.00    -0.387 A  
HETATM   20  C   UNL     1      -9.358   8.171  65.863  1.00  0.00    -0.126 A  
HETATM   21  C   UNL     1      -9.067   9.357  65.188  1.00  0.00    -0.280 A  
HETATM   22  C   UNL     1      -9.668  10.553  65.584  1.00  0.00    -0.289 A  
ENDBRANCH  15  17
ENDBRANCH   9  15
ENDBRANCH   2   3
TORSDOF 3
ENDMDL
MODEL       59
REMARK 921   NORMALIZED FREE ENERGY PREDICTED BY IDOCK:   -5.30 KCAL/MOL
REMARK 922        TOTAL FREE ENERGY PREDICTED BY IDOCK:   -6.80 KCAL/MOL
REMARK 923 INTER-LIGAND FREE ENERGY PREDICTED BY IDOCK:   -6.18 KCAL/MOL
REMARK 924 INTRA-LIGAND FREE ENERGY PREDICTED BY IDOCK:   -0.61 KCAL/MOL
REMARK 927      BINDING AFFINITY PREDICTED BY RF-SCORE:    0.00 PKD
ROOT
HETATM    1  C   UNL     1      -9.622  10.761  62.644  1.00  0.00    -0.261 C  
HETATM    2  O   UNL     1     -10.459  10.775  63.797  1.00  0.00    -0.319 OA 
ENDROOT
BRANCH   2   3
HETATM    3  C   UNL     1     -10.548  11.960  64.473  1.00  0.00    -0.311 A  
HETATM    4  C   UNL     1      -9.975  12.031  65.747  1.00  0.00    -0.241 A  
HETATM    5  C   UNL     1     -10.067  13.195  66.526  1.00  0.00    -0.280 A  
HETATM    6  S   UNL     1      -9.065  10.652  66.386  1.00  0.00    -0.169 S  
HETATM    7  O   UNL     1      -8.579  11.144  67.850  1.00  0.00    -0.128 OA 
HETATM    8  O   UNL     1      -7.874  10.488  65.582  1.00  0.00    -0.154 OA 
HETATM    9  C   UNL     1     -10.724  14.316  66.023  1.00  0.00    -0.304 A  
HETATM   10  O   UNL     1      -9.996   9.584  66.665  1.00  0.00    -0.212 OA 
HETATM   11  H   UNL     1     -12.479  15.208  63.378  1.00  0.00     0.000 HD 
HETATM   12  C   UNL     1     -11.338  14.235  64.768  1.00  0.00    -0.382 A  
HETATM   13  O   UNL     1     -12.063  15.264  64.230  1.00  0.00    -0.497 OA 
HETATM   14  C   UNL     1     -11.246  13.072  63.997  1.00  0.00    -0.448 A  
BRANCH   9  15
HETATM   15  C   UNL     1     -10.816  15.570  66.813  1.00  0.00    -0.291 C  
HETATM   16  O   UNL     1     -11.692  15.639  67.676  1.00  0.00    -0.182 OA 
BRANCH  15  17
HETATM   17  C   UNL     1      -9.934  16.741  66.572  1.00  0.00    -0.308 A  
HETATM   18  C   UNL     1      -8.567  16.513  66.371  1.00  0.00    -0.347 A  
HETATM   19  C   UNL     1      -7.691  17.588  66.217  1.00  0.00    -0.334 A  
HETATM   20  C   UNL     1      -8.175  18.894  66.260  1.00  0.00    -0.283 A  
HETATM   21  C   UNL     1      -9.536  19.129  66.454  1.00  0.00    -0.402 A  
HETATM   22  C   UNL     1     -10.414  18.057  66.621  1.00  0.00    -0.332 A  
ENDBRANCH  15  17
ENDBRANCH   9  15
ENDBRANCH   2   3
TORSDOF 3
ENDMDL
MODEL       60
REMARK 921   NORMALIZED FREE ENERGY PREDICTED BY IDOCK:   -5.22 KCAL/MOL
REMARK 922        TOTAL FREE ENERGY PREDICTED BY IDOCK:   -6.70 KCAL/MOL
REMARK 923 INTER-LIGAND FREE ENERGY PREDICTED BY IDOCK:   -6.27 KCAL/MOL
REMARK 924 INTRA-LIGAND FREE ENERGY PREDICTED BY IDOCK:   -0.43 KCAL/MOL
REMARK 927      BINDING AFFINITY PREDICTED BY RF-SCORE:    0.00 PKD
ROOT
HETATM    1  C   UNL     1      -6.543  18.734  69.253  1.00  0.00    -0.273 C  
HETATM    2  O   UNL     1      -6.492  18.434  67.861  1.00  0.00    -0.195 OA 
ENDROOT
BRANCH   2   3
HETATM    3  C   UNL     1      -7.272  17.398  67.430  1.00  0.00    -0.168 A  
HETATM    4  C   UNL     1      -8.473  17.707  66.784  1.00  0.00    -0.251 A  
HETATM    5  C   UNL     1      -9.354  16.700  66.356  1.00  0.00    -0.309 A  
HETATM    6  S   UNL     1      -8.885  19.395  66.441  1.00  0.00    -0.357 S  
HETATM    7  O   UNL     1     -10.319  19.308  65.695  1.00  0.00    -0.489 OA 
HETATM    8  O   UNL     1      -7.937  19.900  65.470  1.00  0.00    -0.353 OA 
HETATM    9  C   UNL     1      -9.027  15.361  66.558  1.00  0.00    -0.344 A  
HETATM   10  O   UNL     1      -9.177  20.054  67.691  1.00  0.00    -0.330 OA 
HETATM   11  H   UNL     1      -6.686  13.551  68.013  1.00  0.00     0.000 HD 
HETATM   12  C   UNL     1      -7.848  15.048  67.244  1.00  0.00    -0.211 A  
HETATM   13  O   UNL     1      -7.486  13.763  67.547  1.00  0.00    -0.165 OA 
HETATM   14  C   UNL     1      -6.975  16.054  67.671  1.00  0.00    -0.179 A  
BRANCH   9  15
HETATM   15  C   UNL     1      -9.925  14.273  66.095  1.00  0.00    -0.314 C  
HETATM   16  O   UNL     1     -10.165  14.205  64.889  1.00  0.00    -0.412 OA 
BRANCH  15  17
HETATM   17  C   UNL     1     -10.568  13.308  67.024  1.00  0.00    -0.259 A  
HETATM   18  C   UNL     1     -10.582  11.953  66.670  1.00  0.00    -0.273 A  
HETATM   19  C   UNL     1     -11.241  11.024  67.475  1.00  0.00    -0.372 A  
HETATM   20  C   UNL     1     -11.886  11.441  68.638  1.00  0.00    -0.377 A  
HETATM   21  C   UNL     1     -11.871  12.788  69.000  1.00  0.00    -0.344 A  
HETATM   22  C   UNL     1     -11.224  13.724  68.191  1.00  0.00    -0.298 A  
ENDBRANCH  15  17
ENDBRANCH   9  15
ENDBRANCH   2   3
TORSDOF 3
ENDMDL
MODEL       61
REMARK 921   NORMALIZED FREE ENERGY PREDICTED BY IDOCK:   -5.17 KCAL/MOL
REMARK 922        TOTAL FREE ENERGY PREDICTED BY IDOCK:   -6.64 KCAL/MOL
REMARK 923 INTER-LIGAND FREE ENERGY PREDICTED BY IDOCK:   -6.08 KCAL/MOL
REMARK 924 INTRA-LIGAND FREE ENERGY PREDICTED BY IDOCK:   -0.55 KCAL/MOL
REMARK 927      BINDING AFFINITY PREDICTED BY RF-SCORE:    0.00 PKD
ROOT
HETATM    1  C   UNL     1     -13.311   9.319  72.297  1.00  0.00    -0.477 C  
HETATM    2  O   UNL     1     -11.962   9.568  71.911  1.00  0.00    -0.370 OA 
ENDROOT
BRANCH   2   3
HETATM    3  C   UNL     1     -11.777  10.247  70.740  1.00  0.00    -0.360 A  
HETATM    4  C   UNL     1     -11.069   9.606  69.717  1.00  0.00    -0.217 A  
HETATM    5  C   UNL     1     -10.793  10.254  68.502  1.00  0.00    -0.281 A  
HETATM    6  S   UNL     1     -10.545   7.926  69.921  1.00  0.00    -0.240 S  
HETATM    7  O   UNL     1      -9.784   7.579  68.535  1.00  0.00    -0.152 OA 
HETATM    8  O   UNL     1     -11.726   7.091  69.972  1.00  0.00    -0.233 OA 
HETATM    9  C   UNL     1     -11.246  11.555  68.291  1.00  0.00    -0.322 A  
HETATM   10  O   UNL     1      -9.499   7.894  70.915  1.00  0.00    -0.156 OA 
HETATM   11  H   UNL     1     -12.787  13.963  69.933  1.00  0.00     0.000 HD 
HETATM   12  C   UNL     1     -11.916  12.214  69.327  1.00  0.00    -0.262 A  
HETATM   13  O   UNL     1     -12.333  13.515  69.229  1.00  0.00    -0.260 OA 
HETATM   14  C   UNL     1     -12.186  11.567  70.537  1.00  0.00    -0.469 A  
BRANCH   9  15
HETATM   15  C   UNL     1     -10.993  12.256  67.008  1.00  0.00    -0.268 C  
HETATM   16  O   UNL     1     -11.509  11.791  65.991  1.00  0.00    -0.322 OA 
BRANCH  15  17
HETATM   17  C   UNL     1     -10.117  13.453  66.902  1.00  0.00    -0.255 A  
HETATM   18  C   UNL     1     -10.506  14.485  66.039  1.00  0.00    -0.315 A  
HETATM   19  C   UNL     1      -9.677  15.593  65.852  1.00  0.00    -0.388 A  
HETATM   20  C   UNL     1      -8.460  15.675  66.526  1.00  0.00    -0.311 A  
HETATM   21  C   UNL     1      -8.070  14.653  67.392  1.00  0.00    -0.216 A  
HETATM   22  C   UNL     1      -8.890  13.538  67.572  1.00  0.00    -0.209 A  
ENDBRANCH  15  17
ENDBRANCH   9  15
ENDBRANCH   2   3
TORSDOF 3
ENDMDL
MODEL       62
REMARK 921   NORMALIZED FREE ENERGY PREDICTED BY IDOCK:   -5.16 KCAL/MOL
REMARK 922        TOTAL FREE ENERGY PREDICTED BY IDOCK:   -6.62 KCAL/MOL
REMARK 923 INTER-LIGAND FREE ENERGY PREDICTED BY IDOCK:   -5.94 KCAL/MOL
REMARK 924 INTRA-LIGAND FREE ENERGY PREDICTED BY IDOCK:   -0.68 KCAL/MOL
REMARK 927      BINDING AFFINITY PREDICTED BY RF-SCORE:    0.00 PKD
ROOT
HETATM    1  C   UNL     1     -11.821  15.696  70.252  1.00  0.00    -0.365 C  
HETATM    2  O   UNL     1     -11.181  16.152  69.064  1.00  0.00    -0.317 OA 
ENDROOT
BRANCH   2   3
HETATM    3  C   UNL     1     -10.991  15.226  68.078  1.00  0.00    -0.299 A  
HETATM    4  C   UNL     1      -9.684  15.005  67.630  1.00  0.00    -0.215 A  
HETATM    5  C   UNL     1      -9.410  14.107  66.587  1.00  0.00    -0.299 A  
HETATM    6  S   UNL     1      -8.328  15.828  68.419  1.00  0.00    -0.172 S  
HETATM    7  O   UNL     1      -7.025  15.299  67.617  1.00  0.00    -0.152 OA 
HETATM    8  O   UNL     1      -8.221  15.323  69.771  1.00  0.00    -0.200 OA 
HETATM    9  C   UNL     1     -10.451  13.399  65.989  1.00  0.00    -0.294 A  
HETATM   10  O   UNL     1      -8.397  17.232  68.093  1.00  0.00    -0.218 OA 
HETATM   11  H   UNL     1     -13.742  13.223  66.102  1.00  0.00     0.000 HD 
HETATM   12  C   UNL     1     -11.764  13.650  66.403  1.00  0.00    -0.373 A  
HETATM   13  O   UNL     1     -12.850  13.052  65.822  1.00  0.00    -0.411 OA 
HETATM   14  C   UNL     1     -12.033  14.548  67.440  1.00  0.00    -0.367 A  
BRANCH   9  15
HETATM   15  C   UNL     1     -10.191  12.424  64.901  1.00  0.00    -0.278 C  
HETATM   16  O   UNL     1     -10.320  12.815  63.740  1.00  0.00    -0.402 OA 
BRANCH  15  17
HETATM   17  C   UNL     1      -9.829  11.005  65.158  1.00  0.00    -0.319 A  
HETATM   18  C   UNL     1     -10.350  10.384  66.300  1.00  0.00    -0.270 A  
HETATM   19  C   UNL     1      -9.977   9.078  66.620  1.00  0.00    -0.349 A  
HETATM   20  C   UNL     1      -9.085   8.387  65.802  1.00  0.00    -0.195 A  
HETATM   21  C   UNL     1      -8.567   8.998  64.660  1.00  0.00    -0.190 A  
HETATM   22  C   UNL     1      -8.927  10.308  64.343  1.00  0.00    -0.255 A  
ENDBRANCH  15  17
ENDBRANCH   9  15
ENDBRANCH   2   3
TORSDOF 3
ENDMDL
MODEL       63
REMARK 921   NORMALIZED FREE ENERGY PREDICTED BY IDOCK:   -5.12 KCAL/MOL
REMARK 922        TOTAL FREE ENERGY PREDICTED BY IDOCK:   -6.58 KCAL/MOL
REMARK 923 INTER-LIGAND FREE ENERGY PREDICTED BY IDOCK:   -5.96 KCAL/MOL
REMARK 924 INTRA-LIGAND FREE ENERGY PREDICTED BY IDOCK:   -0.63 KCAL/MOL
REMARK 927      BINDING AFFINITY PREDICTED BY RF-SCORE:    0.00 PKD
ROOT
HETATM    1  C   UNL     1     -12.346  13.339  65.078  1.00  0.00    -0.448 C  
HETATM    2  O   UNL     1     -11.551  13.478  66.253  1.00  0.00    -0.320 OA 
ENDROOT
BRANCH   2   3
HETATM    3  C   UNL     1     -10.624  14.482  66.248  1.00  0.00    -0.304 A  
HETATM    4  C   UNL     1      -9.328  14.178  66.678  1.00  0.00    -0.282 A  
HETATM    5  C   UNL     1      -8.330  15.163  66.751  1.00  0.00    -0.225 A  
HETATM    6  S   UNL     1      -8.903  12.509  67.096  1.00  0.00    -0.207 S  
HETATM    7  O   UNL     1      -7.345  12.595  67.527  1.00  0.00    -0.128 OA 
HETATM    8  O   UNL     1      -8.961  11.715  65.888  1.00  0.00    -0.192 OA 
HETATM    9  C   UNL     1      -8.620  16.472  66.370  1.00  0.00    -0.347 A  
HETATM   10  O   UNL     1      -9.587  12.158  68.317  1.00  0.00    -0.206 OA 
HETATM   11  H   UNL     1     -11.200  18.280  65.396  1.00  0.00     0.000 HD 
HETATM   12  C   UNL     1      -9.926  16.790  65.981  1.00  0.00    -0.313 A  
HETATM   13  O   UNL     1     -10.313  18.064  65.659  1.00  0.00    -0.611 OA 
HETATM   14  C   UNL     1     -10.917  15.806  65.913  1.00  0.00    -0.191 A  
BRANCH   9  15
HETATM   15  C   UNL     1      -7.581  17.531  66.410  1.00  0.00    -0.294 C  
HETATM   16  O   UNL     1      -7.044  17.846  65.347  1.00  0.00    -0.452 OA 
BRANCH  15  17
HETATM   17  C   UNL     1      -7.141  18.181  67.672  1.00  0.00    -0.202 A  
HETATM   18  C   UNL     1      -7.577  19.487  67.934  1.00  0.00    -0.324 A  
HETATM   19  C   UNL     1      -7.127  20.162  69.069  1.00  0.00    -0.162 A  
HETATM   20  C   UNL     1      -6.245  19.539  69.949  1.00  0.00    -0.328 A  
HETATM   21  C   UNL     1      -5.811  18.237  69.697  1.00  0.00    -0.247 A  
HETATM   22  C   UNL     1      -6.248  17.561  68.556  1.00  0.00    -0.176 A  
ENDBRANCH  15  17
ENDBRANCH   9  15
ENDBRANCH   2   3
TORSDOF 3
ENDMDL
MODEL       64
REMARK 921   NORMALIZED FREE ENERGY PREDICTED BY IDOCK:   -5.12 KCAL/MOL
REMARK 922        TOTAL FREE ENERGY PREDICTED BY IDOCK:   -6.58 KCAL/MOL
REMARK 923 INTER-LIGAND FREE ENERGY PREDICTED BY IDOCK:   -5.93 KCAL/MOL
REMARK 924 INTRA-LIGAND FREE ENERGY PREDICTED BY IDOCK:   -0.65 KCAL/MOL
REMARK 927      BINDING AFFINITY PREDICTED BY RF-SCORE:    0.00 PKD
ROOT
HETATM    1  C   UNL     1     -12.087   9.014  71.025  1.00  0.00    -0.251 C  
HETATM    2  O   UNL     1     -10.929   9.576  70.414  1.00  0.00    -0.239 OA 
ENDROOT
BRANCH   2   3
HETATM    3  C   UNL     1     -11.126  10.675  69.626  1.00  0.00    -0.284 A  
HETATM    4  C   UNL     1     -10.616  10.646  68.323  1.00  0.00    -0.194 A  
HETATM    5  C   UNL     1     -10.733  11.753  67.467  1.00  0.00    -0.262 A  
HETATM    6  S   UNL     1      -9.849   9.174  67.705  1.00  0.00    -0.184 S  
HETATM    7  O   UNL     1      -9.415   9.559  66.194  1.00  0.00    -0.184 OA 
HETATM    8  O   UNL     1     -10.864   8.147  67.602  1.00  0.00    -0.167 OA 
HETATM    9  C   UNL     1     -11.386  12.903  67.906  1.00  0.00    -0.336 A  
HETATM   10  O   UNL     1      -8.595   8.991  68.396  1.00  0.00    -0.128 OA 
HETATM   11  H   UNL     1     -12.769  14.100  70.650  1.00  0.00     0.000 HD 
HETATM   12  C   UNL     1     -11.858  12.952  69.222  1.00  0.00    -0.309 A  
HETATM   13  O   UNL     1     -12.449  14.067  69.756  1.00  0.00    -0.325 OA 
HETATM   14  C   UNL     1     -11.737  11.849  70.072  1.00  0.00    -0.366 A  
BRANCH   9  15
HETATM   15  C   UNL     1     -11.548  14.080  67.016  1.00  0.00    -0.371 C  
HETATM   16  O   UNL     1     -12.498  14.076  66.232  1.00  0.00    -0.465 OA 
BRANCH  15  17
HETATM   17  C   UNL     1     -10.597  15.222  67.008  1.00  0.00    -0.306 A  
HETATM   18  C   UNL     1      -9.447  15.122  66.216  1.00  0.00    -0.341 A  
HETATM   19  C   UNL     1      -8.491  16.139  66.236  1.00  0.00    -0.357 A  
HETATM   20  C   UNL     1      -8.680  17.258  67.043  1.00  0.00    -0.248 A  
HETATM   21  C   UNL     1      -9.826  17.367  67.831  1.00  0.00    -0.287 A  
HETATM   22  C   UNL     1     -10.779  16.347  67.823  1.00  0.00    -0.328 A  
ENDBRANCH  15  17
ENDBRANCH   9  15
ENDBRANCH   2   3
TORSDOF 3
ENDMDL
MODEL       65
REMARK 921   NORMALIZED FREE ENERGY PREDICTED BY IDOCK:   -5.08 KCAL/MOL
REMARK 922        TOTAL FREE ENERGY PREDICTED BY IDOCK:   -6.53 KCAL/MOL
REMARK 923 INTER-LIGAND FREE ENERGY PREDICTED BY IDOCK:   -6.29 KCAL/MOL
REMARK 924 INTRA-LIGAND FREE ENERGY PREDICTED BY IDOCK:   -0.24 KCAL/MOL
REMARK 927      BINDING AFFINITY PREDICTED BY RF-SCORE:    0.00 PKD
ROOT
HETATM    1  C   UNL     1      -8.282   7.234  70.531  1.00  0.00    -0.124 C  
HETATM    2  O   UNL     1      -9.543   7.751  70.947  1.00  0.00    -0.167 OA 
ENDROOT
BRANCH   2   3
HETATM    3  C   UNL     1      -9.930   8.938  70.390  1.00  0.00    -0.194 A  
HETATM    4  C   UNL     1     -11.277   9.302  70.495  1.00  0.00    -0.265 A  
HETATM    5  C   UNL     1     -11.765  10.479  69.907  1.00  0.00    -0.372 A  
HETATM    6  S   UNL     1     -12.395   8.295  71.430  1.00  0.00    -0.277 S  
HETATM    7  O   UNL     1     -13.816   9.060  71.303  1.00  0.00    -0.321 OA 
HETATM    8  O   UNL     1     -12.005   8.364  72.822  1.00  0.00    -0.367 OA 
HETATM    9  C   UNL     1     -10.895  11.322  69.217  1.00  0.00    -0.259 A  
HETATM   10  O   UNL     1     -12.597   7.057  70.717  1.00  0.00    -0.314 OA 
HETATM   11  H   UNL     1      -7.743  11.412  68.251  1.00  0.00     0.000 HD 
HETATM   12  C   UNL     1      -9.556  10.940  69.072  1.00  0.00    -0.156 A  
HETATM   13  O   UNL     1      -8.651  11.672  68.351  1.00  0.00    -0.153 OA 
HETATM   14  C   UNL     1      -9.076   9.764  69.656  1.00  0.00    -0.235 A  
BRANCH   9  15
HETATM   15  C   UNL     1     -11.375  12.587  68.607  1.00  0.00    -0.288 C  
HETATM   16  O   UNL     1     -11.643  13.521  69.363  1.00  0.00    -0.280 OA 
BRANCH  15  17
HETATM   17  C   UNL     1     -11.581  12.749  67.143  1.00  0.00    -0.426 A  
HETATM   18  C   UNL     1     -11.136  11.728  66.293  1.00  0.00    -0.364 A  
HETATM   19  C   UNL     1     -11.242  11.873  64.909  1.00  0.00    -0.350 A  
HETATM   20  C   UNL     1     -11.793  13.033  64.368  1.00  0.00    -0.443 A  
HETATM   21  C   UNL     1     -12.242  14.051  65.210  1.00  0.00    -0.451 A  
HETATM   22  C   UNL     1     -12.128  13.916  66.595  1.00  0.00    -0.485 A  
ENDBRANCH  15  17
ENDBRANCH   9  15
ENDBRANCH   2   3
TORSDOF 3
ENDMDL
MODEL       66
REMARK 921   NORMALIZED FREE ENERGY PREDICTED BY IDOCK:   -5.07 KCAL/MOL
REMARK 922        TOTAL FREE ENERGY PREDICTED BY IDOCK:   -6.53 KCAL/MOL
REMARK 923 INTER-LIGAND FREE ENERGY PREDICTED BY IDOCK:   -5.89 KCAL/MOL
REMARK 924 INTRA-LIGAND FREE ENERGY PREDICTED BY IDOCK:   -0.64 KCAL/MOL
REMARK 927      BINDING AFFINITY PREDICTED BY RF-SCORE:    0.00 PKD
ROOT
HETATM    1  C   UNL     1     -14.075  15.005  71.371  1.00  0.00    -0.487 C  
HETATM    2  O   UNL     1     -13.033  14.688  70.452  1.00  0.00    -0.323 OA 
ENDROOT
BRANCH   2   3
HETATM    3  C   UNL     1     -12.549  13.411  70.494  1.00  0.00    -0.211 A  
HETATM    4  C   UNL     1     -11.553  13.058  69.577  1.00  0.00    -0.276 A  
HETATM    5  C   UNL     1     -11.038  11.753  69.522  1.00  0.00    -0.199 A  
HETATM    6  S   UNL     1     -10.876  14.283  68.491  1.00  0.00    -0.261 S  
HETATM    7  O   UNL     1      -9.775  13.475  67.621  1.00  0.00    -0.218 OA 
HETATM    8  O   UNL     1     -10.152  15.245  69.293  1.00  0.00    -0.227 OA 
HETATM    9  C   UNL     1     -11.508  10.784  70.407  1.00  0.00    -0.397 A  
HETATM   10  O   UNL     1     -11.889  14.645  67.528  1.00  0.00    -0.380 OA 
HETATM   11  H   UNL     1     -13.802  10.442  72.751  1.00  0.00     0.000 HD 
HETATM   12  C   UNL     1     -12.536  11.121  71.295  1.00  0.00    -0.398 A  
HETATM   13  O   UNL     1     -13.104  10.213  72.149  1.00  0.00    -0.435 OA 
HETATM   14  C   UNL     1     -13.048  12.421  71.344  1.00  0.00    -0.299 A  
BRANCH   9  15
HETATM   15  C   UNL     1     -10.966   9.403  70.391  1.00  0.00    -0.266 C  
HETATM   16  O   UNL     1     -11.505   8.587  69.642  1.00  0.00     0.103 OA 
BRANCH  15  17
HETATM   17  C   UNL     1      -9.845   8.965  71.263  1.00  0.00    -0.361 A  
HETATM   18  C   UNL     1      -8.546   8.994  70.740  1.00  0.00    -0.259 A  
HETATM   19  C   UNL     1      -7.474   8.522  71.498  1.00  0.00    -0.123 A  
HETATM   20  C   UNL     1      -7.692   8.022  72.780  1.00  0.00    -0.169 A  
HETATM   21  C   UNL     1      -8.983   7.996  73.310  1.00  0.00    -0.338 A  
HETATM   22  C   UNL     1     -10.060   8.456  72.551  1.00  0.00    -0.362 A  
ENDBRANCH  15  17
ENDBRANCH   9  15
ENDBRANCH   2   3
TORSDOF 3
ENDMDL
MODEL       67
REMARK 921   NORMALIZED FREE ENERGY PREDICTED BY IDOCK:   -5.07 KCAL/MOL
REMARK 922        TOTAL FREE ENERGY PREDICTED BY IDOCK:   -6.52 KCAL/MOL
REMARK 923 INTER-LIGAND FREE ENERGY PREDICTED BY IDOCK:   -5.96 KCAL/MOL
REMARK 924 INTRA-LIGAND FREE ENERGY PREDICTED BY IDOCK:   -0.56 KCAL/MOL
REMARK 927      BINDING AFFINITY PREDICTED BY RF-SCORE:    0.00 PKD
ROOT
HETATM    1  C   UNL     1      -9.215  10.062  63.207  1.00  0.00    -0.284 C  
HETATM    2  O   UNL     1      -8.626  10.069  64.505  1.00  0.00    -0.161 OA 
ENDROOT
BRANCH   2   3
HETATM    3  C   UNL     1      -9.239  10.843  65.449  1.00  0.00    -0.207 A  
HETATM    4  C   UNL     1      -8.554  11.081  66.646  1.00  0.00    -0.157 A  
HETATM    5  C   UNL     1      -9.134  11.824  67.686  1.00  0.00    -0.177 A  
HETATM    6  S   UNL     1      -6.899  10.483  66.852  1.00  0.00    -0.097 S  
HETATM    7  O   UNL     1      -6.485  10.969  68.339  1.00  0.00    -0.056 OA 
HETATM    8  O   UNL     1      -6.045  11.197  65.926  1.00  0.00    -0.107 OA 
HETATM    9  C   UNL     1     -10.411  12.358  67.528  1.00  0.00    -0.229 A  
HETATM   10  O   UNL     1      -6.944   9.044  66.951  1.00  0.00    -0.076 OA 
HETATM   11  H   UNL     1     -12.882  12.326  65.344  1.00  0.00     0.000 HD 
HETATM   12  C   UNL     1     -11.118  12.086  66.351  1.00  0.00    -0.318 A  
HETATM   13  O   UNL     1     -12.402  12.512  66.143  1.00  0.00    -0.596 OA 
HETATM   14  C   UNL     1     -10.537  11.342  65.319  1.00  0.00    -0.336 A  
BRANCH   9  15
HETATM   15  C   UNL     1     -11.042  13.170  68.599  1.00  0.00    -0.269 C  
HETATM   16  O   UNL     1     -10.943  14.395  68.520  1.00  0.00    -0.235 OA 
BRANCH  15  17
HETATM   17  C   UNL     1     -11.738  12.566  69.765  1.00  0.00    -0.355 A  
HETATM   18  C   UNL     1     -11.770  11.170  69.869  1.00  0.00    -0.433 A  
HETATM   19  C   UNL     1     -12.476  10.559  70.907  1.00  0.00    -0.488 A  
HETATM   20  C   UNL     1     -13.150  11.339  71.845  1.00  0.00    -0.510 A  
HETATM   21  C   UNL     1     -13.117  12.730  71.750  1.00  0.00    -0.455 A  
HETATM   22  C   UNL     1     -12.423  13.345  70.707  1.00  0.00    -0.418 A  
ENDBRANCH  15  17
ENDBRANCH   9  15
ENDBRANCH   2   3
TORSDOF 3
ENDMDL
MODEL       68
REMARK 921   NORMALIZED FREE ENERGY PREDICTED BY IDOCK:   -5.06 KCAL/MOL
REMARK 922        TOTAL FREE ENERGY PREDICTED BY IDOCK:   -6.51 KCAL/MOL
REMARK 923 INTER-LIGAND FREE ENERGY PREDICTED BY IDOCK:   -6.16 KCAL/MOL
REMARK 924 INTRA-LIGAND FREE ENERGY PREDICTED BY IDOCK:   -0.35 KCAL/MOL
REMARK 927      BINDING AFFINITY PREDICTED BY RF-SCORE:    0.00 PKD
ROOT
HETATM    1  C   UNL     1     -10.893  11.239  69.276  1.00  0.00    -0.212 C  
HETATM    2  O   UNL     1     -10.972  11.300  67.854  1.00  0.00    -0.213 OA 
ENDROOT
BRANCH   2   3
HETATM    3  C   UNL     1     -11.000  12.547  67.296  1.00  0.00    -0.261 A  
HETATM    4  C   UNL     1     -10.375  12.724  66.057  1.00  0.00    -0.276 A  
HETATM    5  C   UNL     1     -10.317  13.984  65.441  1.00  0.00    -0.377 A  
HETATM    6  S   UNL     1      -9.684  11.332  65.208  1.00  0.00    -0.248 S  
HETATM    7  O   UNL     1      -9.080  11.962  63.844  1.00  0.00     0.195 OA 
HETATM    8  O   UNL     1     -10.769  10.457  64.821  1.00  0.00    -0.067 OA 
HETATM    9  C   UNL     1     -10.907  15.086  66.058  1.00  0.00    -0.334 A  
HETATM   10  O   UNL     1      -8.520  10.888  65.937  1.00  0.00    -0.162 OA 
HETATM   11  H   UNL     1     -12.430  15.853  68.880  1.00  0.00     0.000 HD 
HETATM   12  C   UNL     1     -11.493  14.922  67.318  1.00  0.00    -0.340 A  
HETATM   13  O   UNL     1     -12.032  15.964  68.025  1.00  0.00    -0.065 OA 
HETATM   14  C   UNL     1     -11.547  13.666  67.929  1.00  0.00    -0.376 A  
BRANCH   9  15
HETATM   15  C   UNL     1     -10.884  16.426  65.420  1.00  0.00    -0.239 C  
HETATM   16  O   UNL     1     -11.434  16.547  64.324  1.00  0.00    -1.000 OA 
BRANCH  15  17
HETATM   17  C   UNL     1     -10.195  17.596  66.025  1.00  0.00    -0.301 A  
HETATM   18  C   UNL     1      -9.122  17.359  66.894  1.00  0.00    -0.258 A  
HETATM   19  C   UNL     1      -8.495  18.424  67.542  1.00  0.00    -0.260 A  
HETATM   20  C   UNL     1      -8.934  19.729  67.324  1.00  0.00    -0.403 A  
HETATM   21  C   UNL     1      -9.998  19.972  66.455  1.00  0.00    -0.603 A  
HETATM   22  C   UNL     1     -10.636  18.909  65.814  1.00  0.00    -0.358 A  
ENDBRANCH  15  17
ENDBRANCH   9  15
ENDBRANCH   2   3
TORSDOF 3
ENDMDL
MODEL       69
REMARK 921   NORMALIZED FREE ENERGY PREDICTED BY IDOCK:   -5.05 KCAL/MOL
REMARK 922        TOTAL FREE ENERGY PREDICTED BY IDOCK:   -6.50 KCAL/MOL
REMARK 923 INTER-LIGAND FREE ENERGY PREDICTED BY IDOCK:   -5.84 KCAL/MOL
REMARK 924 INTRA-LIGAND FREE ENERGY PREDICTED BY IDOCK:   -0.66 KCAL/MOL
REMARK 927      BINDING AFFINITY PREDICTED BY RF-SCORE:    0.00 PKD
ROOT
HETATM    1  C   UNL     1      -7.560  15.603  68.063  1.00  0.00    -0.124 C  
HETATM    2  O   UNL     1      -8.004  14.763  67.001  1.00  0.00    -0.200 OA 
ENDROOT
BRANCH   2   3
HETATM    3  C   UNL     1      -8.594  13.584  67.361  1.00  0.00    -0.208 A  
HETATM    4  C   UNL     1      -9.949  13.410  67.059  1.00  0.00    -0.246 A  
HETATM    5  C   UNL     1     -10.640  12.249  67.439  1.00  0.00    -0.247 A  
HETATM    6  S   UNL     1     -10.814  14.647  66.132  1.00  0.00    -0.329 S  
HETATM    7  O   UNL     1     -12.318  14.062  66.001  1.00  0.00    -0.445 OA 
HETATM    8  O   UNL     1     -10.259  14.678  64.796  1.00  0.00    -0.367 OA 
HETATM    9  C   UNL     1      -9.969  11.232  68.116  1.00  0.00    -0.191 A  
HETATM   10  O   UNL     1     -10.962  15.817  66.964  1.00  0.00    -0.304 OA 
HETATM   11  H   UNL     1      -6.999  10.633  69.418  1.00  0.00     0.000 HD 
HETATM   12  C   UNL     1      -8.625  11.421  68.460  1.00  0.00    -0.150 A  
HETATM   13  O   UNL     1      -7.911  10.505  69.184  1.00  0.00    -0.117 OA 
HETATM   14  C   UNL     1      -7.941  12.580  68.081  1.00  0.00    -0.157 A  
BRANCH   9  15
HETATM   15  C   UNL     1     -10.665   9.982  68.509  1.00  0.00    -0.231 C  
HETATM   16  O   UNL     1     -10.731   9.078  67.675  1.00  0.00    -0.248 OA 
BRANCH  15  17
HETATM   17  C   UNL     1     -11.313   9.802  69.834  1.00  0.00    -0.238 A  
HETATM   18  C   UNL     1     -10.935   8.702  70.615  1.00  0.00    -0.274 A  
HETATM   19  C   UNL     1     -11.571   8.453  71.832  1.00  0.00    -0.395 A  
HETATM   20  C   UNL     1     -12.585   9.301  72.275  1.00  0.00    -0.402 A  
HETATM   21  C   UNL     1     -12.963  10.401  71.506  1.00  0.00    -0.562 A  
HETATM   22  C   UNL     1     -12.338  10.647  70.282  1.00  0.00    -0.406 A  
ENDBRANCH  15  17
ENDBRANCH   9  15
ENDBRANCH   2   3
TORSDOF 3
ENDMDL
MODEL       70
REMARK 921   NORMALIZED FREE ENERGY PREDICTED BY IDOCK:   -5.04 KCAL/MOL
REMARK 922        TOTAL FREE ENERGY PREDICTED BY IDOCK:   -6.49 KCAL/MOL
REMARK 923 INTER-LIGAND FREE ENERGY PREDICTED BY IDOCK:   -5.87 KCAL/MOL
REMARK 924 INTRA-LIGAND FREE ENERGY PREDICTED BY IDOCK:   -0.62 KCAL/MOL
REMARK 927      BINDING AFFINITY PREDICTED BY RF-SCORE:    0.00 PKD
ROOT
HETATM    1  C   UNL     1      -9.997   3.672  72.129  1.00  0.00    -0.168 C  
HETATM    2  O   UNL     1      -9.532   4.863  72.758  1.00  0.00    -0.134 OA 
ENDROOT
BRANCH   2   3
HETATM    3  C   UNL     1     -10.166   6.023  72.414  1.00  0.00    -0.189 A  
HETATM    4  C   UNL     1      -9.478   7.226  72.603  1.00  0.00    -0.150 A  
HETATM    5  C   UNL     1     -10.078   8.464  72.322  1.00  0.00    -0.382 A  
HETATM    6  S   UNL     1      -7.796   7.206  73.158  1.00  0.00    -0.098 S  
HETATM    7  O   UNL     1      -7.387   8.770  73.236  1.00  0.00    -0.359 OA 
HETATM    8  O   UNL     1      -6.986   6.612  72.116  1.00  0.00    -0.070 OA 
HETATM    9  C   UNL     1     -11.380   8.507  71.826  1.00  0.00    -0.377 A  
HETATM   10  O   UNL     1      -7.777   6.768  74.533  1.00  0.00    -0.111 OA 
HETATM   11  H   UNL     1     -13.872   6.452  71.164  1.00  0.00     0.000 HD 
HETATM   12  C   UNL     1     -12.088   7.309  71.678  1.00  0.00    -0.325 A  
HETATM   13  O   UNL     1     -13.392   7.265  71.264  1.00  0.00    -0.369 OA 
HETATM   14  C   UNL     1     -11.487   6.079  71.961  1.00  0.00    -0.343 A  
BRANCH   9  15
HETATM   15  C   UNL     1     -12.033   9.798  71.495  1.00  0.00    -0.407 C  
HETATM   16  O   UNL     1     -12.866  10.237  72.289  1.00  0.00    -0.349 OA 
BRANCH  15  17
HETATM   17  C   UNL     1     -11.754  10.546  70.241  1.00  0.00    -0.420 A  
HETATM   18  C   UNL     1     -12.071  11.909  70.196  1.00  0.00    -0.382 A  
HETATM   19  C   UNL     1     -11.895  12.631  69.015  1.00  0.00    -0.341 A  
HETATM   20  C   UNL     1     -11.402  11.998  67.876  1.00  0.00    -0.369 A  
HETATM   21  C   UNL     1     -11.079  10.641  67.915  1.00  0.00    -0.371 A  
HETATM   22  C   UNL     1     -11.265   9.911  69.091  1.00  0.00    -0.151 A  
ENDBRANCH  15  17
ENDBRANCH   9  15
ENDBRANCH   2   3
TORSDOF 3
ENDMDL
MODEL       71
REMARK 921   NORMALIZED FREE ENERGY PREDICTED BY IDOCK:   -5.03 KCAL/MOL
REMARK 922        TOTAL FREE ENERGY PREDICTED BY IDOCK:   -6.48 KCAL/MOL
REMARK 923 INTER-LIGAND FREE ENERGY PREDICTED BY IDOCK:   -6.39 KCAL/MOL
REMARK 924 INTRA-LIGAND FREE ENERGY PREDICTED BY IDOCK:   -0.09 KCAL/MOL
REMARK 927      BINDING AFFINITY PREDICTED BY RF-SCORE:    0.00 PKD
ROOT
HETATM    1  C   UNL     1     -12.819   8.266  72.030  1.00  0.00    -0.340 C  
HETATM    2  O   UNL     1     -11.589   8.896  71.684  1.00  0.00    -0.291 OA 
ENDROOT
BRANCH   2   3
HETATM    3  C   UNL     1     -11.678  10.103  71.050  1.00  0.00    -0.382 A  
HETATM    4  C   UNL     1     -10.802  10.350  69.987  1.00  0.00    -0.289 A  
HETATM    5  C   UNL     1     -10.795  11.583  69.316  1.00  0.00    -0.217 A  
HETATM    6  S   UNL     1      -9.707   9.074  69.428  1.00  0.00    -0.174 S  
HETATM    7  O   UNL     1      -8.894   9.759  68.208  1.00  0.00    -0.119 OA 
HETATM    8  O   UNL     1     -10.508   8.014  68.855  1.00  0.00    -0.217 OA 
HETATM    9  C   UNL     1     -11.689  12.584  69.694  1.00  0.00    -0.372 A  
HETATM   10  O   UNL     1      -8.704   8.859  70.444  1.00  0.00    -0.147 OA 
HETATM   11  H   UNL     1     -13.967  13.156  72.009  1.00  0.00     0.000 HD 
HETATM   12  C   UNL     1     -12.535  12.357  70.786  1.00  0.00    -0.267 A  
HETATM   13  O   UNL     1     -13.393  13.310  71.268  1.00  0.00    -0.216 OA 
HETATM   14  C   UNL     1     -12.536  11.129  71.453  1.00  0.00    -0.479 A  
BRANCH   9  15
HETATM   15  C   UNL     1     -11.724  13.888  68.988  1.00  0.00    -0.338 C  
HETATM   16  O   UNL     1     -11.950  14.896  69.660  1.00  0.00    -0.296 OA 
BRANCH  15  17
HETATM   17  C   UNL     1     -11.543  14.015  67.518  1.00  0.00    -0.397 A  
HETATM   18  C   UNL     1     -10.725  15.045  67.036  1.00  0.00    -0.304 A  
HETATM   19  C   UNL     1     -10.587  15.247  65.663  1.00  0.00    -0.377 A  
HETATM   20  C   UNL     1     -11.263  14.422  64.765  1.00  0.00    -0.391 A  
HETATM   21  C   UNL     1     -12.075  13.392  65.238  1.00  0.00    -0.446 A  
HETATM   22  C   UNL     1     -12.225  13.193  66.612  1.00  0.00    -0.331 A  
ENDBRANCH  15  17
ENDBRANCH   9  15
ENDBRANCH   2   3
TORSDOF 3
ENDMDL
MODEL       72
REMARK 921   NORMALIZED FREE ENERGY PREDICTED BY IDOCK:   -5.01 KCAL/MOL
REMARK 922        TOTAL FREE ENERGY PREDICTED BY IDOCK:   -6.45 KCAL/MOL
REMARK 923 INTER-LIGAND FREE ENERGY PREDICTED BY IDOCK:   -6.12 KCAL/MOL
REMARK 924 INTRA-LIGAND FREE ENERGY PREDICTED BY IDOCK:   -0.33 KCAL/MOL
REMARK 927      BINDING AFFINITY PREDICTED BY RF-SCORE:    0.00 PKD
ROOT
HETATM    1  C   UNL     1     -12.394  13.989  65.855  1.00  0.00    -0.486 C  
HETATM    2  O   UNL     1     -12.264  14.421  67.206  1.00  0.00    -0.383 OA 
ENDROOT
BRANCH   2   3
HETATM    3  C   UNL     1     -11.102  15.062  67.533  1.00  0.00    -0.317 A  
HETATM    4  C   UNL     1     -10.878  15.364  68.880  1.00  0.00    -0.251 A  
HETATM    5  C   UNL     1      -9.733  16.065  69.293  1.00  0.00    -0.257 A  
HETATM    6  S   UNL     1     -12.026  14.815  70.113  1.00  0.00    -0.333 S  
HETATM    7  O   UNL     1     -11.401  15.359  71.504  1.00  0.00    -0.377 OA 
HETATM    8  O   UNL     1     -11.971  13.370  70.166  1.00  0.00    -0.327 OA 
HETATM    9  C   UNL     1      -8.783  16.456  68.351  1.00  0.00    -0.213 A  
HETATM   10  O   UNL     1     -13.250  15.564  69.960  1.00  0.00    -0.045 OA 
HETATM   11  H   UNL     1      -8.343  16.429  65.083  1.00  0.00     0.000 HD 
HETATM   12  C   UNL     1      -9.025  16.195  66.997  1.00  0.00    -0.211 A  
HETATM   13  O   UNL     1      -8.179  16.605  66.002  1.00  0.00    -0.386 OA 
HETATM   14  C   UNL     1     -10.167  15.500  66.591  1.00  0.00    -0.280 A  
BRANCH   9  15
HETATM   15  C   UNL     1      -7.550  17.175  68.758  1.00  0.00    -0.259 C  
HETATM   16  O   UNL     1      -6.813  16.626  69.578  1.00  0.00    -0.231 OA 
BRANCH  15  17
HETATM   17  C   UNL     1      -7.202  18.529  68.254  1.00  0.00    -0.279 A  
HETATM   18  C   UNL     1      -8.245  19.422  67.974  1.00  0.00    -0.353 A  
HETATM   19  C   UNL     1      -7.967  20.676  67.429  1.00  0.00    -0.315 A  
HETATM   20  C   UNL     1      -6.650  21.045  67.163  1.00  0.00    -0.424 A  
HETATM   21  C   UNL     1      -5.607  20.163  67.445  1.00  0.00    -0.192 A  
HETATM   22  C   UNL     1      -5.880  18.903  67.979  1.00  0.00    -0.205 A  
ENDBRANCH  15  17
ENDBRANCH   9  15
ENDBRANCH   2   3
TORSDOF 3
ENDMDL
MODEL       73
REMARK 921   NORMALIZED FREE ENERGY PREDICTED BY IDOCK:   -4.97 KCAL/MOL
REMARK 922        TOTAL FREE ENERGY PREDICTED BY IDOCK:   -6.40 KCAL/MOL
REMARK 923 INTER-LIGAND FREE ENERGY PREDICTED BY IDOCK:   -6.88 KCAL/MOL
REMARK 924 INTRA-LIGAND FREE ENERGY PREDICTED BY IDOCK:    0.47 KCAL/MOL
REMARK 927      BINDING AFFINITY PREDICTED BY RF-SCORE:    0.00 PKD
ROOT
HETATM    1  C   UNL     1     -11.182  12.112  64.337  1.00  0.00    -0.341 C  
HETATM    2  O   UNL     1     -10.434  12.094  65.550  1.00  0.00    -0.248 OA 
ENDROOT
BRANCH   2   3
HETATM    3  C   UNL     1     -10.402  13.258  66.265  1.00  0.00    -0.290 A  
HETATM    4  C   UNL     1     -10.650  13.188  67.640  1.00  0.00    -0.228 A  
HETATM    5  C   UNL     1     -10.685  14.343  68.437  1.00  0.00    -0.250 A  
HETATM    6  S   UNL     1     -10.876  11.613  68.420  1.00  0.00    -0.235 S  
HETATM    7  O   UNL     1     -11.125  11.976  69.978  1.00  0.00     0.035 OA 
HETATM    8  O   UNL     1      -9.622  10.894  68.352  1.00  0.00    -0.163 OA 
HETATM    9  C   UNL     1     -10.450  15.590  67.861  1.00  0.00    -0.266 A  
HETATM   10  O   UNL     1     -12.137  11.065  67.980  1.00  0.00    -0.615 OA 
HETATM   11  H   UNL     1      -9.940  16.913  64.884  1.00  0.00     0.000 HD 
HETATM   12  C   UNL     1     -10.246  15.669  66.479  1.00  0.00    -0.283 A  
HETATM   13  O   UNL     1     -10.077  16.859  65.822  1.00  0.00    -0.502 OA 
HETATM   14  C   UNL     1     -10.215  14.516  65.689  1.00  0.00    -0.379 A  
BRANCH   9  15
HETATM   15  C   UNL     1     -10.454  16.827  68.681  1.00  0.00    -0.333 C  
HETATM   16  O   UNL     1     -10.977  16.772  69.795  1.00  0.00    -0.293 OA 
BRANCH  15  17
HETATM   17  C   UNL     1      -9.900  18.118  68.197  1.00  0.00    -0.350 A  
HETATM   18  C   UNL     1      -8.535  18.367  68.385  1.00  0.00    -0.345 A  
HETATM   19  C   UNL     1      -7.988  19.596  68.014  1.00  0.00    -0.339 A  
HETATM   20  C   UNL     1      -8.799  20.580  67.451  1.00  0.00    -0.393 A  
HETATM   21  C   UNL     1     -10.159  20.336  67.255  1.00  0.00    -0.545 A  
HETATM   22  C   UNL     1     -10.713  19.113  67.636  1.00  0.00    -0.514 A  
ENDBRANCH  15  17
ENDBRANCH   9  15
ENDBRANCH   2   3
TORSDOF 3
ENDMDL
MODEL       74
REMARK 921   NORMALIZED FREE ENERGY PREDICTED BY IDOCK:   -4.95 KCAL/MOL
REMARK 922        TOTAL FREE ENERGY PREDICTED BY IDOCK:   -6.38 KCAL/MOL
REMARK 923 INTER-LIGAND FREE ENERGY PREDICTED BY IDOCK:   -5.78 KCAL/MOL
REMARK 924 INTRA-LIGAND FREE ENERGY PREDICTED BY IDOCK:   -0.61 KCAL/MOL
REMARK 927      BINDING AFFINITY PREDICTED BY RF-SCORE:    0.00 PKD
ROOT
HETATM    1  C   UNL     1      -9.131   9.415  65.283  1.00  0.00    -0.232 C  
HETATM    2  O   UNL     1     -10.164  10.091  65.995  1.00  0.00    -0.252 OA 
ENDROOT
BRANCH   2   3
HETATM    3  C   UNL     1     -10.494   9.583  67.219  1.00  0.00    -0.262 A  
HETATM    4  C   UNL     1     -10.937  10.476  68.201  1.00  0.00    -0.277 A  
HETATM    5  C   UNL     1     -11.248  10.041  69.499  1.00  0.00    -0.254 A  
HETATM    6  S   UNL     1     -11.166  12.187  67.802  1.00  0.00    -0.297 S  
HETATM    7  O   UNL     1     -11.681  12.849  69.186  1.00  0.00    -0.290 OA 
HETATM    8  O   UNL     1     -12.259  12.286  66.858  1.00  0.00    -0.530 OA 
HETATM    9  C   UNL     1     -11.136   8.690  69.824  1.00  0.00    -0.073 A  
HETATM   10  O   UNL     1      -9.868  12.781  67.588  1.00  0.00    -0.205 OA 
HETATM   11  H   UNL     1     -10.114   5.868  68.459  1.00  0.00     0.000 HD 
HETATM   12  C   UNL     1     -10.651   7.801  68.858  1.00  0.00    -0.150 A  
HETATM   13  O   UNL     1     -10.443   6.471  69.114  1.00  0.00    -0.187 OA 
HETATM   14  C   UNL     1     -10.339   8.239  67.568  1.00  0.00    -0.333 A  
BRANCH   9  15
HETATM   15  C   UNL     1     -11.482   8.196  71.179  1.00  0.00    -0.276 C  
HETATM   16  O   UNL     1     -12.676   8.081  71.458  1.00  0.00    -0.308 OA 
BRANCH  15  17
HETATM   17  C   UNL     1     -10.458   7.881  72.209  1.00  0.00    -0.322 A  
HETATM   18  C   UNL     1     -10.820   7.046  73.273  1.00  0.00    -0.345 A  
HETATM   19  C   UNL     1      -9.913   6.785  74.301  1.00  0.00    -0.354 A  
HETATM   20  C   UNL     1      -8.641   7.354  74.271  1.00  0.00    -0.258 A  
HETATM   21  C   UNL     1      -8.272   8.183  73.211  1.00  0.00    -0.259 A  
HETATM   22  C   UNL     1      -9.180   8.456  72.187  1.00  0.00    -0.313 A  
ENDBRANCH  15  17
ENDBRANCH   9  15
ENDBRANCH   2   3
TORSDOF 3
ENDMDL
MODEL       75
REMARK 921   NORMALIZED FREE ENERGY PREDICTED BY IDOCK:   -4.95 KCAL/MOL
REMARK 922        TOTAL FREE ENERGY PREDICTED BY IDOCK:   -6.38 KCAL/MOL
REMARK 923 INTER-LIGAND FREE ENERGY PREDICTED BY IDOCK:   -6.02 KCAL/MOL
REMARK 924 INTRA-LIGAND FREE ENERGY PREDICTED BY IDOCK:   -0.36 KCAL/MOL
REMARK 927      BINDING AFFINITY PREDICTED BY RF-SCORE:    0.00 PKD
ROOT
HETATM    1  C   UNL     1      -8.684   7.043  65.937  1.00  0.00    -0.126 C  
HETATM    2  O   UNL     1      -8.182   8.348  65.663  1.00  0.00    -0.116 OA 
ENDROOT
BRANCH   2   3
HETATM    3  C   UNL     1      -9.064   9.383  65.796  1.00  0.00    -0.200 A  
HETATM    4  C   UNL     1      -9.130  10.324  64.763  1.00  0.00    -0.219 A  
HETATM    5  C   UNL     1      -9.974  11.443  64.845  1.00  0.00    -0.311 A  
HETATM    6  S   UNL     1      -8.177  10.088  63.289  1.00  0.00    -0.173 S  
HETATM    7  O   UNL     1      -8.543  11.371  62.372  1.00  0.00    -0.290 OA 
HETATM    8  O   UNL     1      -8.691   8.922  62.603  1.00  0.00    -0.210 OA 
HETATM    9  C   UNL     1     -10.782  11.621  65.967  1.00  0.00    -0.328 A  
HETATM   10  O   UNL     1      -6.783  10.274  63.615  1.00  0.00    -0.133 OA 
HETATM   11  H   UNL     1     -11.324  10.225  68.905  1.00  0.00     0.000 HD 
HETATM   12  C   UNL     1     -10.686  10.707  67.022  1.00  0.00    -0.259 A  
HETATM   13  O   UNL     1     -11.390  10.845  68.189  1.00  0.00    -0.282 OA 
HETATM   14  C   UNL     1      -9.842   9.595  66.937  1.00  0.00    -0.257 A  
BRANCH   9  15
HETATM   15  C   UNL     1     -11.703  12.780  66.073  1.00  0.00    -0.418 C  
HETATM   16  O   UNL     1     -12.700  12.785  65.350  1.00  0.00    -0.621 OA 
BRANCH  15  17
HETATM   17  C   UNL     1     -11.447  13.935  66.973  1.00  0.00    -0.367 A  
HETATM   18  C   UNL     1     -12.003  13.912  68.258  1.00  0.00    -0.392 A  
HETATM   19  C   UNL     1     -11.851  15.008  69.108  1.00  0.00    -0.338 A  
HETATM   20  C   UNL     1     -11.141  16.129  68.681  1.00  0.00    -0.356 A  
HETATM   21  C   UNL     1     -10.579  16.156  67.405  1.00  0.00    -0.311 A  
HETATM   22  C   UNL     1     -10.739  15.067  66.546  1.00  0.00    -0.312 A  
ENDBRANCH  15  17
ENDBRANCH   9  15
ENDBRANCH   2   3
TORSDOF 3
ENDMDL
MODEL       76
REMARK 921   NORMALIZED FREE ENERGY PREDICTED BY IDOCK:   -4.92 KCAL/MOL
REMARK 922        TOTAL FREE ENERGY PREDICTED BY IDOCK:   -6.35 KCAL/MOL
REMARK 923 INTER-LIGAND FREE ENERGY PREDICTED BY IDOCK:   -5.70 KCAL/MOL
REMARK 924 INTRA-LIGAND FREE ENERGY PREDICTED BY IDOCK:   -0.65 KCAL/MOL
REMARK 927      BINDING AFFINITY PREDICTED BY RF-SCORE:    0.00 PKD
ROOT
HETATM    1  C   UNL     1      -9.096  10.985  62.549  1.00  0.00    -0.323 C  
HETATM    2  O   UNL     1     -10.340  11.313  63.163  1.00  0.00    -0.342 OA 
ENDROOT
BRANCH   2   3
HETATM    3  C   UNL     1     -10.310  11.564  64.506  1.00  0.00    -0.302 A  
HETATM    4  C   UNL     1     -11.331  12.353  65.047  1.00  0.00    -0.320 A  
HETATM    5  C   UNL     1     -11.345  12.699  66.407  1.00  0.00    -0.381 A  
HETATM    6  S   UNL     1     -12.670  12.893  64.021  1.00  0.00    -0.072 S  
HETATM    7  O   UNL     1     -13.611  13.753  65.019  1.00  0.00    -0.120 OA 
HETATM    8  O   UNL     1     -13.433  11.727  63.627  1.00  0.00    -0.425 OA 
HETATM    9  C   UNL     1     -10.337  12.236  67.251  1.00  0.00    -0.228 A  
HETATM   10  O   UNL     1     -12.162  13.869  63.087  1.00  0.00    -0.577 OA 
HETATM   11  H   UNL     1      -7.514  10.542  67.078  1.00  0.00     0.000 HD 
HETATM   12  C   UNL     1      -9.290  11.485  66.706  1.00  0.00    -0.181 A  
HETATM   13  O   UNL     1      -8.224  11.051  67.449  1.00  0.00    -0.119 OA 
HETATM   14  C   UNL     1      -9.278  11.146  65.350  1.00  0.00    -0.225 A  
BRANCH   9  15
HETATM   15  C   UNL     1     -10.338  12.563  68.699  1.00  0.00    -0.177 C  
HETATM   16  O   UNL     1      -9.546  13.421  69.092  1.00  0.00     0.216 OA 
BRANCH  15  17
HETATM   17  C   UNL     1     -11.214  11.873  69.681  1.00  0.00    -0.184 A  
HETATM   18  C   UNL     1     -11.134  10.479  69.778  1.00  0.00    -0.354 A  
HETATM   19  C   UNL     1     -11.991   9.784  70.633  1.00  0.00    -0.340 A  
HETATM   20  C   UNL     1     -12.929  10.478  71.396  1.00  0.00    -0.542 A  
HETATM   21  C   UNL     1     -13.010  11.868  71.308  1.00  0.00    -0.334 A  
HETATM   22  C   UNL     1     -12.163  12.566  70.446  1.00  0.00    -0.368 A  
ENDBRANCH  15  17
ENDBRANCH   9  15
ENDBRANCH   2   3
TORSDOF 3
ENDMDL
MODEL       77
REMARK 921   NORMALIZED FREE ENERGY PREDICTED BY IDOCK:   -4.92 KCAL/MOL
REMARK 922        TOTAL FREE ENERGY PREDICTED BY IDOCK:   -6.35 KCAL/MOL
REMARK 923 INTER-LIGAND FREE ENERGY PREDICTED BY IDOCK:   -5.73 KCAL/MOL
REMARK 924 INTRA-LIGAND FREE ENERGY PREDICTED BY IDOCK:   -0.62 KCAL/MOL
REMARK 927      BINDING AFFINITY PREDICTED BY RF-SCORE:    0.00 PKD
ROOT
HETATM    1  C   UNL     1     -10.149  17.596  68.933  1.00  0.00    -0.351 C  
HETATM    2  O   UNL     1     -11.195  16.745  69.394  1.00  0.00    -0.182 OA 
ENDROOT
BRANCH   2   3
HETATM    3  C   UNL     1     -11.137  15.437  69.001  1.00  0.00    -0.268 A  
HETATM    4  C   UNL     1     -11.650  14.469  69.871  1.00  0.00    -0.287 A  
HETATM    5  C   UNL     1     -11.582  13.100  69.564  1.00  0.00    -0.347 A  
HETATM    6  S   UNL     1     -12.452  14.962  71.371  1.00  0.00    -0.368 S  
HETATM    7  O   UNL     1     -12.892  13.566  72.062  1.00  0.00    -0.304 OA 
HETATM    8  O   UNL     1     -13.671  15.659  71.021  1.00  0.00    -0.582 OA 
HETATM    9  C   UNL     1     -11.012  12.687  68.361  1.00  0.00    -0.284 A  
HETATM   10  O   UNL     1     -11.453  15.498  72.265  1.00  0.00    -0.433 OA 
HETATM   11  H   UNL     1      -9.439  13.977  65.766  1.00  0.00     0.000 HD 
HETATM   12  C   UNL     1     -10.457  13.649  67.510  1.00  0.00    -0.241 A  
HETATM   13  O   UNL     1      -9.816  13.324  66.344  1.00  0.00    -0.269 OA 
HETATM   14  C   UNL     1     -10.524  15.010  67.821  1.00  0.00    -0.249 A  
BRANCH   9  15
HETATM   15  C   UNL     1     -10.949  11.249  67.996  1.00  0.00    -0.247 C  
HETATM   16  O   UNL     1     -11.902  10.775  67.377  1.00  0.00    -0.382 OA 
BRANCH  15  17
HETATM   17  C   UNL     1      -9.816  10.368  68.383  1.00  0.00    -0.173 A  
HETATM   18  C   UNL     1      -9.596  10.129  69.745  1.00  0.00    -0.213 A  
HETATM   19  C   UNL     1      -8.500   9.369  70.156  1.00  0.00    -0.224 A  
HETATM   20  C   UNL     1      -7.622   8.842  69.210  1.00  0.00    -0.082 A  
HETATM   21  C   UNL     1      -7.839   9.072  67.852  1.00  0.00    -0.101 A  
HETATM   22  C   UNL     1      -8.927   9.841  67.436  1.00  0.00    -0.144 A  
ENDBRANCH  15  17
ENDBRANCH   9  15
ENDBRANCH   2   3
TORSDOF 3
ENDMDL
MODEL       78
REMARK 921   NORMALIZED FREE ENERGY PREDICTED BY IDOCK:   -4.92 KCAL/MOL
REMARK 922        TOTAL FREE ENERGY PREDICTED BY IDOCK:   -6.34 KCAL/MOL
REMARK 923 INTER-LIGAND FREE ENERGY PREDICTED BY IDOCK:   -5.75 KCAL/MOL
REMARK 924 INTRA-LIGAND FREE ENERGY PREDICTED BY IDOCK:   -0.60 KCAL/MOL
REMARK 927      BINDING AFFINITY PREDICTED BY RF-SCORE:    0.00 PKD
ROOT
HETATM    1  C   UNL     1      -9.030  15.254  67.486  1.00  0.00    -0.185 C  
HETATM    2  O   UNL     1      -9.583  14.493  66.416  1.00  0.00    -0.276 OA 
ENDROOT
BRANCH   2   3
HETATM    3  C   UNL     1      -9.633  13.138  66.591  1.00  0.00    -0.260 A  
HETATM    4  C   UNL     1     -10.757  12.457  66.112  1.00  0.00    -0.260 A  
HETATM    5  C   UNL     1     -10.907  11.073  66.297  1.00  0.00    -0.234 A  
HETATM    6  S   UNL     1     -12.002  13.332  65.205  1.00  0.00    -0.415 S  
HETATM    7  O   UNL     1     -13.096  12.196  64.840  1.00  0.00    -0.507 OA 
HETATM    8  O   UNL     1     -11.422  13.772  63.955  1.00  0.00    -0.283 OA 
HETATM    9  C   UNL     1      -9.914  10.349  66.953  1.00  0.00    -0.254 A  
HETATM   10  O   UNL     1     -12.696  14.209  66.118  1.00  0.00    -0.442 OA 
HETATM   11  H   UNL     1      -7.074  10.876  68.544  1.00  0.00     0.000 HD 
HETATM   12  C   UNL     1      -8.809  11.034  67.473  1.00  0.00    -0.131 A  
HETATM   13  O   UNL     1      -7.823  10.411  68.191  1.00  0.00    -0.104 OA 
HETATM   14  C   UNL     1      -8.665  12.412  67.289  1.00  0.00    -0.191 A  
BRANCH   9  15
HETATM   15  C   UNL     1     -10.032   8.882  67.142  1.00  0.00    -0.226 C  
HETATM   16  O   UNL     1      -9.748   8.158  66.186  1.00  0.00    -0.187 OA 
BRANCH  15  17
HETATM   17  C   UNL     1     -10.514   8.267  68.406  1.00  0.00    -0.206 A  
HETATM   18  C   UNL     1     -10.690   6.878  68.444  1.00  0.00    -0.259 A  
HETATM   19  C   UNL     1     -11.212   6.268  69.585  1.00  0.00    -0.506 A  
HETATM   20  C   UNL     1     -11.557   7.039  70.693  1.00  0.00    -0.379 A  
HETATM   21  C   UNL     1     -11.378   8.423  70.664  1.00  0.00    -0.262 A  
HETATM   22  C   UNL     1     -10.869   9.039  69.520  1.00  0.00    -0.177 A  
ENDBRANCH  15  17
ENDBRANCH   9  15
ENDBRANCH   2   3
TORSDOF 3
ENDMDL
MODEL       79
REMARK 921   NORMALIZED FREE ENERGY PREDICTED BY IDOCK:   -4.91 KCAL/MOL
REMARK 922        TOTAL FREE ENERGY PREDICTED BY IDOCK:   -6.34 KCAL/MOL
REMARK 923 INTER-LIGAND FREE ENERGY PREDICTED BY IDOCK:   -5.67 KCAL/MOL
REMARK 924 INTRA-LIGAND FREE ENERGY PREDICTED BY IDOCK:   -0.67 KCAL/MOL
REMARK 927      BINDING AFFINITY PREDICTED BY RF-SCORE:    0.00 PKD
ROOT
HETATM    1  C   UNL     1     -10.328   5.038  69.702  1.00  0.00    -0.190 C  
HETATM    2  O   UNL     1     -10.288   6.180  70.553  1.00  0.00    -0.196 OA 
ENDROOT
BRANCH   2   3
HETATM    3  C   UNL     1     -10.073   7.386  69.946  1.00  0.00    -0.195 A  
HETATM    4  C   UNL     1     -10.861   8.470  70.347  1.00  0.00    -0.234 A  
HETATM    5  C   UNL     1     -10.737   9.729  69.739  1.00  0.00    -0.283 A  
HETATM    6  S   UNL     1     -12.008   8.284  71.684  1.00  0.00    -0.321 S  
HETATM    7  O   UNL     1     -12.692   9.745  71.824  1.00  0.00    -0.370 OA 
HETATM    8  O   UNL     1     -11.251   8.059  72.897  1.00  0.00    -0.401 OA 
HETATM    9  C   UNL     1      -9.799   9.921  68.725  1.00  0.00    -0.177 A  
HETATM   10  O   UNL     1     -13.085   7.431  71.243  1.00  0.00    -0.349 OA 
HETATM   11  H   UNL     1      -7.635   8.169  66.959  1.00  0.00     0.000 HD 
HETATM   12  C   UNL     1      -9.041   8.828  68.290  1.00  0.00    -0.141 A  
HETATM   13  O   UNL     1      -8.149   8.911  67.255  1.00  0.00    -0.103 OA 
HETATM   14  C   UNL     1      -9.170   7.575  68.897  1.00  0.00    -0.142 A  
BRANCH   9  15
HETATM   15  C   UNL     1      -9.627  11.246  68.080  1.00  0.00    -0.186 C  
HETATM   16  O   UNL     1      -8.804  12.019  68.573  1.00  0.00    -0.166 OA 
BRANCH  15  17
HETATM   17  C   UNL     1     -10.428  11.683  66.907  1.00  0.00    -0.262 A  
HETATM   18  C   UNL     1     -11.403  12.671  67.100  1.00  0.00    -0.373 A  
HETATM   19  C   UNL     1     -12.229  13.057  66.044  1.00  0.00    -0.463 A  
HETATM   20  C   UNL     1     -12.085  12.462  64.792  1.00  0.00    -0.483 A  
HETATM   21  C   UNL     1     -11.112  11.482  64.591  1.00  0.00    -0.317 A  
HETATM   22  C   UNL     1     -10.292  11.084  65.648  1.00  0.00    -0.311 A  
ENDBRANCH  15  17
ENDBRANCH   9  15
ENDBRANCH   2   3
TORSDOF 3
ENDMDL
MODEL       80
REMARK 921   NORMALIZED FREE ENERGY PREDICTED BY IDOCK:   -4.89 KCAL/MOL
REMARK 922        TOTAL FREE ENERGY PREDICTED BY IDOCK:   -6.31 KCAL/MOL
REMARK 923 INTER-LIGAND FREE ENERGY PREDICTED BY IDOCK:   -5.91 KCAL/MOL
REMARK 924 INTRA-LIGAND FREE ENERGY PREDICTED BY IDOCK:   -0.40 KCAL/MOL
REMARK 927      BINDING AFFINITY PREDICTED BY RF-SCORE:    0.00 PKD
ROOT
HETATM    1  C   UNL     1     -11.477  13.401  67.442  1.00  0.00    -0.333 C  
HETATM    2  O   UNL     1     -10.524  12.726  68.259  1.00  0.00    -0.228 OA 
ENDROOT
BRANCH   2   3
HETATM    3  C   UNL     1     -11.015  11.791  69.125  1.00  0.00    -0.209 A  
HETATM    4  C   UNL     1     -10.757  10.444  68.849  1.00  0.00    -0.224 A  
HETATM    5  C   UNL     1     -11.268   9.419  69.662  1.00  0.00    -0.100 A  
HETATM    6  S   UNL     1      -9.723  10.003  67.480  1.00  0.00    -0.164 S  
HETATM    7  O   UNL     1      -9.681   8.385  67.521  1.00  0.00    -0.148 OA 
HETATM    8  O   UNL     1      -8.381  10.464  67.764  1.00  0.00    -0.113 OA 
HETATM    9  C   UNL     1     -12.034   9.739  70.782  1.00  0.00    -0.382 A  
HETATM   10  O   UNL     1     -10.431  10.307  66.260  1.00  0.00    -0.215 OA 
HETATM   11  H   UNL     1     -13.337  12.392  72.244  1.00  0.00     0.000 HD 
HETATM   12  C   UNL     1     -12.332  11.083  71.036  1.00  0.00    -0.385 A  
HETATM   13  O   UNL     1     -13.135  11.480  72.072  1.00  0.00    -0.486 OA 
HETATM   14  C   UNL     1     -11.823  12.100  70.222  1.00  0.00    -0.339 A  
BRANCH   9  15
HETATM   15  C   UNL     1     -12.567   8.681  71.674  1.00  0.00    -0.338 C  
HETATM   16  O   UNL     1     -13.773   8.699  71.925  1.00  0.00    -0.377 OA 
BRANCH  15  17
HETATM   17  C   UNL     1     -11.706   7.644  72.301  1.00  0.00    -0.371 A  
HETATM   18  C   UNL     1     -12.119   6.308  72.234  1.00  0.00    -0.255 A  
HETATM   19  C   UNL     1     -11.380   5.312  72.874  1.00  0.00    -0.368 A  
HETATM   20  C   UNL     1     -10.225   5.644  73.579  1.00  0.00    -0.227 A  
HETATM   21  C   UNL     1      -9.805   6.973  73.645  1.00  0.00    -0.318 A  
HETATM   22  C   UNL     1     -10.548   7.974  73.018  1.00  0.00    -0.332 A  
ENDBRANCH  15  17
ENDBRANCH   9  15
ENDBRANCH   2   3
TORSDOF 3
ENDMDL
MODEL       81
REMARK 921   NORMALIZED FREE ENERGY PREDICTED BY IDOCK:   -4.89 KCAL/MOL
REMARK 922        TOTAL FREE ENERGY PREDICTED BY IDOCK:   -6.31 KCAL/MOL
REMARK 923 INTER-LIGAND FREE ENERGY PREDICTED BY IDOCK:   -5.66 KCAL/MOL
REMARK 924 INTRA-LIGAND FREE ENERGY PREDICTED BY IDOCK:   -0.64 KCAL/MOL
REMARK 927      BINDING AFFINITY PREDICTED BY RF-SCORE:    0.00 PKD
ROOT
HETATM    1  C   UNL     1      -9.843   6.924  68.716  1.00  0.00    -0.149 C  
HETATM    2  O   UNL     1      -9.018   7.978  68.227  1.00  0.00    -0.133 OA 
ENDROOT
BRANCH   2   3
HETATM    3  C   UNL     1      -9.660   9.095  67.773  1.00  0.00    -0.146 A  
HETATM    4  C   UNL     1      -9.197   9.681  66.590  1.00  0.00    -0.151 A  
HETATM    5  C   UNL     1      -9.769  10.859  66.084  1.00  0.00    -0.252 A  
HETATM    6  S   UNL     1      -7.897   8.907  65.669  1.00  0.00    -0.099 S  
HETATM    7  O   UNL     1      -7.677   9.885  64.398  1.00  0.00    -0.132 OA 
HETATM    8  O   UNL     1      -8.400   7.652  65.150  1.00  0.00    -0.138 OA 
HETATM    9  C   UNL     1     -10.834  11.457  66.756  1.00  0.00    -0.336 A  
HETATM   10  O   UNL     1      -6.672   9.027  66.422  1.00  0.00    -0.072 OA 
HETATM   11  H   UNL     1     -12.558  11.083  69.542  1.00  0.00     0.000 HD 
HETATM   12  C   UNL     1     -11.271  10.899  67.963  1.00  0.00    -0.314 A  
HETATM   13  O   UNL     1     -12.262  11.461  68.722  1.00  0.00    -0.502 OA 
HETATM   14  C   UNL     1     -10.696   9.728  68.465  1.00  0.00    -0.252 A  
BRANCH   9  15
HETATM   15  C   UNL     1     -11.477  12.688  66.233  1.00  0.00    -0.364 C  
HETATM   16  O   UNL     1     -12.445  12.553  65.483  1.00  0.00    -0.646 OA 
BRANCH  15  17
HETATM   17  C   UNL     1     -10.977  14.053  66.542  1.00  0.00    -0.306 A  
HETATM   18  C   UNL     1     -11.238  14.585  67.811  1.00  0.00    -0.312 A  
HETATM   19  C   UNL     1     -10.852  15.890  68.118  1.00  0.00    -0.317 A  
HETATM   20  C   UNL     1     -10.203  16.669  67.162  1.00  0.00    -0.290 A  
HETATM   21  C   UNL     1      -9.935  16.143  65.898  1.00  0.00    -0.384 A  
HETATM   22  C   UNL     1     -10.329  14.842  65.582  1.00  0.00    -0.370 A  
ENDBRANCH  15  17
ENDBRANCH   9  15
ENDBRANCH   2   3
TORSDOF 3
ENDMDL
MODEL       82
REMARK 921   NORMALIZED FREE ENERGY PREDICTED BY IDOCK:   -4.88 KCAL/MOL
REMARK 922        TOTAL FREE ENERGY PREDICTED BY IDOCK:   -6.29 KCAL/MOL
REMARK 923 INTER-LIGAND FREE ENERGY PREDICTED BY IDOCK:   -5.65 KCAL/MOL
REMARK 924 INTRA-LIGAND FREE ENERGY PREDICTED BY IDOCK:   -0.64 KCAL/MOL
REMARK 927      BINDING AFFINITY PREDICTED BY RF-SCORE:    0.00 PKD
ROOT
HETATM    1  C   UNL     1     -12.779  12.500  64.345  1.00  0.00    -0.358 C  
HETATM    2  O   UNL     1     -12.235  12.037  65.578  1.00  0.00    -0.483 OA 
ENDROOT
BRANCH   2   3
HETATM    3  C   UNL     1     -11.454  12.919  66.270  1.00  0.00    -0.348 A  
HETATM    4  C   UNL     1     -10.100  12.606  66.431  1.00  0.00    -0.253 A  
HETATM    5  C   UNL     1      -9.241  13.434  67.172  1.00  0.00    -0.240 A  
HETATM    6  S   UNL     1      -9.424  11.169  65.648  1.00  0.00    -0.230 S  
HETATM    7  O   UNL     1      -7.863  11.183  66.076  1.00  0.00    -0.123 OA 
HETATM    8  O   UNL     1      -9.468  11.374  64.216  1.00  0.00    -0.210 OA 
HETATM    9  C   UNL     1      -9.732  14.605  67.748  1.00  0.00    -0.215 A  
HETATM   10  O   UNL     1      -9.959  10.000  66.305  1.00  0.00    -0.218 OA 
HETATM   11  H   UNL     1     -12.599  16.186  68.139  1.00  0.00     0.000 HD 
HETATM   12  C   UNL     1     -11.096  14.897  67.627  1.00  0.00    -0.311 A  
HETATM   13  O   UNL     1     -11.674  15.988  68.221  1.00  0.00    -0.303 OA 
HETATM   14  C   UNL     1     -11.947  14.069  66.891  1.00  0.00    -0.479 A  
BRANCH   9  15
HETATM   15  C   UNL     1      -8.845  15.513  68.515  1.00  0.00    -0.186 C  
HETATM   16  O   UNL     1      -8.779  15.353  69.735  1.00  0.00    -0.220 OA 
BRANCH  15  17
HETATM   17  C   UNL     1      -8.079  16.619  67.881  1.00  0.00    -0.177 A  
HETATM   18  C   UNL     1      -7.545  17.615  68.707  1.00  0.00    -0.253 A  
HETATM   19  C   UNL     1      -6.884  18.710  68.149  1.00  0.00    -0.243 A  
HETATM   20  C   UNL     1      -6.753  18.815  66.765  1.00  0.00    -0.208 A  
HETATM   21  C   UNL     1      -7.278  17.822  65.937  1.00  0.00    -0.260 A  
HETATM   22  C   UNL     1      -7.950  16.732  66.490  1.00  0.00    -0.334 A  
ENDBRANCH  15  17
ENDBRANCH   9  15
ENDBRANCH   2   3
TORSDOF 3
ENDMDL
MODEL       83
REMARK 921   NORMALIZED FREE ENERGY PREDICTED BY IDOCK:   -4.87 KCAL/MOL
REMARK 922        TOTAL FREE ENERGY PREDICTED BY IDOCK:   -6.29 KCAL/MOL
REMARK 923 INTER-LIGAND FREE ENERGY PREDICTED BY IDOCK:   -5.62 KCAL/MOL
REMARK 924 INTRA-LIGAND FREE ENERGY PREDICTED BY IDOCK:   -0.67 KCAL/MOL
REMARK 927      BINDING AFFINITY PREDICTED BY RF-SCORE:    0.00 PKD
ROOT
HETATM    1  C   UNL     1     -11.601  15.227  68.048  1.00  0.00    -0.312 C  
HETATM    2  O   UNL     1     -12.342  14.209  67.381  1.00  0.00    -0.317 OA 
ENDROOT
BRANCH   2   3
HETATM    3  C   UNL     1     -11.793  12.957  67.377  1.00  0.00    -0.360 A  
HETATM    4  C   UNL     1     -11.378  12.429  66.150  1.00  0.00    -0.352 A  
HETATM    5  C   UNL     1     -10.850  11.132  66.053  1.00  0.00    -0.230 A  
HETATM    6  S   UNL     1     -11.463  13.421  64.685  1.00  0.00    -0.365 S  
HETATM    7  O   UNL     1     -10.894  12.453  63.518  1.00  0.00    -0.437 OA 
HETATM    8  O   UNL     1     -10.520  14.510  64.823  1.00  0.00    -0.423 OA 
HETATM    9  C   UNL     1     -10.714  10.351  67.199  1.00  0.00    -0.316 A  
HETATM   10  O   UNL     1     -12.853  13.606  64.342  1.00  0.00    -0.638 OA 
HETATM   11  H   UNL     1     -11.448  10.477  70.411  1.00  0.00     0.000 HD 
HETATM   12  C   UNL     1     -11.169  10.858  68.421  1.00  0.00    -0.285 A  
HETATM   13  O   UNL     1     -11.138  10.132  69.582  1.00  0.00    -0.236 OA 
HETATM   14  C   UNL     1     -11.697  12.150  68.513  1.00  0.00    -0.382 A  
BRANCH   9  15
HETATM   15  C   UNL     1     -10.136   8.985  67.133  1.00  0.00    -0.243 C  
HETATM   16  O   UNL     1     -10.916   8.041  67.002  1.00  0.00    -0.191 OA 
BRANCH  15  17
HETATM   17  C   UNL     1      -8.680   8.718  67.262  1.00  0.00    -0.133 A  
HETATM   18  C   UNL     1      -8.215   7.425  66.990  1.00  0.00    -0.121 A  
HETATM   19  C   UNL     1      -6.868   7.111  67.170  1.00  0.00    -0.076 A  
HETATM   20  C   UNL     1      -5.978   8.086  67.620  1.00  0.00    -0.046 A  
HETATM   21  C   UNL     1      -6.434   9.377  67.887  1.00  0.00    -0.062 A  
HETATM   22  C   UNL     1      -7.783   9.692  67.720  1.00  0.00    -0.094 A  
ENDBRANCH  15  17
ENDBRANCH   9  15
ENDBRANCH   2   3
TORSDOF 3
ENDMDL
MODEL       84
REMARK 921   NORMALIZED FREE ENERGY PREDICTED BY IDOCK:   -4.86 KCAL/MOL
REMARK 922        TOTAL FREE ENERGY PREDICTED BY IDOCK:   -6.27 KCAL/MOL
REMARK 923 INTER-LIGAND FREE ENERGY PREDICTED BY IDOCK:   -6.05 KCAL/MOL
REMARK 924 INTRA-LIGAND FREE ENERGY PREDICTED BY IDOCK:   -0.22 KCAL/MOL
REMARK 927      BINDING AFFINITY PREDICTED BY RF-SCORE:    0.00 PKD
ROOT
HETATM    1  C   UNL     1      -7.359   6.927  71.917  1.00  0.00    -0.087 C  
HETATM    2  O   UNL     1      -7.790   7.636  70.758  1.00  0.00    -0.093 OA 
ENDROOT
BRANCH   2   3
HETATM    3  C   UNL     1      -8.991   8.283  70.850  1.00  0.00    -0.151 A  
HETATM    4  C   UNL     1      -9.240   9.330  69.956  1.00  0.00    -0.210 A  
HETATM    5  C   UNL     1     -10.427  10.076  70.016  1.00  0.00    -0.337 A  
HETATM    6  S   UNL     1      -8.068   9.703  68.681  1.00  0.00    -0.102 S  
HETATM    7  O   UNL     1      -8.731  10.947  67.886  1.00  0.00    -0.127 OA 
HETATM    8  O   UNL     1      -8.035   8.587  67.760  1.00  0.00    -0.105 OA 
HETATM    9  C   UNL     1     -11.395   9.765  70.970  1.00  0.00    -0.460 A  
HETATM   10  O   UNL     1      -6.890  10.266  69.297  1.00  0.00    -0.055 OA 
HETATM   11  H   UNL     1     -11.814   7.735  73.534  1.00  0.00     0.000 HD 
HETATM   12  C   UNL     1     -11.130   8.748  71.894  1.00  0.00    -0.364 A  
HETATM   13  O   UNL     1     -11.994   8.425  72.907  1.00  0.00    -0.289 OA 
HETATM   14  C   UNL     1      -9.945   8.009  71.832  1.00  0.00    -0.255 A  
BRANCH   9  15
HETATM   15  C   UNL     1     -12.671  10.519  71.043  1.00  0.00    -0.408 C  
HETATM   16  O   UNL     1     -13.718   9.884  70.907  1.00  0.00    -0.238 OA 
BRANCH  15  17
HETATM   17  C   UNL     1     -12.728  11.993  71.226  1.00  0.00    -0.382 A  
HETATM   18  C   UNL     1     -13.509  12.503  72.271  1.00  0.00    -0.490 A  
HETATM   19  C   UNL     1     -13.651  13.881  72.433  1.00  0.00    -0.676 A  
HETATM   20  C   UNL     1     -13.013  14.756  71.556  1.00  0.00    -0.410 A  
HETATM   21  C   UNL     1     -12.229  14.255  70.516  1.00  0.00    -0.427 A  
HETATM   22  C   UNL     1     -12.094  12.877  70.342  1.00  0.00    -0.385 A  
ENDBRANCH  15  17
ENDBRANCH   9  15
ENDBRANCH   2   3
TORSDOF 3
ENDMDL
MODEL       85
REMARK 921   NORMALIZED FREE ENERGY PREDICTED BY IDOCK:   -4.86 KCAL/MOL
REMARK 922        TOTAL FREE ENERGY PREDICTED BY IDOCK:   -6.27 KCAL/MOL
REMARK 923 INTER-LIGAND FREE ENERGY PREDICTED BY IDOCK:   -6.86 KCAL/MOL
REMARK 924 INTRA-LIGAND FREE ENERGY PREDICTED BY IDOCK:    0.59 KCAL/MOL
REMARK 927      BINDING AFFINITY PREDICTED BY RF-SCORE:    0.00 PKD
ROOT
HETATM    1  C   UNL     1     -11.445  15.242  64.861  1.00  0.00    -0.343 C  
HETATM    2  O   UNL     1     -10.546  14.461  65.645  1.00  0.00    -0.299 OA 
ENDROOT
BRANCH   2   3
HETATM    3  C   UNL     1     -10.992  14.067  66.875  1.00  0.00    -0.298 A  
HETATM    4  C   UNL     1     -11.081  12.694  67.130  1.00  0.00    -0.280 A  
HETATM    5  C   UNL     1     -11.576  12.208  68.350  1.00  0.00    -0.381 A  
HETATM    6  S   UNL     1     -10.512  11.531  65.922  1.00  0.00    -0.262 S  
HETATM    7  O   UNL     1     -10.784  10.088  66.604  1.00  0.00    -0.157 OA 
HETATM    8  O   UNL     1      -9.077  11.673  65.801  1.00  0.00    -0.201 OA 
HETATM    9  C   UNL     1     -11.973  13.102  69.344  1.00  0.00    -0.347 A  
HETATM   10  O   UNL     1     -11.416  11.565  64.798  1.00  0.00    -0.201 OA 
HETATM   11  H   UNL     1     -12.335  16.349  69.785  1.00  0.00     0.000 HD 
HETATM   12  C   UNL     1     -11.928  14.474  69.076  1.00  0.00    -0.299 A  
HETATM   13  O   UNL     1     -12.365  15.418  69.967  1.00  0.00    -0.359 OA 
HETATM   14  C   UNL     1     -11.437  14.954  67.858  1.00  0.00    -0.357 A  
BRANCH   9  15
HETATM   15  C   UNL     1     -12.477  12.619  70.653  1.00  0.00    -0.239 C  
HETATM   16  O   UNL     1     -12.938  13.455  71.432  1.00  0.00    -0.352 OA 
BRANCH  15  17
HETATM   17  C   UNL     1     -12.407  11.194  71.069  1.00  0.00    -0.487 A  
HETATM   18  C   UNL     1     -11.286  10.445  70.690  1.00  0.00    -0.411 A  
HETATM   19  C   UNL     1     -11.214   9.085  70.994  1.00  0.00    -0.361 A  
HETATM   20  C   UNL     1     -12.259   8.467  71.680  1.00  0.00    -0.371 A  
HETATM   21  C   UNL     1     -13.376   9.209  72.066  1.00  0.00    -0.507 A  
HETATM   22  C   UNL     1     -13.458  10.566  71.753  1.00  0.00    -0.345 A  
ENDBRANCH  15  17
ENDBRANCH   9  15
ENDBRANCH   2   3
TORSDOF 3
ENDMDL
MODEL       86
REMARK 921   NORMALIZED FREE ENERGY PREDICTED BY IDOCK:   -4.83 KCAL/MOL
REMARK 922        TOTAL FREE ENERGY PREDICTED BY IDOCK:   -6.24 KCAL/MOL
REMARK 923 INTER-LIGAND FREE ENERGY PREDICTED BY IDOCK:   -5.58 KCAL/MOL
REMARK 924 INTRA-LIGAND FREE ENERGY PREDICTED BY IDOCK:   -0.66 KCAL/MOL
REMARK 927      BINDING AFFINITY PREDICTED BY RF-SCORE:    0.00 PKD
ROOT
HETATM    1  C   UNL     1      -8.018  11.623  66.980  1.00  0.00    -0.164 C  
HETATM    2  O   UNL     1      -9.193  12.425  66.901  1.00  0.00    -0.197 OA 
ENDROOT
BRANCH   2   3
HETATM    3  C   UNL     1      -9.037  13.761  67.141  1.00  0.00    -0.239 A  
HETATM    4  C   UNL     1      -9.779  14.657  66.364  1.00  0.00    -0.295 A  
HETATM    5  C   UNL     1      -9.639  16.046  66.514  1.00  0.00    -0.283 A  
HETATM    6  S   UNL     1     -10.963  14.045  65.196  1.00  0.00    -0.377 S  
HETATM    7  O   UNL     1     -11.588  15.382  64.530  1.00  0.00    -0.397 OA 
HETATM    8  O   UNL     1     -12.031  13.405  65.933  1.00  0.00    -0.366 OA 
HETATM    9  C   UNL     1      -8.761  16.555  67.468  1.00  0.00    -0.191 A  
HETATM   10  O   UNL     1     -10.247  13.413  64.113  1.00  0.00    -0.363 OA 
HETATM   11  H   UNL     1      -6.519  15.475  69.632  1.00  0.00     0.000 HD 
HETATM   12  C   UNL     1      -7.984  15.664  68.217  1.00  0.00    -0.129 A  
HETATM   13  O   UNL     1      -7.047  16.080  69.124  1.00  0.00    -0.171 OA 
HETATM   14  C   UNL     1      -8.124  14.282  68.062  1.00  0.00    -0.145 A  
BRANCH   9  15
HETATM   15  C   UNL     1      -8.609  18.018  67.668  1.00  0.00    -0.247 C  
HETATM   16  O   UNL     1      -9.360  18.564  68.478  1.00  0.00    -0.319 OA 
BRANCH  15  17
HETATM   17  C   UNL     1      -7.632  18.840  66.908  1.00  0.00    -0.238 A  
HETATM   18  C   UNL     1      -7.611  20.222  67.131  1.00  0.00    -0.354 A  
HETATM   19  C   UNL     1      -6.762  21.041  66.384  1.00  0.00    -0.236 A  
HETATM   20  C   UNL     1      -5.930  20.484  65.416  1.00  0.00    -0.257 A  
HETATM   21  C   UNL     1      -5.941  19.106  65.193  1.00  0.00    -0.289 A  
HETATM   22  C   UNL     1      -6.797  18.285  65.928  1.00  0.00    -0.325 A  
ENDBRANCH  15  17
ENDBRANCH   9  15
ENDBRANCH   2   3
TORSDOF 3
ENDMDL
MODEL       87
REMARK 921   NORMALIZED FREE ENERGY PREDICTED BY IDOCK:   -4.81 KCAL/MOL
REMARK 922        TOTAL FREE ENERGY PREDICTED BY IDOCK:   -6.22 KCAL/MOL
REMARK 923 INTER-LIGAND FREE ENERGY PREDICTED BY IDOCK:   -6.37 KCAL/MOL
REMARK 924 INTRA-LIGAND FREE ENERGY PREDICTED BY IDOCK:    0.16 KCAL/MOL
REMARK 927      BINDING AFFINITY PREDICTED BY RF-SCORE:    0.00 PKD
ROOT
HETATM    1  C   UNL     1      -8.893   9.549  62.765  1.00  0.00    -0.238 C  
HETATM    2  O   UNL     1      -8.888   9.694  64.182  1.00  0.00    -0.204 OA 
ENDROOT
BRANCH   2   3
HETATM    3  C   UNL     1      -9.664  10.694  64.697  1.00  0.00    -0.302 A  
HETATM    4  C   UNL     1      -9.357  11.167  65.977  1.00  0.00    -0.206 A  
HETATM    5  C   UNL     1     -10.135  12.158  66.597  1.00  0.00    -0.218 A  
HETATM    6  S   UNL     1      -7.930  10.554  66.829  1.00  0.00    -0.125 S  
HETATM    7  O   UNL     1      -7.939  11.350  68.239  1.00  0.00    -0.121 OA 
HETATM    8  O   UNL     1      -6.753  10.993  66.108  1.00  0.00    -0.127 OA 
HETATM    9  C   UNL     1     -11.228  12.702  65.926  1.00  0.00    -0.350 A  
HETATM   10  O   UNL     1      -8.176   9.181  67.197  1.00  0.00    -0.112 OA 
HETATM   11  H   UNL     1     -12.892  12.287  63.109  1.00  0.00     0.000 HD 
HETATM   12  C   UNL     1     -11.566  12.200  64.663  1.00  0.00    -0.328 A  
HETATM   13  O   UNL     1     -12.663  12.628  63.965  1.00  0.00    -0.672 OA 
HETATM   14  C   UNL     1     -10.789  11.212  64.051  1.00  0.00    -0.351 A  
BRANCH   9  15
HETATM   15  C   UNL     1     -12.056  13.768  66.544  1.00  0.00    -0.443 C  
HETATM   16  O   UNL     1     -12.998  14.213  65.887  1.00  0.00    -0.427 OA 
BRANCH  15  17
HETATM   17  C   UNL     1     -11.765  14.339  67.885  1.00  0.00    -0.394 A  
HETATM   18  C   UNL     1     -12.122  13.593  69.015  1.00  0.00    -0.348 A  
HETATM   19  C   UNL     1     -11.936  14.123  70.293  1.00  0.00    -0.404 A  
HETATM   20  C   UNL     1     -11.393  15.397  70.448  1.00  0.00    -0.350 A  
HETATM   21  C   UNL     1     -11.031  16.143  69.326  1.00  0.00    -0.315 A  
HETATM   22  C   UNL     1     -11.225  15.622  68.046  1.00  0.00    -0.339 A  
ENDBRANCH  15  17
ENDBRANCH   9  15
ENDBRANCH   2   3
TORSDOF 3
ENDMDL
MODEL       88
REMARK 921   NORMALIZED FREE ENERGY PREDICTED BY IDOCK:   -4.81 KCAL/MOL
REMARK 922        TOTAL FREE ENERGY PREDICTED BY IDOCK:   -6.22 KCAL/MOL
REMARK 923 INTER-LIGAND FREE ENERGY PREDICTED BY IDOCK:   -5.55 KCAL/MOL
REMARK 924 INTRA-LIGAND FREE ENERGY PREDICTED BY IDOCK:   -0.67 KCAL/MOL
REMARK 927      BINDING AFFINITY PREDICTED BY RF-SCORE:    0.00 PKD
ROOT
HETATM    1  C   UNL     1     -10.917  15.533  68.421  1.00  0.00    -0.297 C  
HETATM    2  O   UNL     1     -11.837  14.601  67.858  1.00  0.00    -0.348 OA 
ENDROOT
BRANCH   2   3
HETATM    3  C   UNL     1     -11.353  13.351  67.591  1.00  0.00    -0.290 A  
HETATM    4  C   UNL     1     -11.438  12.884  66.275  1.00  0.00    -0.348 A  
HETATM    5  C   UNL     1     -11.009  11.593  65.928  1.00  0.00    -0.334 A  
HETATM    6  S   UNL     1     -12.046  13.948  64.996  1.00  0.00    -0.431 S  
HETATM    7  O   UNL     1     -11.973  13.039  63.658  1.00  0.00    -0.481 OA 
HETATM    8  O   UNL     1     -11.099  15.028  64.821  1.00  0.00    -0.387 OA 
HETATM    9  C   UNL     1     -10.469  10.756  66.902  1.00  0.00    -0.304 A  
HETATM   10  O   UNL     1     -13.460  14.150  65.208  1.00  0.00    -0.606 OA 
HETATM   11  H   UNL     1      -9.944  10.723  70.158  1.00  0.00     0.000 HD 
HETATM   12  C   UNL     1     -10.424  11.202  68.228  1.00  0.00    -0.191 A  
HETATM   13  O   UNL     1      -9.974  10.420  69.258  1.00  0.00    -0.210 OA 
HETATM   14  C   UNL     1     -10.854  12.488  68.570  1.00  0.00    -0.271 A  
BRANCH   9  15
HETATM   15  C   UNL     1      -9.984   9.395  66.562  1.00  0.00    -0.269 C  
HETATM   16  O   UNL     1     -10.778   8.461  66.674  1.00  0.00    -0.195 OA 
BRANCH  15  17
HETATM   17  C   UNL     1      -8.585   9.119  66.141  1.00  0.00    -0.149 A  
HETATM   18  C   UNL     1      -7.620  10.111  66.352  1.00  0.00    -0.108 A  
HETATM   19  C   UNL     1      -6.311   9.924  65.904  1.00  0.00    -0.085 A  
HETATM   20  C   UNL     1      -5.961   8.746  65.247  1.00  0.00    -0.048 A  
HETATM   21  C   UNL     1      -6.916   7.751  65.039  1.00  0.00    -0.059 A  
HETATM   22  C   UNL     1      -8.229   7.939  65.474  1.00  0.00    -0.140 A  
ENDBRANCH  15  17
ENDBRANCH   9  15
ENDBRANCH   2   3
TORSDOF 3
ENDMDL
MODEL       89
REMARK 921   NORMALIZED FREE ENERGY PREDICTED BY IDOCK:   -4.80 KCAL/MOL
REMARK 922        TOTAL FREE ENERGY PREDICTED BY IDOCK:   -6.20 KCAL/MOL
REMARK 923 INTER-LIGAND FREE ENERGY PREDICTED BY IDOCK:   -5.62 KCAL/MOL
REMARK 924 INTRA-LIGAND FREE ENERGY PREDICTED BY IDOCK:   -0.58 KCAL/MOL
REMARK 927      BINDING AFFINITY PREDICTED BY RF-SCORE:    0.00 PKD
ROOT
HETATM    1  C   UNL     1     -10.143   5.283  68.346  1.00  0.00    -0.159 C  
HETATM    2  O   UNL     1     -11.060   6.355  68.550  1.00  0.00    -0.318 OA 
ENDROOT
BRANCH   2   3
HETATM    3  C   UNL     1     -10.637   7.599  68.177  1.00  0.00    -0.130 A  
HETATM    4  C   UNL     1     -10.550   8.585  69.166  1.00  0.00    -0.173 A  
HETATM    5  C   UNL     1     -10.173   9.901  68.856  1.00  0.00    -0.209 A  
HETATM    6  S   UNL     1     -10.869   8.170  70.859  1.00  0.00    -0.234 S  
HETATM    7  O   UNL     1     -10.657   9.565  71.653  1.00  0.00    -0.291 OA 
HETATM    8  O   UNL     1      -9.826   7.271  71.305  1.00  0.00    -0.180 OA 
HETATM    9  C   UNL     1      -9.857  10.241  67.542  1.00  0.00    -0.204 A  
HETATM   10  O   UNL     1     -12.278   7.894  71.001  1.00  0.00    -0.286 OA 
HETATM   11  H   UNL     1      -9.852   8.878  64.540  1.00  0.00     0.000 HD 
HETATM   12  C   UNL     1      -9.986   9.270  66.543  1.00  0.00    -0.274 A  
HETATM   13  O   UNL     1      -9.764   9.537  65.218  1.00  0.00    -0.293 OA 
HETATM   14  C   UNL     1     -10.365   7.961  66.855  1.00  0.00    -0.400 A  
BRANCH   9  15
HETATM   15  C   UNL     1      -9.430  11.617  67.187  1.00  0.00    -0.176 C  
HETATM   16  O   UNL     1      -8.290  11.962  67.503  1.00  0.00    -0.143 OA 
BRANCH  15  17
HETATM   17  C   UNL     1     -10.328  12.593  66.515  1.00  0.00    -0.256 A  
HETATM   18  C   UNL     1      -9.783  13.807  66.079  1.00  0.00    -0.255 A  
HETATM   19  C   UNL     1     -10.605  14.781  65.511  1.00  0.00    -0.374 A  
HETATM   20  C   UNL     1     -11.972  14.549  65.375  1.00  0.00    -0.332 A  
HETATM   21  C   UNL     1     -12.520  13.339  65.802  1.00  0.00    -0.480 A  
HETATM   22  C   UNL     1     -11.705  12.366  66.382  1.00  0.00    -0.453 A  
ENDBRANCH  15  17
ENDBRANCH   9  15
ENDBRANCH   2   3
TORSDOF 3
ENDMDL
MODEL       90
REMARK 921   NORMALIZED FREE ENERGY PREDICTED BY IDOCK:   -4.79 KCAL/MOL
REMARK 922        TOTAL FREE ENERGY PREDICTED BY IDOCK:   -6.19 KCAL/MOL
REMARK 923 INTER-LIGAND FREE ENERGY PREDICTED BY IDOCK:   -5.73 KCAL/MOL
REMARK 924 INTRA-LIGAND FREE ENERGY PREDICTED BY IDOCK:   -0.46 KCAL/MOL
REMARK 927      BINDING AFFINITY PREDICTED BY RF-SCORE:    0.00 PKD
ROOT
HETATM    1  C   UNL     1      -7.286   7.059  70.993  1.00  0.00    -0.075 C  
HETATM    2  O   UNL     1      -8.345   7.045  70.040  1.00  0.00    -0.134 OA 
ENDROOT
BRANCH   2   3
HETATM    3  C   UNL     1      -9.039   8.212  69.881  1.00  0.00    -0.151 A  
HETATM    4  C   UNL     1     -10.411   8.200  70.153  1.00  0.00    -0.215 A  
HETATM    5  C   UNL     1     -11.204   9.344  69.966  1.00  0.00    -0.217 A  
HETATM    6  S   UNL     1     -11.173   6.737  70.797  1.00  0.00    -0.325 S  
HETATM    7  O   UNL     1     -12.729   7.145  70.971  1.00  0.00    -0.352 OA 
HETATM    8  O   UNL     1     -10.649   6.505  72.126  1.00  0.00    -0.207 OA 
HETATM    9  C   UNL     1     -10.619  10.528  69.519  1.00  0.00    -0.278 A  
HETATM   10  O   UNL     1     -11.185   5.736  69.757  1.00  0.00    -0.355 OA 
HETATM   11  H   UNL     1      -7.692  11.632  68.477  1.00  0.00     0.000 HD 
HETATM   12  C   UNL     1      -9.256  10.532  69.203  1.00  0.00    -0.171 A  
HETATM   13  O   UNL     1      -8.618  11.630  68.692  1.00  0.00    -0.152 OA 
HETATM   14  C   UNL     1      -8.471   9.390  69.388  1.00  0.00    -0.142 A  
BRANCH   9  15
HETATM   15  C   UNL     1     -11.425  11.760  69.337  1.00  0.00    -0.307 C  
HETATM   16  O   UNL     1     -11.984  12.230  70.329  1.00  0.00    -0.344 OA 
BRANCH  15  17
HETATM   17  C   UNL     1     -11.615  12.412  68.014  1.00  0.00    -0.403 A  
HETATM   18  C   UNL     1     -11.873  13.788  67.982  1.00  0.00    -0.408 A  
HETATM   19  C   UNL     1     -12.132  14.426  66.768  1.00  0.00    -0.393 A  
HETATM   20  C   UNL     1     -12.132  13.694  65.582  1.00  0.00    -0.457 A  
HETATM   21  C   UNL     1     -11.871  12.324  65.606  1.00  0.00    -0.423 A  
HETATM   22  C   UNL     1     -11.623  11.679  66.819  1.00  0.00    -0.220 A  
ENDBRANCH  15  17
ENDBRANCH   9  15
ENDBRANCH   2   3
TORSDOF 3
ENDMDL
MODEL       91
REMARK 921   NORMALIZED FREE ENERGY PREDICTED BY IDOCK:   -4.77 KCAL/MOL
REMARK 922        TOTAL FREE ENERGY PREDICTED BY IDOCK:   -6.17 KCAL/MOL
REMARK 923 INTER-LIGAND FREE ENERGY PREDICTED BY IDOCK:   -5.57 KCAL/MOL
REMARK 924 INTRA-LIGAND FREE ENERGY PREDICTED BY IDOCK:   -0.60 KCAL/MOL
REMARK 927      BINDING AFFINITY PREDICTED BY RF-SCORE:    0.00 PKD
ROOT
HETATM    1  C   UNL     1      -6.875   4.429  72.350  1.00  0.00    -0.055 C  
HETATM    2  O   UNL     1      -7.847   4.311  71.314  1.00  0.00    -0.069 OA 
ENDROOT
BRANCH   2   3
HETATM    3  C   UNL     1      -8.950   5.111  71.418  1.00  0.00    -0.137 A  
HETATM    4  C   UNL     1      -9.712   5.326  70.265  1.00  0.00    -0.195 A  
HETATM    5  C   UNL     1     -10.831   6.175  70.275  1.00  0.00    -0.385 A  
HETATM    6  S   UNL     1      -9.305   4.479  68.763  1.00  0.00    -0.156 S  
HETATM    7  O   UNL     1     -10.415   4.997  67.704  1.00  0.00    -0.117 OA 
HETATM    8  O   UNL     1      -9.545   3.066  68.965  1.00  0.00    -0.147 OA 
HETATM    9  C   UNL     1     -11.211   6.807  71.458  1.00  0.00    -0.300 A  
HETATM   10  O   UNL     1      -8.062   5.016  68.262  1.00  0.00    -0.086 OA 
HETATM   11  H   UNL     1     -10.152   7.147  74.562  1.00  0.00     0.000 HD 
HETATM   12  C   UNL     1     -10.425   6.629  72.603  1.00  0.00    -0.212 A  
HETATM   13  O   UNL     1     -10.686   7.267  73.786  1.00  0.00    -0.353 OA 
HETATM   14  C   UNL     1      -9.310   5.786  72.587  1.00  0.00    -0.145 A  
BRANCH   9  15
HETATM   15  C   UNL     1     -12.403   7.689  71.508  1.00  0.00    -0.330 C  
HETATM   16  O   UNL     1     -13.499   7.159  71.694  1.00  0.00    -0.379 OA 
BRANCH  15  17
HETATM   17  C   UNL     1     -12.328   9.159  71.301  1.00  0.00    -0.382 A  
HETATM   18  C   UNL     1     -13.261   9.971  71.958  1.00  0.00    -0.545 A  
HETATM   19  C   UNL     1     -13.274  11.348  71.734  1.00  0.00    -0.472 A  
HETATM   20  C   UNL     1     -12.357  11.921  70.855  1.00  0.00    -0.400 A  
HETATM   21  C   UNL     1     -11.421  11.119  70.201  1.00  0.00    -0.361 A  
HETATM   22  C   UNL     1     -11.412   9.739  70.413  1.00  0.00    -0.347 A  
ENDBRANCH  15  17
ENDBRANCH   9  15
ENDBRANCH   2   3
TORSDOF 3
ENDMDL
MODEL       92
REMARK 921   NORMALIZED FREE ENERGY PREDICTED BY IDOCK:   -4.76 KCAL/MOL
REMARK 922        TOTAL FREE ENERGY PREDICTED BY IDOCK:   -6.16 KCAL/MOL
REMARK 923 INTER-LIGAND FREE ENERGY PREDICTED BY IDOCK:   -5.60 KCAL/MOL
REMARK 924 INTRA-LIGAND FREE ENERGY PREDICTED BY IDOCK:   -0.56 KCAL/MOL
REMARK 927      BINDING AFFINITY PREDICTED BY RF-SCORE:    0.00 PKD
ROOT
HETATM    1  C   UNL     1      -7.838   9.681  65.525  1.00  0.00    -0.111 C  
HETATM    2  O   UNL     1      -7.719  10.790  66.413  1.00  0.00    -0.134 OA 
ENDROOT
BRANCH   2   3
HETATM    3  C   UNL     1      -8.798  11.052  67.210  1.00  0.00    -0.135 A  
HETATM    4  C   UNL     1      -8.691  10.756  68.573  1.00  0.00    -0.149 A  
HETATM    5  C   UNL     1      -9.771  10.948  69.450  1.00  0.00    -0.019 A  
HETATM    6  S   UNL     1      -7.155  10.175  69.235  1.00  0.00    -0.087 S  
HETATM    7  O   UNL     1      -7.457   9.967  70.812  1.00  0.00    -0.313 OA 
HETATM    8  O   UNL     1      -6.187  11.247  69.132  1.00  0.00    -0.048 OA 
HETATM    9  C   UNL     1     -10.973  11.463  68.967  1.00  0.00    -0.288 A  
HETATM   10  O   UNL     1      -6.923   8.839  68.741  1.00  0.00    -0.061 OA 
HETATM   11  H   UNL     1     -12.350  12.328  66.099  1.00  0.00     0.000 HD 
HETATM   12  C   UNL     1     -11.099  11.717  67.597  1.00  0.00    -0.252 A  
HETATM   13  O   UNL     1     -12.265  12.156  67.029  1.00  0.00    -0.522 OA 
HETATM   14  C   UNL     1     -10.022  11.521  66.727  1.00  0.00    -0.235 A  
BRANCH   9  15
HETATM   15  C   UNL     1     -12.124  11.701  69.873  1.00  0.00    -0.301 C  
HETATM   16  O   UNL     1     -12.862  10.747  70.123  1.00  0.00    -0.265 OA 
BRANCH  15  17
HETATM   17  C   UNL     1     -12.438  13.037  70.445  1.00  0.00    -0.266 A  
HETATM   18  C   UNL     1     -13.196  13.095  71.621  1.00  0.00    -0.435 A  
HETATM   19  C   UNL     1     -13.577  14.329  72.150  1.00  0.00    -0.546 A  
HETATM   20  C   UNL     1     -13.202  15.509  71.510  1.00  0.00    -0.589 A  
HETATM   21  C   UNL     1     -12.441  15.458  70.342  1.00  0.00    -0.447 A  
HETATM   22  C   UNL     1     -12.068  14.226  69.802  1.00  0.00    -0.401 A  
ENDBRANCH  15  17
ENDBRANCH   9  15
ENDBRANCH   2   3
TORSDOF 3
ENDMDL
MODEL       93
REMARK 921   NORMALIZED FREE ENERGY PREDICTED BY IDOCK:   -4.75 KCAL/MOL
REMARK 922        TOTAL FREE ENERGY PREDICTED BY IDOCK:   -6.14 KCAL/MOL
REMARK 923 INTER-LIGAND FREE ENERGY PREDICTED BY IDOCK:   -5.48 KCAL/MOL
REMARK 924 INTRA-LIGAND FREE ENERGY PREDICTED BY IDOCK:   -0.66 KCAL/MOL
REMARK 927      BINDING AFFINITY PREDICTED BY RF-SCORE:    0.00 PKD
ROOT
HETATM    1  C   UNL     1     -10.701   7.435  67.221  1.00  0.00    -0.308 C  
HETATM    2  O   UNL     1     -10.290   8.364  68.220  1.00  0.00    -0.204 OA 
ENDROOT
BRANCH   2   3
HETATM    3  C   UNL     1     -10.554   9.682  67.975  1.00  0.00    -0.243 A  
HETATM    4  C   UNL     1     -11.134  10.435  69.002  1.00  0.00    -0.248 A  
HETATM    5  C   UNL     1     -11.483  11.782  68.814  1.00  0.00    -0.350 A  
HETATM    6  S   UNL     1     -11.393   9.707  70.596  1.00  0.00    -0.336 S  
HETATM    7  O   UNL     1     -12.063  10.895  71.468  1.00  0.00    -0.225 OA 
HETATM    8  O   UNL     1     -10.098   9.435  71.182  1.00  0.00    -0.296 OA 
HETATM    9  C   UNL     1     -11.233  12.399  67.589  1.00  0.00    -0.340 A  
HETATM   10  O   UNL     1     -12.441   8.721  70.479  1.00  0.00     0.101 OA 
HETATM   11  H   UNL     1     -10.119  11.627  64.583  1.00  0.00     0.000 HD 
HETATM   12  C   UNL     1     -10.695  11.637  66.545  1.00  0.00    -0.272 A  
HETATM   13  O   UNL     1     -10.484  12.144  65.291  1.00  0.00    -0.258 OA 
HETATM   14  C   UNL     1     -10.352  10.295  66.736  1.00  0.00    -0.288 A  
BRANCH   9  15
HETATM   15  C   UNL     1     -11.567  13.828  67.367  1.00  0.00    -0.362 C  
HETATM   16  O   UNL     1     -12.590  14.083  66.729  1.00  0.00    -0.311 OA 
BRANCH  15  17
HETATM   17  C   UNL     1     -10.703  14.941  67.840  1.00  0.00    -0.265 A  
HETATM   18  C   UNL     1     -11.309  16.163  68.158  1.00  0.00    -0.270 A  
HETATM   19  C   UNL     1     -10.529  17.257  68.534  1.00  0.00    -0.375 A  
HETATM   20  C   UNL     1      -9.142  17.135  68.597  1.00  0.00    -0.268 A  
HETATM   21  C   UNL     1      -8.532  15.919  68.287  1.00  0.00    -0.170 A  
HETATM   22  C   UNL     1      -9.308  14.826  67.899  1.00  0.00    -0.193 A  
ENDBRANCH  15  17
ENDBRANCH   9  15
ENDBRANCH   2   3
TORSDOF 3
ENDMDL
MODEL       94
REMARK 921   NORMALIZED FREE ENERGY PREDICTED BY IDOCK:   -4.74 KCAL/MOL
REMARK 922        TOTAL FREE ENERGY PREDICTED BY IDOCK:   -6.14 KCAL/MOL
REMARK 923 INTER-LIGAND FREE ENERGY PREDICTED BY IDOCK:   -5.54 KCAL/MOL
REMARK 924 INTRA-LIGAND FREE ENERGY PREDICTED BY IDOCK:   -0.59 KCAL/MOL
REMARK 927      BINDING AFFINITY PREDICTED BY RF-SCORE:    0.00 PKD
ROOT
HETATM    1  C   UNL     1     -12.352  16.190  72.053  1.00  0.00    -0.409 C  
HETATM    2  O   UNL     1     -11.592  16.275  70.851  1.00  0.00    -0.401 OA 
ENDROOT
BRANCH   2   3
HETATM    3  C   UNL     1     -11.516  15.140  70.094  1.00  0.00    -0.281 A  
HETATM    4  C   UNL     1     -10.928  15.235  68.828  1.00  0.00    -0.260 A  
HETATM    5  C   UNL     1     -10.856  14.126  67.970  1.00  0.00    -0.256 A  
HETATM    6  S   UNL     1     -10.207  16.764  68.300  1.00  0.00    -0.315 S  
HETATM    7  O   UNL     1      -9.647  16.444  66.815  1.00  0.00    -0.231 OA 
HETATM    8  O   UNL     1      -9.054  17.029  69.134  1.00  0.00    -0.193 OA 
HETATM    9  C   UNL     1     -11.361  12.894  68.384  1.00  0.00    -0.329 A  
HETATM   10  O   UNL     1     -11.270  17.715  68.078  1.00  0.00    -0.096 OA 
HETATM   11  H   UNL     1     -13.001  11.594  70.932  1.00  0.00     0.000 HD 
HETATM   12  C   UNL     1     -11.989  12.806  69.631  1.00  0.00    -0.288 A  
HETATM   13  O   UNL     1     -12.574  11.654  70.085  1.00  0.00    -0.154 OA 
HETATM   14  C   UNL     1     -12.061  13.913  70.481  1.00  0.00    -0.426 A  
BRANCH   9  15
HETATM   15  C   UNL     1     -11.277  11.698  67.510  1.00  0.00    -0.293 C  
HETATM   16  O   UNL     1     -12.072  11.618  66.573  1.00  0.00    -0.405 OA 
BRANCH  15  17
HETATM   17  C   UNL     1     -10.314  10.591  67.747  1.00  0.00    -0.248 A  
HETATM   18  C   UNL     1     -10.574   9.347  67.159  1.00  0.00    -0.294 A  
HETATM   19  C   UNL     1      -9.736   8.260  67.416  1.00  0.00    -0.225 A  
HETATM   20  C   UNL     1      -8.637   8.411  68.258  1.00  0.00    -0.139 A  
HETATM   21  C   UNL     1      -8.369   9.649  68.843  1.00  0.00    -0.116 A  
HETATM   22  C   UNL     1      -9.210  10.735  68.599  1.00  0.00    -0.184 A  
ENDBRANCH  15  17
ENDBRANCH   9  15
ENDBRANCH   2   3
TORSDOF 3
ENDMDL
MODEL       95
REMARK 921   NORMALIZED FREE ENERGY PREDICTED BY IDOCK:   -4.72 KCAL/MOL
REMARK 922        TOTAL FREE ENERGY PREDICTED BY IDOCK:   -6.11 KCAL/MOL
REMARK 923 INTER-LIGAND FREE ENERGY PREDICTED BY IDOCK:   -5.68 KCAL/MOL
REMARK 924 INTRA-LIGAND FREE ENERGY PREDICTED BY IDOCK:   -0.43 KCAL/MOL
REMARK 927      BINDING AFFINITY PREDICTED BY RF-SCORE:    0.00 PKD
ROOT
HETATM    1  C   UNL     1      -8.595  10.113  66.988  1.00  0.00    -0.129 C  
HETATM    2  O   UNL     1      -9.411  11.199  66.558  1.00  0.00    -0.172 OA 
ENDROOT
BRANCH   2   3
HETATM    3  C   UNL     1      -9.069  12.440  67.018  1.00  0.00    -0.207 A  
HETATM    4  C   UNL     1     -10.103  13.318  67.363  1.00  0.00    -0.233 A  
HETATM    5  C   UNL     1      -9.837  14.626  67.796  1.00  0.00    -0.216 A  
HETATM    6  S   UNL     1     -11.786  12.768  67.308  1.00  0.00    -0.360 S  
HETATM    7  O   UNL     1     -12.639  14.061  67.778  1.00  0.00     0.044 OA 
HETATM    8  O   UNL     1     -11.962  11.757  68.329  1.00  0.00    -0.487 OA 
HETATM    9  C   UNL     1      -8.519  15.066  67.908  1.00  0.00    -0.149 A  
HETATM   10  O   UNL     1     -12.158  12.582  65.926  1.00  0.00    -0.537 OA 
HETATM   11  H   UNL     1      -5.465  13.998  67.269  1.00  0.00     0.000 HD 
HETATM   12  C   UNL     1      -7.484  14.206  67.521  1.00  0.00    -0.174 A  
HETATM   13  O   UNL     1      -6.167  14.582  67.532  1.00  0.00    -0.313 OA 
HETATM   14  C   UNL     1      -7.753  12.905  67.088  1.00  0.00    -0.058 A  
BRANCH   9  15
HETATM   15  C   UNL     1      -8.205  16.435  68.386  1.00  0.00    -0.190 C  
HETATM   16  O   UNL     1      -7.529  16.541  69.411  1.00  0.00    -0.223 OA 
BRANCH  15  17
HETATM   17  C   UNL     1      -8.705  17.661  67.711  1.00  0.00    -0.232 A  
HETATM   18  C   UNL     1     -10.012  18.082  67.982  1.00  0.00    -0.346 A  
HETATM   19  C   UNL     1     -10.548  19.184  67.314  1.00  0.00    -0.573 A  
HETATM   20  C   UNL     1      -9.780  19.871  66.374  1.00  0.00    -0.558 A  
HETATM   21  C   UNL     1      -8.475  19.460  66.104  1.00  0.00    -0.303 A  
HETATM   22  C   UNL     1      -7.940  18.351  66.761  1.00  0.00    -0.261 A  
ENDBRANCH  15  17
ENDBRANCH   9  15
ENDBRANCH   2   3
TORSDOF 3
ENDMDL
MODEL       96
REMARK 921   NORMALIZED FREE ENERGY PREDICTED BY IDOCK:   -4.72 KCAL/MOL
REMARK 922        TOTAL FREE ENERGY PREDICTED BY IDOCK:   -6.11 KCAL/MOL
REMARK 923 INTER-LIGAND FREE ENERGY PREDICTED BY IDOCK:   -5.43 KCAL/MOL
REMARK 924 INTRA-LIGAND FREE ENERGY PREDICTED BY IDOCK:   -0.68 KCAL/MOL
REMARK 927      BINDING AFFINITY PREDICTED BY RF-SCORE:    0.00 PKD
ROOT
HETATM    1  C   UNL     1      -9.635   6.380  72.445  1.00  0.00    -0.146 C  
HETATM    2  O   UNL     1      -9.083   7.694  72.409  1.00  0.00    -0.130 OA 
ENDROOT
BRANCH   2   3
HETATM    3  C   UNL     1      -9.702   8.594  71.589  1.00  0.00    -0.278 A  
HETATM    4  C   UNL     1      -8.989   9.073  70.485  1.00  0.00    -0.213 A  
HETATM    5  C   UNL     1      -9.536  10.037  69.623  1.00  0.00    -0.247 A  
HETATM    6  S   UNL     1      -7.382   8.423  70.120  1.00  0.00    -0.060 S  
HETATM    7  O   UNL     1      -6.924   9.225  68.791  1.00  0.00    -0.060 OA 
HETATM    8  O   UNL     1      -7.534   7.035  69.740  1.00  0.00    -0.092 OA 
HETATM    9  C   UNL     1     -10.823  10.521  69.851  1.00  0.00    -0.334 A  
HETATM   10  O   UNL     1      -6.466   8.878  71.139  1.00  0.00    -0.053 OA 
HETATM   11  H   UNL     1     -13.236  10.254  72.082  1.00  0.00     0.000 HD 
HETATM   12  C   UNL     1     -11.522  10.079  70.979  1.00  0.00    -0.383 A  
HETATM   13  O   UNL     1     -12.761  10.555  71.316  1.00  0.00    -0.356 OA 
HETATM   14  C   UNL     1     -10.973   9.121  71.836  1.00  0.00    -0.372 A  
BRANCH   9  15
HETATM   15  C   UNL     1     -11.438  11.522  68.943  1.00  0.00    -0.289 C  
HETATM   16  O   UNL     1     -12.082  11.101  67.982  1.00  0.00    -0.635 OA 
BRANCH  15  17
HETATM   17  C   UNL     1     -11.270  12.987  69.126  1.00  0.00    -0.297 A  
HETATM   18  C   UNL     1     -10.272  13.638  68.389  1.00  0.00    -0.245 A  
HETATM   19  C   UNL     1     -10.031  14.999  68.585  1.00  0.00    -0.220 A  
HETATM   20  C   UNL     1     -10.784  15.715  69.513  1.00  0.00    -0.271 A  
HETATM   21  C   UNL     1     -11.783  15.074  70.245  1.00  0.00    -0.338 A  
HETATM   22  C   UNL     1     -12.021  13.711  70.062  1.00  0.00    -0.413 A  
ENDBRANCH  15  17
ENDBRANCH   9  15
ENDBRANCH   2   3
TORSDOF 3
ENDMDL
MODEL       97
REMARK 921   NORMALIZED FREE ENERGY PREDICTED BY IDOCK:   -4.71 KCAL/MOL
REMARK 922        TOTAL FREE ENERGY PREDICTED BY IDOCK:   -6.09 KCAL/MOL
REMARK 923 INTER-LIGAND FREE ENERGY PREDICTED BY IDOCK:   -5.47 KCAL/MOL
REMARK 924 INTRA-LIGAND FREE ENERGY PREDICTED BY IDOCK:   -0.62 KCAL/MOL
REMARK 927      BINDING AFFINITY PREDICTED BY RF-SCORE:    0.00 PKD
ROOT
HETATM    1  C   UNL     1     -12.401  14.927  69.253  1.00  0.00    -0.103 C  
HETATM    2  O   UNL     1     -11.747  15.249  68.029  1.00  0.00    -0.342 OA 
ENDROOT
BRANCH   2   3
HETATM    3  C   UNL     1     -10.665  16.079  68.115  1.00  0.00    -0.311 A  
HETATM    4  C   UNL     1      -9.395  15.521  67.935  1.00  0.00    -0.192 A  
HETATM    5  C   UNL     1      -8.231  16.296  68.057  1.00  0.00    -0.157 A  
HETATM    6  S   UNL     1      -9.234  13.813  67.491  1.00  0.00    -0.227 S  
HETATM    7  O   UNL     1      -7.636  13.583  67.378  1.00  0.00    -0.165 OA 
HETATM    8  O   UNL     1      -9.777  13.641  66.160  1.00  0.00    -0.285 OA 
HETATM    9  C   UNL     1      -8.330  17.656  68.344  1.00  0.00    -0.290 A  
HETATM   10  O   UNL     1      -9.627  13.011  68.625  1.00  0.00    -0.149 OA 
HETATM   11  H   UNL     1     -10.638  19.894  69.080  1.00  0.00     0.000 HD 
HETATM   12  C   UNL     1      -9.596  18.209  68.570  1.00  0.00    -0.339 A  
HETATM   13  O   UNL     1      -9.779  19.518  68.927  1.00  0.00    -0.412 OA 
HETATM   14  C   UNL     1     -10.752  17.433  68.450  1.00  0.00    -0.301 A  
BRANCH   9  15
HETATM   15  C   UNL     1      -7.119  18.507  68.455  1.00  0.00    -0.272 C  
HETATM   16  O   UNL     1      -6.564  18.571  69.552  1.00  0.00    -0.252 OA 
BRANCH  15  17
HETATM   17  C   UNL     1      -6.588  19.306  67.319  1.00  0.00    -0.204 A  
HETATM   18  C   UNL     1      -5.979  20.535  67.600  1.00  0.00    -0.279 A  
HETATM   19  C   UNL     1      -5.534  21.352  66.559  1.00  0.00    -0.331 A  
HETATM   20  C   UNL     1      -5.693  20.944  65.236  1.00  0.00    -0.268 A  
HETATM   21  C   UNL     1      -6.293  19.718  64.950  1.00  0.00    -0.320 A  
HETATM   22  C   UNL     1      -6.751  18.903  65.987  1.00  0.00    -0.273 A  
ENDBRANCH  15  17
ENDBRANCH   9  15
ENDBRANCH   2   3
TORSDOF 3
ENDMDL
MODEL       98
REMARK 921   NORMALIZED FREE ENERGY PREDICTED BY IDOCK:   -4.69 KCAL/MOL
REMARK 922        TOTAL FREE ENERGY PREDICTED BY IDOCK:   -6.07 KCAL/MOL
REMARK 923 INTER-LIGAND FREE ENERGY PREDICTED BY IDOCK:   -5.68 KCAL/MOL
REMARK 924 INTRA-LIGAND FREE ENERGY PREDICTED BY IDOCK:   -0.39 KCAL/MOL
REMARK 927      BINDING AFFINITY PREDICTED BY RF-SCORE:    0.00 PKD
ROOT
HETATM    1  C   UNL     1      -7.950   4.257  71.188  1.00  0.00    -0.072 C  
HETATM    2  O   UNL     1      -8.200   5.371  70.336  1.00  0.00    -0.101 OA 
ENDROOT
BRANCH   2   3
HETATM    3  C   UNL     1      -9.274   6.154  70.654  1.00  0.00    -0.154 A  
HETATM    4  C   UNL     1     -10.043   6.668  69.604  1.00  0.00    -0.181 A  
HETATM    5  C   UNL     1     -11.131   7.521  69.844  1.00  0.00    -0.185 A  
HETATM    6  S   UNL     1      -9.683   6.203  67.933  1.00  0.00    -0.120 S  
HETATM    7  O   UNL     1     -10.787   6.998  67.055  1.00  0.00    -0.348 OA 
HETATM    8  O   UNL     1      -9.968   4.792  67.787  1.00  0.00    -0.157 OA 
HETATM    9  C   UNL     1     -11.476   7.855  71.153  1.00  0.00    -0.297 A  
HETATM   10  O   UNL     1      -8.428   6.809  67.553  1.00  0.00    -0.121 OA 
HETATM   11  H   UNL     1     -10.369   7.392  74.224  1.00  0.00     0.000 HD 
HETATM   12  C   UNL     1     -10.683   7.379  72.203  1.00  0.00    -0.225 A  
HETATM   13  O   UNL     1     -10.907   7.715  73.512  1.00  0.00    -0.340 OA 
HETATM   14  C   UNL     1      -9.597   6.532  71.959  1.00  0.00    -0.154 A  
BRANCH   9  15
HETATM   15  C   UNL     1     -12.637   8.734  71.441  1.00  0.00    -0.294 C  
HETATM   16  O   UNL     1     -13.668   8.201  71.853  1.00  0.00    -0.346 OA 
BRANCH  15  17
HETATM   17  C   UNL     1     -12.614  10.202  71.211  1.00  0.00    -0.508 A  
HETATM   18  C   UNL     1     -11.858  10.695  70.141  1.00  0.00    -0.421 A  
HETATM   19  C   UNL     1     -11.748  12.071  69.934  1.00  0.00    -0.374 A  
HETATM   20  C   UNL     1     -12.392  12.959  70.793  1.00  0.00    -0.385 A  
HETATM   21  C   UNL     1     -13.152  12.474  71.858  1.00  0.00    -0.473 A  
HETATM   22  C   UNL     1     -13.255  11.100  72.076  1.00  0.00    -0.428 A  
ENDBRANCH  15  17
ENDBRANCH   9  15
ENDBRANCH   2   3
TORSDOF 3
ENDMDL
MODEL       99
REMARK 921   NORMALIZED FREE ENERGY PREDICTED BY IDOCK:   -4.67 KCAL/MOL
REMARK 922        TOTAL FREE ENERGY PREDICTED BY IDOCK:   -6.05 KCAL/MOL
REMARK 923 INTER-LIGAND FREE ENERGY PREDICTED BY IDOCK:   -5.43 KCAL/MOL
REMARK 924 INTRA-LIGAND FREE ENERGY PREDICTED BY IDOCK:   -0.62 KCAL/MOL
REMARK 927      BINDING AFFINITY PREDICTED BY RF-SCORE:    0.00 PKD
ROOT
HETATM    1  C   UNL     1     -12.625  13.254  65.517  1.00  0.00    -0.446 C  
HETATM    2  O   UNL     1     -11.971  13.230  66.783  1.00  0.00    -0.382 OA 
ENDROOT
BRANCH   2   3
HETATM    3  C   UNL     1     -11.054  14.216  67.017  1.00  0.00    -0.307 A  
HETATM    4  C   UNL     1      -9.709  13.847  67.122  1.00  0.00    -0.244 A  
HETATM    5  C   UNL     1      -8.712  14.792  67.411  1.00  0.00    -0.210 A  
HETATM    6  S   UNL     1      -9.228  12.166  66.838  1.00  0.00    -0.207 S  
HETATM    7  O   UNL     1      -7.623  12.174  67.049  1.00  0.00    -0.148 OA 
HETATM    8  O   UNL     1      -9.465  11.860  65.443  1.00  0.00    -0.207 OA 
HETATM    9  C   UNL     1      -9.054  16.132  67.579  1.00  0.00    -0.207 A  
HETATM   10  O   UNL     1      -9.723  11.361  67.929  1.00  0.00    -0.171 OA 
HETATM   11  H   UNL     1     -11.750  18.027  67.701  1.00  0.00     0.000 HD 
HETATM   12  C   UNL     1     -10.404  16.498  67.518  1.00  0.00    -0.294 A  
HETATM   13  O   UNL     1     -10.834  17.779  67.741  1.00  0.00    -0.371 OA 
HETATM   14  C   UNL     1     -11.394  15.553  67.234  1.00  0.00    -0.167 A  
BRANCH   9  15
HETATM   15  C   UNL     1      -8.020  17.159  67.859  1.00  0.00    -0.192 C  
HETATM   16  O   UNL     1      -7.644  17.288  69.025  1.00  0.00    -0.245 OA 
BRANCH  15  17
HETATM   17  C   UNL     1      -7.464  18.053  66.809  1.00  0.00    -0.242 A  
HETATM   18  C   UNL     1      -6.305  17.646  66.137  1.00  0.00    -0.274 A  
HETATM   19  C   UNL     1      -5.707  18.488  65.198  1.00  0.00    -0.250 A  
HETATM   20  C   UNL     1      -6.265  19.735  64.923  1.00  0.00    -0.318 A  
HETATM   21  C   UNL     1      -7.423  20.143  65.585  1.00  0.00    -0.240 A  
HETATM   22  C   UNL     1      -8.017  19.311  66.534  1.00  0.00    -0.306 A  
ENDBRANCH  15  17
ENDBRANCH   9  15
ENDBRANCH   2   3
TORSDOF 3
ENDMDL
MODEL      100
REMARK 921   NORMALIZED FREE ENERGY PREDICTED BY IDOCK:   -4.65 KCAL/MOL
REMARK 922        TOTAL FREE ENERGY PREDICTED BY IDOCK:   -6.03 KCAL/MOL
REMARK 923 INTER-LIGAND FREE ENERGY PREDICTED BY IDOCK:   -5.37 KCAL/MOL
REMARK 924 INTRA-LIGAND FREE ENERGY PREDICTED BY IDOCK:   -0.66 KCAL/MOL
REMARK 927      BINDING AFFINITY PREDICTED BY RF-SCORE:    0.00 PKD
ROOT
HETATM    1  C   UNL     1     -13.355  12.477  71.943  1.00  0.00    -0.368 C  
HETATM    2  O   UNL     1     -13.137  11.694  70.773  1.00  0.00    -0.070 OA 
ENDROOT
BRANCH   2   3
HETATM    3  C   UNL     1     -12.184  10.718  70.860  1.00  0.00    -0.384 A  
HETATM    4  C   UNL     1     -11.188  10.687  69.878  1.00  0.00    -0.308 A  
HETATM    5  C   UNL     1     -10.202   9.687  69.867  1.00  0.00    -0.279 A  
HETATM    6  S   UNL     1     -11.122  11.956  68.644  1.00  0.00    -0.267 S  
HETATM    7  O   UNL     1      -9.847  11.554  67.731  1.00  0.00    -0.171 OA 
HETATM    8  O   UNL     1     -10.792  13.203  69.299  1.00  0.00    -0.144 OA 
HETATM    9  C   UNL     1     -10.193   8.711  70.862  1.00  0.00    -0.261 A  
HETATM   10  O   UNL     1     -12.253  11.791  67.762  1.00  0.00    -0.536 OA 
HETATM   11  H   UNL     1     -12.013   7.752  73.439  1.00  0.00     0.000 HD 
HETATM   12  C   UNL     1     -11.213   8.713  71.820  1.00  0.00    -0.326 A  
HETATM   13  O   UNL     1     -11.320   7.751  72.789  1.00  0.00    -0.370 OA 
HETATM   14  C   UNL     1     -12.195   9.708  71.825  1.00  0.00    -0.464 A  
BRANCH   9  15
HETATM   15  C   UNL     1      -9.150   7.657  70.893  1.00  0.00    -0.149 C  
HETATM   16  O   UNL     1      -8.086   7.921  71.456  1.00  0.00    -0.097 OA 
BRANCH  15  17
HETATM   17  C   UNL     1      -9.322   6.331  70.243  1.00  0.00    -0.170 A  
HETATM   18  C   UNL     1      -9.441   5.201  71.060  1.00  0.00    -0.214 A  
HETATM   19  C   UNL     1      -9.529   3.929  70.491  1.00  0.00    -0.251 A  
HETATM   20  C   UNL     1      -9.501   3.782  69.106  1.00  0.00    -0.242 A  
HETATM   21  C   UNL     1      -9.388   4.904  68.286  1.00  0.00    -0.168 A  
HETATM   22  C   UNL     1      -9.287   6.177  68.850  1.00  0.00    -0.126 A  
ENDBRANCH  15  17
ENDBRANCH   9  15
ENDBRANCH   2   3
TORSDOF 3
ENDMDL
MODEL      101
REMARK 921   NORMALIZED FREE ENERGY PREDICTED BY IDOCK:   -4.64 KCAL/MOL
REMARK 922        TOTAL FREE ENERGY PREDICTED BY IDOCK:   -6.01 KCAL/MOL
REMARK 923 INTER-LIGAND FREE ENERGY PREDICTED BY IDOCK:   -5.42 KCAL/MOL
REMARK 924 INTRA-LIGAND FREE ENERGY PREDICTED BY IDOCK:   -0.59 KCAL/MOL
REMARK 927      BINDING AFFINITY PREDICTED BY RF-SCORE:    0.00 PKD
ROOT
HETATM    1  C   UNL     1     -10.170   4.379  71.652  1.00  0.00    -0.116 C  
HETATM    2  O   UNL     1     -10.649   5.717  71.541  1.00  0.00    -0.230 OA 
ENDROOT
BRANCH   2   3
HETATM    3  C   UNL     1     -10.341   6.382  70.388  1.00  0.00    -0.205 A  
HETATM    4  C   UNL     1      -9.456   7.463  70.473  1.00  0.00    -0.161 A  
HETATM    5  C   UNL     1      -9.128   8.230  69.344  1.00  0.00    -0.154 A  
HETATM    6  S   UNL     1      -8.684   7.855  72.018  1.00  0.00    -0.151 S  
HETATM    7  O   UNL     1      -7.755   9.137  71.681  1.00  0.00    -0.338 OA 
HETATM    8  O   UNL     1      -7.791   6.769  72.362  1.00  0.00    -0.094 OA 
HETATM    9  C   UNL     1      -9.673   7.905  68.102  1.00  0.00    -0.177 A  
HETATM   10  O   UNL     1      -9.692   8.375  72.910  1.00  0.00    -0.263 OA 
HETATM   11  H   UNL     1     -11.853   5.801  66.803  1.00  0.00     0.000 HD 
HETATM   12  C   UNL     1     -10.593   6.854  68.022  1.00  0.00    -0.222 A  
HETATM   13  O   UNL     1     -11.229   6.514  66.857  1.00  0.00    -0.387 OA 
HETATM   14  C   UNL     1     -10.920   6.095  69.149  1.00  0.00    -0.450 A  
BRANCH   9  15
HETATM   15  C   UNL     1      -9.326   8.681  66.886  1.00  0.00    -0.170 C  
HETATM   16  O   UNL     1      -8.357   8.303  66.225  1.00  0.00    -0.113 OA 
BRANCH  15  17
HETATM   17  C   UNL     1     -10.065   9.901  66.468  1.00  0.00    -0.298 A  
HETATM   18  C   UNL     1      -9.963  10.315  65.134  1.00  0.00    -0.395 A  
HETATM   19  C   UNL     1     -10.579  11.495  64.716  1.00  0.00    -0.362 A  
HETATM   20  C   UNL     1     -11.301  12.265  65.626  1.00  0.00    -0.394 A  
HETATM   21  C   UNL     1     -11.411  11.855  66.955  1.00  0.00    -0.390 A  
HETATM   22  C   UNL     1     -10.787  10.682  67.380  1.00  0.00    -0.353 A  
ENDBRANCH  15  17
ENDBRANCH   9  15
ENDBRANCH   2   3
TORSDOF 3
ENDMDL
MODEL      102
REMARK 921   NORMALIZED FREE ENERGY PREDICTED BY IDOCK:   -4.63 KCAL/MOL
REMARK 922        TOTAL FREE ENERGY PREDICTED BY IDOCK:   -6.00 KCAL/MOL
REMARK 923 INTER-LIGAND FREE ENERGY PREDICTED BY IDOCK:   -5.49 KCAL/MOL
REMARK 924 INTRA-LIGAND FREE ENERGY PREDICTED BY IDOCK:   -0.52 KCAL/MOL
REMARK 927      BINDING AFFINITY PREDICTED BY RF-SCORE:    0.00 PKD
ROOT
HETATM    1  C   UNL     1      -9.235  16.090  65.889  1.00  0.00    -0.286 C  
HETATM    2  O   UNL     1     -10.392  15.320  65.573  1.00  0.00    -0.323 OA 
ENDROOT
BRANCH   2   3
HETATM    3  C   UNL     1     -10.689  14.289  66.419  1.00  0.00    -0.297 A  
HETATM    4  C   UNL     1     -11.144  13.092  65.857  1.00  0.00    -0.280 A  
HETATM    5  C   UNL     1     -11.518  12.002  66.660  1.00  0.00    -0.411 A  
HETATM    6  S   UNL     1     -11.207  12.908  64.096  1.00  0.00    -0.414 S  
HETATM    7  O   UNL     1     -11.772  11.407  63.875  1.00  0.00    -0.252 OA 
HETATM    8  O   UNL     1      -9.850  12.924  63.594  1.00  0.00    -0.199 OA 
HETATM    9  C   UNL     1     -11.420  12.097  68.047  1.00  0.00    -0.380 A  
HETATM   10  O   UNL     1     -12.258  13.758  63.588  1.00  0.00    -0.600 OA 
HETATM   11  H   UNL     1     -10.673  14.331  70.353  1.00  0.00     0.000 HD 
HETATM   12  C   UNL     1     -11.009  13.308  68.615  1.00  0.00    -0.264 A  
HETATM   13  O   UNL     1     -10.952  13.509  69.968  1.00  0.00     0.163 OA 
HETATM   14  C   UNL     1     -10.640  14.391  67.812  1.00  0.00    -0.246 A  
BRANCH   9  15
HETATM   15  C   UNL     1     -11.784  10.954  68.921  1.00  0.00    -0.306 C  
HETATM   16  O   UNL     1     -12.828  11.040  69.569  1.00  0.00    -0.188 OA 
BRANCH  15  17
HETATM   17  C   UNL     1     -10.926   9.750  69.074  1.00  0.00    -0.193 A  
HETATM   18  C   UNL     1     -10.273   9.550  70.297  1.00  0.00    -0.312 A  
HETATM   19  C   UNL     1      -9.399   8.474  70.458  1.00  0.00    -0.192 A  
HETATM   20  C   UNL     1      -9.176   7.592  69.402  1.00  0.00    -0.149 A  
HETATM   21  C   UNL     1      -9.828   7.782  68.184  1.00  0.00    -0.190 A  
HETATM   22  C   UNL     1     -10.693   8.864  68.013  1.00  0.00    -0.168 A  
ENDBRANCH  15  17
ENDBRANCH   9  15
ENDBRANCH   2   3
TORSDOF 3
ENDMDL
MODEL      103
REMARK 921   NORMALIZED FREE ENERGY PREDICTED BY IDOCK:   -4.57 KCAL/MOL
REMARK 922        TOTAL FREE ENERGY PREDICTED BY IDOCK:   -5.93 KCAL/MOL
REMARK 923 INTER-LIGAND FREE ENERGY PREDICTED BY IDOCK:   -5.27 KCAL/MOL
REMARK 924 INTRA-LIGAND FREE ENERGY PREDICTED BY IDOCK:   -0.66 KCAL/MOL
REMARK 927      BINDING AFFINITY PREDICTED BY RF-SCORE:    0.00 PKD
ROOT
HETATM    1  C   UNL     1     -10.340   8.578  68.744  1.00  0.00    -0.213 C  
HETATM    2  O   UNL     1      -9.533   9.724  68.999  1.00  0.00    -0.159 OA 
ENDROOT
BRANCH   2   3
HETATM    3  C   UNL     1      -9.768  10.822  68.220  1.00  0.00    -0.164 A  
HETATM    4  C   UNL     1      -8.670  11.597  67.833  1.00  0.00    -0.154 A  
HETATM    5  C   UNL     1      -8.832  12.769  67.076  1.00  0.00    -0.213 A  
HETATM    6  S   UNL     1      -7.029  11.079  68.253  1.00  0.00    -0.072 S  
HETATM    7  O   UNL     1      -6.079  12.229  67.624  1.00  0.00    -0.088 OA 
HETATM    8  O   UNL     1      -6.744   9.859  67.530  1.00  0.00    -0.071 OA 
HETATM    9  C   UNL     1     -10.107  13.167  66.679  1.00  0.00    -0.264 A  
HETATM   10  O   UNL     1      -6.859  11.222  69.679  1.00  0.00    -0.129 OA 
HETATM   11  H   UNL     1     -13.252  12.271  67.104  1.00  0.00     0.000 HD 
HETATM   12  C   UNL     1     -11.212  12.419  67.102  1.00  0.00    -0.298 A  
HETATM   13  O   UNL     1     -12.502  12.779  66.817  1.00  0.00    -0.336 OA 
HETATM   14  C   UNL     1     -11.046  11.255  67.858  1.00  0.00    -0.325 A  
BRANCH   9  15
HETATM   15  C   UNL     1     -10.309  14.386  65.857  1.00  0.00    -0.314 C  
HETATM   16  O   UNL     1     -10.343  14.251  64.633  1.00  0.00    -0.417 OA 
BRANCH  15  17
HETATM   17  C   UNL     1     -10.425  15.746  66.445  1.00  0.00    -0.307 A  
HETATM   18  C   UNL     1     -10.389  16.848  65.582  1.00  0.00    -0.254 A  
HETATM   19  C   UNL     1     -10.419  18.145  66.098  1.00  0.00    -0.377 A  
HETATM   20  C   UNL     1     -10.489  18.347  67.475  1.00  0.00    -0.445 A  
HETATM   21  C   UNL     1     -10.531  17.253  68.340  1.00  0.00    -0.381 A  
HETATM   22  C   UNL     1     -10.489  15.954  67.829  1.00  0.00    -0.287 A  
ENDBRANCH  15  17
ENDBRANCH   9  15
ENDBRANCH   2   3
TORSDOF 3
ENDMDL
MODEL      104
REMARK 921   NORMALIZED FREE ENERGY PREDICTED BY IDOCK:   -4.55 KCAL/MOL
REMARK 922        TOTAL FREE ENERGY PREDICTED BY IDOCK:   -5.92 KCAL/MOL
REMARK 923 INTER-LIGAND FREE ENERGY PREDICTED BY IDOCK:   -5.29 KCAL/MOL
REMARK 924 INTRA-LIGAND FREE ENERGY PREDICTED BY IDOCK:   -0.62 KCAL/MOL
REMARK 927      BINDING AFFINITY PREDICTED BY RF-SCORE:    0.00 PKD
ROOT
HETATM    1  C   UNL     1     -12.726  15.423  70.719  1.00  0.00    -0.459 C  
HETATM    2  O   UNL     1     -12.363  15.623  69.356  1.00  0.00    -0.266 OA 
ENDROOT
BRANCH   2   3
HETATM    3  C   UNL     1     -11.571  14.666  68.788  1.00  0.00    -0.317 A  
HETATM    4  C   UNL     1     -10.413  15.084  68.122  1.00  0.00    -0.245 A  
HETATM    5  C   UNL     1      -9.573  14.167  67.470  1.00  0.00    -0.223 A  
HETATM    6  S   UNL     1      -9.954  16.794  68.136  1.00  0.00    -0.283 S  
HETATM    7  O   UNL     1      -8.583  16.842  67.276  1.00  0.00    -0.186 OA 
HETATM    8  O   UNL     1      -9.609  17.156  69.494  1.00  0.00     0.026 OA 
HETATM    9  C   UNL     1      -9.877  12.807  67.495  1.00  0.00    -0.211 A  
HETATM   10  O   UNL     1     -10.901  17.526  67.329  1.00  0.00    -0.269 OA 
HETATM   11  H   UNL     1     -12.269  10.800  68.556  1.00  0.00     0.000 HD 
HETATM   12  C   UNL     1     -11.057  12.390  68.121  1.00  0.00    -0.247 A  
HETATM   13  O   UNL     1     -11.468  11.084  68.132  1.00  0.00    -0.310 OA 
HETATM   14  C   UNL     1     -11.893  13.306  68.767  1.00  0.00    -0.371 A  
BRANCH   9  15
HETATM   15  C   UNL     1      -8.996  11.812  66.837  1.00  0.00    -0.195 C  
HETATM   16  O   UNL     1      -8.054  11.361  67.492  1.00  0.00    -0.119 OA 
BRANCH  15  17
HETATM   17  C   UNL     1      -9.179  11.379  65.427  1.00  0.00    -0.167 A  
HETATM   18  C   UNL     1     -10.161  12.016  64.659  1.00  0.00    -0.313 A  
HETATM   19  C   UNL     1     -10.418  11.591  63.355  1.00  0.00    -0.466 A  
HETATM   20  C   UNL     1      -9.695  10.531  62.812  1.00  0.00    -0.265 A  
HETATM   21  C   UNL     1      -8.711   9.895  63.569  1.00  0.00    -0.223 A  
HETATM   22  C   UNL     1      -8.459  10.309  64.878  1.00  0.00    -0.182 A  
ENDBRANCH  15  17
ENDBRANCH   9  15
ENDBRANCH   2   3
TORSDOF 3
ENDMDL
MODEL      105
REMARK 921   NORMALIZED FREE ENERGY PREDICTED BY IDOCK:   -4.53 KCAL/MOL
REMARK 922        TOTAL FREE ENERGY PREDICTED BY IDOCK:   -5.89 KCAL/MOL
REMARK 923 INTER-LIGAND FREE ENERGY PREDICTED BY IDOCK:   -5.94 KCAL/MOL
REMARK 924 INTRA-LIGAND FREE ENERGY PREDICTED BY IDOCK:    0.05 KCAL/MOL
REMARK 927      BINDING AFFINITY PREDICTED BY RF-SCORE:    0.00 PKD
ROOT
HETATM    1  C   UNL     1     -13.524  15.686  71.771  1.00  0.00    -0.436 C  
HETATM    2  O   UNL     1     -12.947  15.150  70.584  1.00  0.00    -0.385 OA 
ENDROOT
BRANCH   2   3
HETATM    3  C   UNL     1     -12.638  13.818  70.603  1.00  0.00    -0.315 A  
HETATM    4  C   UNL     1     -11.761  13.336  69.625  1.00  0.00    -0.303 A  
HETATM    5  C   UNL     1     -11.433  11.973  69.545  1.00  0.00    -0.351 A  
HETATM    6  S   UNL     1     -10.999  14.460  68.488  1.00  0.00    -0.261 S  
HETATM    7  O   UNL     1     -10.078  13.513  67.553  1.00  0.00    -0.229 OA 
HETATM    8  O   UNL     1     -10.100  15.314  69.234  1.00  0.00    -0.227 OA 
HETATM    9  C   UNL     1     -11.970  11.075  70.465  1.00  0.00    -0.474 A  
HETATM   10  O   UNL     1     -12.015  14.958  67.592  1.00  0.00    -0.317 OA 
HETATM   11  H   UNL     1     -14.129  11.041  72.958  1.00  0.00     0.000 HD 
HETATM   12  C   UNL     1     -12.882  11.546  71.417  1.00  0.00    -0.384 A  
HETATM   13  O   UNL     1     -13.509  10.721  72.312  1.00  0.00    -0.330 OA 
HETATM   14  C   UNL     1     -13.208  12.903  71.491  1.00  0.00    -0.346 A  
BRANCH   9  15
HETATM   15  C   UNL     1     -11.622   9.633  70.422  1.00  0.00    -0.236 C  
HETATM   16  O   UNL     1     -12.400   8.842  70.958  1.00  0.00    -0.259 OA 
BRANCH  15  17
HETATM   17  C   UNL     1     -10.370   9.123  69.805  1.00  0.00    -0.226 A  
HETATM   18  C   UNL     1     -10.384   8.803  68.442  1.00  0.00    -0.242 A  
HETATM   19  C   UNL     1      -9.253   8.250  67.839  1.00  0.00    -0.140 A  
HETATM   20  C   UNL     1      -8.104   8.017  68.593  1.00  0.00    -0.125 A  
HETATM   21  C   UNL     1      -8.082   8.339  69.950  1.00  0.00    -0.117 A  
HETATM   22  C   UNL     1      -9.215   8.880  70.560  1.00  0.00    -0.239 A  
ENDBRANCH  15  17
ENDBRANCH   9  15
ENDBRANCH   2   3
TORSDOF 3
ENDMDL
MODEL      106
REMARK 921   NORMALIZED FREE ENERGY PREDICTED BY IDOCK:   -4.52 KCAL/MOL
REMARK 922        TOTAL FREE ENERGY PREDICTED BY IDOCK:   -5.88 KCAL/MOL
REMARK 923 INTER-LIGAND FREE ENERGY PREDICTED BY IDOCK:   -5.74 KCAL/MOL
REMARK 924 INTRA-LIGAND FREE ENERGY PREDICTED BY IDOCK:   -0.14 KCAL/MOL
REMARK 927      BINDING AFFINITY PREDICTED BY RF-SCORE:    0.00 PKD
ROOT
HETATM    1  C   UNL     1      -8.036   8.329  65.194  1.00  0.00    -0.142 C  
HETATM    2  O   UNL     1      -9.257   8.294  65.928  1.00  0.00    -0.181 OA 
ENDROOT
BRANCH   2   3
HETATM    3  C   UNL     1      -9.870   9.496  66.150  1.00  0.00    -0.272 A  
HETATM    4  C   UNL     1     -10.482   9.699  67.392  1.00  0.00    -0.257 A  
HETATM    5  C   UNL     1     -11.175  10.885  67.680  1.00  0.00    -0.379 A  
HETATM    6  S   UNL     1     -10.345   8.467  68.658  1.00  0.00    -0.174 S  
HETATM    7  O   UNL     1     -11.170   9.089  69.904  1.00  0.00    -0.195 OA 
HETATM    8  O   UNL     1      -8.958   8.396  69.067  1.00  0.00    -0.145 OA 
HETATM    9  C   UNL     1     -11.247  11.897  66.725  1.00  0.00    -0.384 A  
HETATM   10  O   UNL     1     -11.121   7.318  68.259  1.00  0.00    -0.033 OA 
HETATM   11  H   UNL     1     -10.373  12.443  63.592  1.00  0.00     0.000 HD 
HETATM   12  C   UNL     1     -10.675  11.680  65.466  1.00  0.00    -0.281 A  
HETATM   13  O   UNL     1     -10.761  12.591  64.447  1.00  0.00    -0.306 OA 
HETATM   14  C   UNL     1      -9.988  10.496  65.181  1.00  0.00    -0.375 A  
BRANCH   9  15
HETATM   15  C   UNL     1     -11.951  13.172  67.008  1.00  0.00    -0.355 C  
HETATM   16  O   UNL     1     -12.702  13.616  66.139  1.00  0.00    -0.373 OA 
BRANCH  15  17
HETATM   17  C   UNL     1     -11.750  13.942  68.264  1.00  0.00    -0.396 A  
HETATM   18  C   UNL     1     -10.928  15.076  68.224  1.00  0.00    -0.274 A  
HETATM   19  C   UNL     1     -10.653  15.784  69.394  1.00  0.00    -0.255 A  
HETATM   20  C   UNL     1     -11.197  15.367  70.607  1.00  0.00    -0.370 A  
HETATM   21  C   UNL     1     -12.021  14.243  70.653  1.00  0.00    -0.392 A  
HETATM   22  C   UNL     1     -12.290  13.523  69.487  1.00  0.00    -0.198 A  
ENDBRANCH  15  17
ENDBRANCH   9  15
ENDBRANCH   2   3
TORSDOF 3
ENDMDL
MODEL      107
REMARK 921   NORMALIZED FREE ENERGY PREDICTED BY IDOCK:   -4.51 KCAL/MOL
REMARK 922        TOTAL FREE ENERGY PREDICTED BY IDOCK:   -5.87 KCAL/MOL
REMARK 923 INTER-LIGAND FREE ENERGY PREDICTED BY IDOCK:   -5.50 KCAL/MOL
REMARK 924 INTRA-LIGAND FREE ENERGY PREDICTED BY IDOCK:   -0.37 KCAL/MOL
REMARK 927      BINDING AFFINITY PREDICTED BY RF-SCORE:    0.00 PKD
ROOT
HETATM    1  C   UNL     1      -6.790  11.004  66.563  1.00  0.00    -0.132 C  
HETATM    2  O   UNL     1      -7.567  11.806  67.448  1.00  0.00    -0.125 OA 
ENDROOT
BRANCH   2   3
HETATM    3  C   UNL     1      -8.345  11.139  68.353  1.00  0.00    -0.149 A  
HETATM    4  C   UNL     1      -9.734  11.230  68.214  1.00  0.00    -0.198 A  
HETATM    5  C   UNL     1     -10.602  10.616  69.131  1.00  0.00    -0.256 A  
HETATM    6  S   UNL     1     -10.431  12.088  66.830  1.00  0.00    -0.229 S  
HETATM    7  O   UNL     1     -12.030  11.951  67.045  1.00  0.00    -0.615 OA 
HETATM    8  O   UNL     1     -10.105  11.347  65.631  1.00  0.00    -0.227 OA 
HETATM    9  C   UNL     1     -10.082   9.882  70.195  1.00  0.00    -0.309 A  
HETATM   10  O   UNL     1     -10.172  13.499  66.994  1.00  0.00    -0.245 OA 
HETATM   11  H   UNL     1      -7.158   9.150  71.534  1.00  0.00     0.000 HD 
HETATM   12  C   UNL     1      -8.693   9.827  70.363  1.00  0.00    -0.056 A  
HETATM   13  O   UNL     1      -8.100   9.188  71.420  1.00  0.00    -0.318 OA 
HETATM   14  C   UNL     1      -7.832  10.442  69.450  1.00  0.00    -0.163 A  
BRANCH   9  15
HETATM   15  C   UNL     1     -10.973   9.201  71.166  1.00  0.00    -0.320 C  
HETATM   16  O   UNL     1     -11.861   9.871  71.695  1.00  0.00    -0.379 OA 
BRANCH  15  17
HETATM   17  C   UNL     1     -10.807   7.774  71.551  1.00  0.00    -0.260 A  
HETATM   18  C   UNL     1     -10.625   6.829  70.533  1.00  0.00    -0.260 A  
HETATM   19  C   UNL     1     -10.541   5.471  70.844  1.00  0.00    -0.309 A  
HETATM   20  C   UNL     1     -10.635   5.051  72.169  1.00  0.00    -0.259 A  
HETATM   21  C   UNL     1     -10.811   5.988  73.188  1.00  0.00    -0.287 A  
HETATM   22  C   UNL     1     -10.908   7.346  72.881  1.00  0.00    -0.402 A  
ENDBRANCH  15  17
ENDBRANCH   9  15
ENDBRANCH   2   3
TORSDOF 3
ENDMDL
MODEL      108
REMARK 921   NORMALIZED FREE ENERGY PREDICTED BY IDOCK:   -4.49 KCAL/MOL
REMARK 922        TOTAL FREE ENERGY PREDICTED BY IDOCK:   -5.84 KCAL/MOL
REMARK 923 INTER-LIGAND FREE ENERGY PREDICTED BY IDOCK:   -5.25 KCAL/MOL
REMARK 924 INTRA-LIGAND FREE ENERGY PREDICTED BY IDOCK:   -0.59 KCAL/MOL
REMARK 927      BINDING AFFINITY PREDICTED BY RF-SCORE:    0.00 PKD
ROOT
HETATM    1  C   UNL     1      -6.453   5.157  65.708  1.00  0.00    -0.040 C  
HETATM    2  O   UNL     1      -7.802   5.473  65.373  1.00  0.00    -0.093 OA 
ENDROOT
BRANCH   2   3
HETATM    3  C   UNL     1      -8.201   6.761  65.596  1.00  0.00    -0.134 A  
HETATM    4  C   UNL     1      -9.332   6.968  66.393  1.00  0.00    -0.138 A  
HETATM    5  C   UNL     1      -9.835   8.257  66.628  1.00  0.00    -0.337 A  
HETATM    6  S   UNL     1     -10.128   5.591  67.173  1.00  0.00    -0.213 S  
HETATM    7  O   UNL     1     -11.360   6.256  67.986  1.00  0.00    -0.260 OA 
HETATM    8  O   UNL     1      -9.220   5.045  68.159  1.00  0.00    -0.112 OA 
HETATM    9  C   UNL     1      -9.192   9.364  66.078  1.00  0.00    -0.253 A  
HETATM   10  O   UNL     1     -10.769   4.798  66.150  1.00  0.00    -0.308 OA 
HETATM   11  H   UNL     1      -6.691  10.044  64.040  1.00  0.00     0.000 HD 
HETATM   12  C   UNL     1      -8.087   9.159  65.244  1.00  0.00    -0.124 A  
HETATM   13  O   UNL     1      -7.440  10.184  64.606  1.00  0.00    -0.141 OA 
HETATM   14  C   UNL     1      -7.591   7.873  65.010  1.00  0.00    -0.098 A  
BRANCH   9  15
HETATM   15  C   UNL     1      -9.685  10.741  66.329  1.00  0.00    -0.205 C  
HETATM   16  O   UNL     1      -9.236  11.339  67.308  1.00  0.00    -0.163 OA 
BRANCH  15  17
HETATM   17  C   UNL     1     -10.716  11.396  65.482  1.00  0.00    -0.313 A  
HETATM   18  C   UNL     1     -10.637  11.232  64.094  1.00  0.00    -0.437 A  
HETATM   19  C   UNL     1     -11.539  11.890  63.257  1.00  0.00    -0.380 A  
HETATM   20  C   UNL     1     -12.523  12.713  63.801  1.00  0.00    -0.514 A  
HETATM   21  C   UNL     1     -12.611  12.877  65.184  1.00  0.00    -0.536 A  
HETATM   22  C   UNL     1     -11.703  12.230  66.025  1.00  0.00    -0.451 A  
ENDBRANCH  15  17
ENDBRANCH   9  15
ENDBRANCH   2   3
TORSDOF 3
ENDMDL
MODEL      109
REMARK 921   NORMALIZED FREE ENERGY PREDICTED BY IDOCK:   -4.49 KCAL/MOL
REMARK 922        TOTAL FREE ENERGY PREDICTED BY IDOCK:   -5.83 KCAL/MOL
REMARK 923 INTER-LIGAND FREE ENERGY PREDICTED BY IDOCK:   -5.21 KCAL/MOL
REMARK 924 INTRA-LIGAND FREE ENERGY PREDICTED BY IDOCK:   -0.63 KCAL/MOL
REMARK 927      BINDING AFFINITY PREDICTED BY RF-SCORE:    0.00 PKD
ROOT
HETATM    1  C   UNL     1     -10.416  11.286  68.755  1.00  0.00    -0.208 C  
HETATM    2  O   UNL     1     -11.304  10.762  69.738  1.00  0.00    -0.254 OA 
ENDROOT
BRANCH   2   3
HETATM    3  C   UNL     1     -10.803   9.788  70.556  1.00  0.00    -0.323 A  
HETATM    4  C   UNL     1     -11.635   9.287  71.563  1.00  0.00    -0.382 A  
HETATM    5  C   UNL     1     -11.180   8.322  72.476  1.00  0.00    -0.446 A  
HETATM    6  S   UNL     1     -13.317   9.831  71.673  1.00  0.00    -0.384 S  
HETATM    7  O   UNL     1     -13.912   9.020  72.942  1.00  0.00    -0.427 OA 
HETATM    8  O   UNL     1     -14.022   9.354  70.503  1.00  0.00     0.205 OA 
HETATM    9  C   UNL     1      -9.880   7.831  72.375  1.00  0.00    -0.264 A  
HETATM   10  O   UNL     1     -13.322  11.209  72.102  1.00  0.00    -0.452 OA 
HETATM   11  H   UNL     1      -7.142   8.347  70.610  1.00  0.00     0.000 HD 
HETATM   12  C   UNL     1      -9.030   8.361  71.397  1.00  0.00    -0.186 A  
HETATM   13  O   UNL     1      -7.719   7.987  71.273  1.00  0.00    -0.080 OA 
HETATM   14  C   UNL     1      -9.487   9.324  70.492  1.00  0.00    -0.317 A  
BRANCH   9  15
HETATM   15  C   UNL     1      -9.377   6.792  73.308  1.00  0.00    -0.136 C  
HETATM   16  O   UNL     1      -8.622   7.153  74.212  1.00  0.00    -0.163 OA 
BRANCH  15  17
HETATM   17  C   UNL     1      -9.711   5.351  73.167  1.00  0.00    -0.163 A  
HETATM   18  C   UNL     1      -8.898   4.557  72.348  1.00  0.00    -0.128 A  
HETATM   19  C   UNL     1      -9.219   3.217  72.128  1.00  0.00    -0.167 A  
HETATM   20  C   UNL     1     -10.349   2.663  72.725  1.00  0.00    -0.236 A  
HETATM   21  C   UNL     1     -11.160   3.446  73.547  1.00  0.00    -0.317 A  
HETATM   22  C   UNL     1     -10.850   4.790  73.760  1.00  0.00    -0.379 A  
ENDBRANCH  15  17
ENDBRANCH   9  15
ENDBRANCH   2   3
TORSDOF 3
ENDMDL
MODEL      110
REMARK 921   NORMALIZED FREE ENERGY PREDICTED BY IDOCK:   -4.45 KCAL/MOL
REMARK 922        TOTAL FREE ENERGY PREDICTED BY IDOCK:   -5.79 KCAL/MOL
REMARK 923 INTER-LIGAND FREE ENERGY PREDICTED BY IDOCK:   -5.23 KCAL/MOL
REMARK 924 INTRA-LIGAND FREE ENERGY PREDICTED BY IDOCK:   -0.56 KCAL/MOL
REMARK 927      BINDING AFFINITY PREDICTED BY RF-SCORE:    0.00 PKD
ROOT
HETATM    1  C   UNL     1     -10.313   7.199  70.365  1.00  0.00    -0.203 C  
HETATM    2  O   UNL     1      -9.480   8.338  70.567  1.00  0.00    -0.163 OA 
ENDROOT
BRANCH   2   3
HETATM    3  C   UNL     1      -9.839   9.481  69.911  1.00  0.00    -0.226 A  
HETATM    4  C   UNL     1      -8.916  10.044  69.023  1.00  0.00    -0.163 A  
HETATM    5  C   UNL     1      -9.187  11.244  68.347  1.00  0.00    -0.178 A  
HETATM    6  S   UNL     1      -7.387   9.212  68.691  1.00  0.00    -0.077 S  
HETATM    7  O   UNL     1      -6.634  10.176  67.631  1.00  0.00    -0.066 OA 
HETATM    8  O   UNL     1      -7.688   7.979  67.996  1.00  0.00    -0.112 OA 
HETATM    9  C   UNL     1     -10.408  11.889  68.542  1.00  0.00    -0.228 A  
HETATM   10  O   UNL     1      -6.566   9.281  69.876  1.00  0.00    -0.044 OA 
HETATM   11  H   UNL     1     -13.122  11.597  70.392  1.00  0.00     0.000 HD 
HETATM   12  C   UNL     1     -11.316  11.354  69.463  1.00  0.00    -0.289 A  
HETATM   13  O   UNL     1     -12.506  11.960  69.766  1.00  0.00    -0.103 OA 
HETATM   14  C   UNL     1     -11.040  10.160  70.136  1.00  0.00    -0.378 A  
BRANCH   9  15
HETATM   15  C   UNL     1     -10.735  13.145  67.823  1.00  0.00    -0.240 C  
HETATM   16  O   UNL     1     -10.575  14.207  68.427  1.00  0.00    -0.244 OA 
BRANCH  15  17
HETATM   17  C   UNL     1     -11.281  13.165  66.441  1.00  0.00    -0.328 A  
HETATM   18  C   UNL     1     -11.247  11.980  65.696  1.00  0.00    -0.377 A  
HETATM   19  C   UNL     1     -11.680  11.972  64.369  1.00  0.00    -0.399 A  
HETATM   20  C   UNL     1     -12.151  13.145  63.782  1.00  0.00    -0.563 A  
HETATM   21  C   UNL     1     -12.193  14.328  64.521  1.00  0.00    -0.476 A  
HETATM   22  C   UNL     1     -11.750  14.343  65.844  1.00  0.00    -0.371 A  
ENDBRANCH  15  17
ENDBRANCH   9  15
ENDBRANCH   2   3
TORSDOF 3
ENDMDL
MODEL      111
REMARK 921   NORMALIZED FREE ENERGY PREDICTED BY IDOCK:   -4.44 KCAL/MOL
REMARK 922        TOTAL FREE ENERGY PREDICTED BY IDOCK:   -5.79 KCAL/MOL
REMARK 923 INTER-LIGAND FREE ENERGY PREDICTED BY IDOCK:   -5.48 KCAL/MOL
REMARK 924 INTRA-LIGAND FREE ENERGY PREDICTED BY IDOCK:   -0.31 KCAL/MOL
REMARK 927      BINDING AFFINITY PREDICTED BY RF-SCORE:    0.00 PKD
ROOT
HETATM    1  C   UNL     1     -11.715  15.752  64.121  1.00  0.00    -0.067 C  
HETATM    2  O   UNL     1     -10.790  15.786  65.204  1.00  0.00    -0.400 OA 
ENDROOT
BRANCH   2   3
HETATM    3  C   UNL     1     -11.079  14.993  66.279  1.00  0.00    -0.334 A  
HETATM    4  C   UNL     1     -10.802  15.495  67.556  1.00  0.00    -0.306 A  
HETATM    5  C   UNL     1     -11.023  14.725  68.708  1.00  0.00    -0.267 A  
HETATM    6  S   UNL     1     -10.209  17.153  67.745  1.00  0.00    -0.338 S  
HETATM    7  O   UNL     1     -10.028  17.328  69.344  1.00  0.00    -0.172 OA 
HETATM    8  O   UNL     1     -11.264  18.057  67.342  1.00  0.00    -0.052 OA 
HETATM    9  C   UNL     1     -11.548  13.438  68.593  1.00  0.00    -0.362 A  
HETATM   10  O   UNL     1      -8.862  17.215  67.229  1.00  0.00    -0.212 OA 
HETATM   11  H   UNL     1     -12.392  11.284  66.244  1.00  0.00     0.000 HD 
HETATM   12  C   UNL     1     -11.784  12.916  67.316  1.00  0.00    -0.373 A  
HETATM   13  O   UNL     1     -12.232  11.639  67.110  1.00  0.00    -0.365 OA 
HETATM   14  C   UNL     1     -11.560  13.686  66.171  1.00  0.00    -0.369 A  
BRANCH   9  15
HETATM   15  C   UNL     1     -11.817  12.609  69.794  1.00  0.00    -0.309 C  
HETATM   16  O   UNL     1     -12.543  13.086  70.667  1.00  0.00    -0.280 OA 
BRANCH  15  17
HETATM   17  C   UNL     1     -11.216  11.265  69.998  1.00  0.00    -0.213 A  
HETATM   18  C   UNL     1      -9.913  11.043  69.533  1.00  0.00     0.074 A  
HETATM   19  C   UNL     1      -9.338   9.775  69.636  1.00  0.00    -0.237 A  
HETATM   20  C   UNL     1     -10.058   8.726  70.204  1.00  0.00    -0.203 A  
HETATM   21  C   UNL     1     -11.354   8.942  70.674  1.00  0.00    -0.299 A  
HETATM   22  C   UNL     1     -11.938  10.205  70.562  1.00  0.00    -0.400 A  
ENDBRANCH  15  17
ENDBRANCH   9  15
ENDBRANCH   2   3
TORSDOF 3
ENDMDL
MODEL      112
REMARK 921   NORMALIZED FREE ENERGY PREDICTED BY IDOCK:   -4.43 KCAL/MOL
REMARK 922        TOTAL FREE ENERGY PREDICTED BY IDOCK:   -5.77 KCAL/MOL
REMARK 923 INTER-LIGAND FREE ENERGY PREDICTED BY IDOCK:   -5.09 KCAL/MOL
REMARK 924 INTRA-LIGAND FREE ENERGY PREDICTED BY IDOCK:   -0.68 KCAL/MOL
REMARK 927      BINDING AFFINITY PREDICTED BY RF-SCORE:    0.00 PKD
ROOT
HETATM    1  C   UNL     1      -8.100   6.770  68.524  1.00  0.00    -0.120 C  
HETATM    2  O   UNL     1      -8.046   7.926  69.355  1.00  0.00    -0.120 OA 
ENDROOT
BRANCH   2   3
HETATM    3  C   UNL     1      -8.243   9.130  68.740  1.00  0.00    -0.109 A  
HETATM    4  C   UNL     1      -9.317   9.917  69.170  1.00  0.00    -0.193 A  
HETATM    5  C   UNL     1      -9.618  11.143  68.557  1.00  0.00    -0.193 A  
HETATM    6  S   UNL     1     -10.298   9.397  70.551  1.00  0.00    -0.303 S  
HETATM    7  O   UNL     1     -11.402  10.569  70.715  1.00  0.00    -0.327 OA 
HETATM    8  O   UNL     1      -9.465   9.436  71.734  1.00  0.00    -0.242 OA 
HETATM    9  C   UNL     1      -8.825  11.607  67.508  1.00  0.00    -0.158 A  
HETATM   10  O   UNL     1     -11.067   8.242  70.152  1.00  0.00    -0.252 OA 
HETATM   11  H   UNL     1      -6.284  10.603  65.662  1.00  0.00     0.000 HD 
HETATM   12  C   UNL     1      -7.777  10.803  67.045  1.00  0.00    -0.121 A  
HETATM   13  O   UNL     1      -6.995  11.149  65.976  1.00  0.00    -0.068 OA 
HETATM   14  C   UNL     1      -7.484   9.581  67.657  1.00  0.00    -0.091 A  
BRANCH   9  15
HETATM   15  C   UNL     1      -9.102  12.911  66.856  1.00  0.00    -0.224 C  
HETATM   16  O   UNL     1      -8.422  13.878  67.201  1.00  0.00    -0.203 OA 
BRANCH  15  17
HETATM   17  C   UNL     1     -10.180  13.098  65.850  1.00  0.00    -0.294 A  
HETATM   18  C   UNL     1     -10.619  11.979  65.131  1.00  0.00    -0.330 A  
HETATM   19  C   UNL     1     -11.576  12.122  64.126  1.00  0.00    -0.467 A  
HETATM   20  C   UNL     1     -12.101  13.380  63.835  1.00  0.00    -0.514 A  
HETATM   21  C   UNL     1     -11.673  14.497  64.552  1.00  0.00    -0.421 A  
HETATM   22  C   UNL     1     -10.706  14.361  65.550  1.00  0.00    -0.344 A  
ENDBRANCH  15  17
ENDBRANCH   9  15
ENDBRANCH   2   3
TORSDOF 3
ENDMDL
MODEL      113
REMARK 921   NORMALIZED FREE ENERGY PREDICTED BY IDOCK:   -4.42 KCAL/MOL
REMARK 922        TOTAL FREE ENERGY PREDICTED BY IDOCK:   -5.76 KCAL/MOL
REMARK 923 INTER-LIGAND FREE ENERGY PREDICTED BY IDOCK:   -5.08 KCAL/MOL
REMARK 924 INTRA-LIGAND FREE ENERGY PREDICTED BY IDOCK:   -0.68 KCAL/MOL
REMARK 927      BINDING AFFINITY PREDICTED BY RF-SCORE:    0.00 PKD
ROOT
HETATM    1  C   UNL     1     -10.480   1.579  72.269  1.00  0.00    -0.149 C  
HETATM    2  O   UNL     1      -9.368   2.371  71.861  1.00  0.00    -0.086 OA 
ENDROOT
BRANCH   2   3
HETATM    3  C   UNL     1      -9.494   3.724  72.013  1.00  0.00    -0.137 A  
HETATM    4  C   UNL     1      -9.029   4.544  70.979  1.00  0.00    -0.121 A  
HETATM    5  C   UNL     1      -9.076   5.944  71.080  1.00  0.00    -0.156 A  
HETATM    6  S   UNL     1      -8.415   3.822  69.484  1.00  0.00    -0.066 S  
HETATM    7  O   UNL     1      -7.997   5.093  68.573  1.00  0.00    -0.086 OA 
HETATM    8  O   UNL     1      -9.519   3.170  68.812  1.00  0.00    -0.173 OA 
HETATM    9  C   UNL     1      -9.611   6.540  72.220  1.00  0.00    -0.149 A  
HETATM   10  O   UNL     1      -7.160   3.170  69.776  1.00  0.00    -0.040 OA 
HETATM   11  H   UNL     1     -10.795   5.673  75.173  1.00  0.00     0.000 HD 
HETATM   12  C   UNL     1     -10.035   5.724  73.275  1.00  0.00    -0.179 A  
HETATM   13  O   UNL     1     -10.508   6.227  74.457  1.00  0.00    -0.268 OA 
HETATM   14  C   UNL     1      -9.985   4.330  73.172  1.00  0.00    -0.191 A  
BRANCH   9  15
HETATM   15  C   UNL     1      -9.698   8.016  72.346  1.00  0.00    -0.240 C  
HETATM   16  O   UNL     1      -8.770   8.597  72.911  1.00  0.00    -0.384 OA 
BRANCH  15  17
HETATM   17  C   UNL     1     -10.864   8.801  71.862  1.00  0.00    -0.431 A  
HETATM   18  C   UNL     1     -10.658   9.735  70.839  1.00  0.00    -0.344 A  
HETATM   19  C   UNL     1     -11.709  10.545  70.406  1.00  0.00    -0.434 A  
HETATM   20  C   UNL     1     -12.968  10.425  70.990  1.00  0.00    -0.490 A  
HETATM   21  C   UNL     1     -13.182   9.492  72.006  1.00  0.00    -0.539 A  
HETATM   22  C   UNL     1     -12.131   8.688  72.450  1.00  0.00    -0.415 A  
ENDBRANCH  15  17
ENDBRANCH   9  15
ENDBRANCH   2   3
TORSDOF 3
ENDMDL
MODEL      114
REMARK 921   NORMALIZED FREE ENERGY PREDICTED BY IDOCK:   -4.42 KCAL/MOL
REMARK 922        TOTAL FREE ENERGY PREDICTED BY IDOCK:   -5.75 KCAL/MOL
REMARK 923 INTER-LIGAND FREE ENERGY PREDICTED BY IDOCK:   -5.30 KCAL/MOL
REMARK 924 INTRA-LIGAND FREE ENERGY PREDICTED BY IDOCK:   -0.45 KCAL/MOL
REMARK 927      BINDING AFFINITY PREDICTED BY RF-SCORE:    0.00 PKD
ROOT
HETATM    1  C   UNL     1     -12.216  14.814  64.396  1.00  0.00    -0.428 C  
HETATM    2  O   UNL     1     -10.808  14.621  64.509  1.00  0.00    -0.338 OA 
ENDROOT
BRANCH   2   3
HETATM    3  C   UNL     1     -10.392  13.381  64.906  1.00  0.00    -0.366 A  
HETATM    4  C   UNL     1      -9.851  13.252  66.189  1.00  0.00    -0.280 A  
HETATM    5  C   UNL     1      -9.354  12.023  66.654  1.00  0.00    -0.221 A  
HETATM    6  S   UNL     1      -9.829  14.644  67.285  1.00  0.00    -0.234 S  
HETATM    7  O   UNL     1      -9.140  14.073  68.634  1.00  0.00    -0.179 OA 
HETATM    8  O   UNL     1     -11.198  14.973  67.620  1.00  0.00    -0.306 OA 
HETATM    9  C   UNL     1      -9.414  10.897  65.835  1.00  0.00    -0.241 A  
HETATM   10  O   UNL     1      -8.876  15.604  66.781  1.00  0.00    -0.225 OA 
HETATM   11  H   UNL     1     -10.283  10.085  62.759  1.00  0.00     0.000 HD 
HETATM   12  C   UNL     1      -9.914  11.032  64.535  1.00  0.00    -0.310 A  
HETATM   13  O   UNL     1      -9.944   9.994  63.642  1.00  0.00    -0.017 OA 
HETATM   14  C   UNL     1     -10.405  12.257  64.075  1.00  0.00    -0.423 A  
BRANCH   9  15
HETATM   15  C   UNL     1      -8.921   9.579  66.306  1.00  0.00    -0.157 C  
HETATM   16  O   UNL     1      -7.882   9.146  65.807  1.00  0.00    -0.096 OA 
BRANCH  15  17
HETATM   17  C   UNL     1      -9.648   8.757  67.310  1.00  0.00    -0.214 A  
HETATM   18  C   UNL     1      -9.561   9.125  68.658  1.00  0.00    -0.157 A  
HETATM   19  C   UNL     1     -10.165   8.339  69.640  1.00  0.00    -0.209 A  
HETATM   20  C   UNL     1     -10.860   7.186  69.282  1.00  0.00    -0.204 A  
HETATM   21  C   UNL     1     -10.955   6.817  67.940  1.00  0.00    -0.309 A  
HETATM   22  C   UNL     1     -10.343   7.593  66.955  1.00  0.00    -0.388 A  
ENDBRANCH  15  17
ENDBRANCH   9  15
ENDBRANCH   2   3
TORSDOF 3
ENDMDL
MODEL      115
REMARK 921   NORMALIZED FREE ENERGY PREDICTED BY IDOCK:   -4.41 KCAL/MOL
REMARK 922        TOTAL FREE ENERGY PREDICTED BY IDOCK:   -5.74 KCAL/MOL
REMARK 923 INTER-LIGAND FREE ENERGY PREDICTED BY IDOCK:   -5.65 KCAL/MOL
REMARK 924 INTRA-LIGAND FREE ENERGY PREDICTED BY IDOCK:   -0.09 KCAL/MOL
REMARK 927      BINDING AFFINITY PREDICTED BY RF-SCORE:    0.00 PKD
ROOT
HETATM    1  C   UNL     1      -8.118  10.118  63.319  1.00  0.00    -0.160 C  
HETATM    2  O   UNL     1      -8.847   9.245  64.177  1.00  0.00    -0.206 OA 
ENDROOT
BRANCH   2   3
HETATM    3  C   UNL     1      -9.392   9.805  65.297  1.00  0.00    -0.255 A  
HETATM    4  C   UNL     1      -8.902   9.392  66.541  1.00  0.00    -0.136 A  
HETATM    5  C   UNL     1      -9.443   9.881  67.740  1.00  0.00    -0.158 A  
HETATM    6  S   UNL     1      -7.536   8.267  66.624  1.00  0.00    -0.090 S  
HETATM    7  O   UNL     1      -7.290   8.061  68.210  1.00  0.00    -0.090 OA 
HETATM    8  O   UNL     1      -6.366   8.941  66.102  1.00  0.00    -0.062 OA 
HETATM    9  C   UNL     1     -10.478  10.814  67.705  1.00  0.00    -0.252 A  
HETATM   10  O   UNL     1      -7.984   6.973  66.165  1.00  0.00    -0.101 OA 
HETATM   11  H   UNL     1     -12.418  12.313  65.499  1.00  0.00     0.000 HD 
HETATM   12  C   UNL     1     -11.001  11.197  66.464  1.00  0.00    -0.209 A  
HETATM   13  O   UNL     1     -12.062  12.053  66.341  1.00  0.00    -0.610 OA 
HETATM   14  C   UNL     1     -10.461  10.705  65.272  1.00  0.00    -0.264 A  
BRANCH   9  15
HETATM   15  C   UNL     1     -11.053  11.370  68.955  1.00  0.00    -0.233 C  
HETATM   16  O   UNL     1     -11.132  12.595  69.052  1.00  0.00    -0.253 OA 
BRANCH  15  17
HETATM   17  C   UNL     1     -11.489  10.517  70.091  1.00  0.00    -0.405 A  
HETATM   18  C   UNL     1     -12.766  10.726  70.627  1.00  0.00    -0.417 A  
HETATM   19  C   UNL     1     -13.187   9.999  71.742  1.00  0.00    -0.540 A  
HETATM   20  C   UNL     1     -12.337   9.061  72.324  1.00  0.00    -0.402 A  
HETATM   21  C   UNL     1     -11.066   8.844  71.792  1.00  0.00    -0.433 A  
HETATM   22  C   UNL     1     -10.636   9.577  70.685  1.00  0.00    -0.374 A  
ENDBRANCH  15  17
ENDBRANCH   9  15
ENDBRANCH   2   3
TORSDOF 3
ENDMDL
MODEL      116
REMARK 921   NORMALIZED FREE ENERGY PREDICTED BY IDOCK:   -4.40 KCAL/MOL
REMARK 922        TOTAL FREE ENERGY PREDICTED BY IDOCK:   -5.73 KCAL/MOL
REMARK 923 INTER-LIGAND FREE ENERGY PREDICTED BY IDOCK:   -6.06 KCAL/MOL
REMARK 924 INTRA-LIGAND FREE ENERGY PREDICTED BY IDOCK:    0.33 KCAL/MOL
REMARK 927      BINDING AFFINITY PREDICTED BY RF-SCORE:    0.00 PKD
ROOT
HETATM    1  C   UNL     1      -9.568   5.147  68.026  1.00  0.00    -0.136 C  
HETATM    2  O   UNL     1     -10.343   5.739  69.064  1.00  0.00    -0.197 OA 
ENDROOT
BRANCH   2   3
HETATM    3  C   UNL     1     -10.443   7.102  69.050  1.00  0.00    -0.211 A  
HETATM    4  C   UNL     1     -10.661   7.755  70.269  1.00  0.00    -0.231 A  
HETATM    5  C   UNL     1     -10.825   9.148  70.333  1.00  0.00    -0.285 A  
HETATM    6  S   UNL     1     -10.681   6.828  71.778  1.00  0.00    -0.228 S  
HETATM    7  O   UNL     1     -10.950   7.941  72.922  1.00  0.00    -0.377 OA 
HETATM    8  O   UNL     1      -9.350   6.308  72.004  1.00  0.00    -0.152 OA 
HETATM    9  C   UNL     1     -10.752   9.909  69.168  1.00  0.00    -0.247 A  
HETATM   10  O   UNL     1     -11.872   6.012  71.794  1.00  0.00    -0.261 OA 
HETATM   11  H   UNL     1     -10.450   9.477  65.913  1.00  0.00     0.000 HD 
HETATM   12  C   UNL     1     -10.579   9.256  67.943  1.00  0.00    -0.231 A  
HETATM   13  O   UNL     1     -10.567   9.920  66.745  1.00  0.00    -0.208 OA 
HETATM   14  C   UNL     1     -10.420   7.869  67.883  1.00  0.00    -0.261 A  
BRANCH   9  15
HETATM   15  C   UNL     1     -10.896  11.386  69.207  1.00  0.00    -0.194 C  
HETATM   16  O   UNL     1     -10.154  12.051  68.483  1.00  0.00    -0.210 OA 
BRANCH  15  17
HETATM   17  C   UNL     1     -11.855  12.080  70.105  1.00  0.00    -0.383 A  
HETATM   18  C   UNL     1     -12.027  13.462  69.953  1.00  0.00    -0.408 A  
HETATM   19  C   UNL     1     -12.861  14.165  70.823  1.00  0.00    -0.378 A  
HETATM   20  C   UNL     1     -13.527  13.494  71.847  1.00  0.00    -0.528 A  
HETATM   21  C   UNL     1     -13.365  12.117  72.000  1.00  0.00    -0.470 A  
HETATM   22  C   UNL     1     -12.523  11.411  71.140  1.00  0.00    -0.465 A  
ENDBRANCH  15  17
ENDBRANCH   9  15
ENDBRANCH   2   3
TORSDOF 3
ENDMDL
MODEL      117
REMARK 921   NORMALIZED FREE ENERGY PREDICTED BY IDOCK:   -4.36 KCAL/MOL
REMARK 922        TOTAL FREE ENERGY PREDICTED BY IDOCK:   -5.68 KCAL/MOL
REMARK 923 INTER-LIGAND FREE ENERGY PREDICTED BY IDOCK:   -5.07 KCAL/MOL
REMARK 924 INTRA-LIGAND FREE ENERGY PREDICTED BY IDOCK:   -0.62 KCAL/MOL
REMARK 927      BINDING AFFINITY PREDICTED BY RF-SCORE:    0.00 PKD
ROOT
HETATM    1  C   UNL     1     -13.320  13.346  71.866  1.00  0.00    -0.451 C  
HETATM    2  O   UNL     1     -13.154  12.648  70.635  1.00  0.00     0.104 OA 
ENDROOT
BRANCH   2   3
HETATM    3  C   UNL     1     -12.242  11.630  70.629  1.00  0.00    -0.366 A  
HETATM    4  C   UNL     1     -11.245  11.650  69.648  1.00  0.00    -0.177 A  
HETATM    5  C   UNL     1     -10.301  10.616  69.543  1.00  0.00    -0.214 A  
HETATM    6  S   UNL     1     -11.121  13.027  68.540  1.00  0.00    -0.282 S  
HETATM    7  O   UNL     1      -9.860  12.660  67.594  1.00  0.00    -0.202 OA 
HETATM    8  O   UNL     1     -10.741  14.191  69.311  1.00  0.00    -0.223 OA 
HETATM    9  C   UNL     1     -10.337   9.550  70.441  1.00  0.00    -0.334 A  
HETATM   10  O   UNL     1     -12.254  12.993  67.647  1.00  0.00    -0.263 OA 
HETATM   11  H   UNL     1     -12.205   8.428  72.915  1.00  0.00     0.000 HD 
HETATM   12  C   UNL     1     -11.360   9.503  71.395  1.00  0.00    -0.392 A  
HETATM   13  O   UNL     1     -11.511   8.459  72.268  1.00  0.00    -0.342 OA 
HETATM   14  C   UNL     1     -12.299  10.534  71.494  1.00  0.00    -0.443 A  
BRANCH   9  15
HETATM   15  C   UNL     1      -9.338   8.455  70.372  1.00  0.00    -0.161 C  
HETATM   16  O   UNL     1      -8.267   8.620  70.957  1.00  0.00    -0.120 OA 
BRANCH  15  17
HETATM   17  C   UNL     1      -9.563   7.206  69.597  1.00  0.00    -0.154 A  
HETATM   18  C   UNL     1     -10.442   7.249  68.508  1.00  0.00    -0.215 A  
HETATM   19  C   UNL     1     -10.740   6.084  67.800  1.00  0.00    -0.369 A  
HETATM   20  C   UNL     1     -10.160   4.873  68.174  1.00  0.00    -0.141 A  
HETATM   21  C   UNL     1      -9.279   4.824  69.254  1.00  0.00    -0.172 A  
HETATM   22  C   UNL     1      -8.988   5.984  69.973  1.00  0.00    -0.149 A  
ENDBRANCH  15  17
ENDBRANCH   9  15
ENDBRANCH   2   3
TORSDOF 3
ENDMDL
MODEL      118
REMARK 921   NORMALIZED FREE ENERGY PREDICTED BY IDOCK:   -4.35 KCAL/MOL
REMARK 922        TOTAL FREE ENERGY PREDICTED BY IDOCK:   -5.67 KCAL/MOL
REMARK 923 INTER-LIGAND FREE ENERGY PREDICTED BY IDOCK:   -5.12 KCAL/MOL
REMARK 924 INTRA-LIGAND FREE ENERGY PREDICTED BY IDOCK:   -0.56 KCAL/MOL
REMARK 927      BINDING AFFINITY PREDICTED BY RF-SCORE:    0.00 PKD
ROOT
HETATM    1  C   UNL     1      -6.596   3.448  69.269  1.00  0.00    -0.034 C  
HETATM    2  O   UNL     1      -7.117   4.652  68.712  1.00  0.00    -0.051 OA 
ENDROOT
BRANCH   2   3
HETATM    3  C   UNL     1      -8.167   5.225  69.373  1.00  0.00    -0.095 A  
HETATM    4  C   UNL     1      -9.323   5.514  68.639  1.00  0.00    -0.125 A  
HETATM    5  C   UNL     1     -10.427   6.148  69.232  1.00  0.00    -0.314 A  
HETATM    6  S   UNL     1      -9.436   5.029  66.939  1.00  0.00    -0.155 S  
HETATM    7  O   UNL     1     -10.904   5.535  66.481  1.00  0.00    -0.288 OA 
HETATM    8  O   UNL     1      -9.456   3.583  66.884  1.00  0.00    -0.197 OA 
HETATM    9  C   UNL     1     -10.389   6.485  70.583  1.00  0.00    -0.239 A  
HETATM   10  O   UNL     1      -8.526   5.846  66.172  1.00  0.00    -0.122 OA 
HETATM   11  H   UNL     1      -8.276   6.436  73.115  1.00  0.00     0.000 HD 
HETATM   12  C   UNL     1      -9.218   6.240  71.310  1.00  0.00    -0.152 A  
HETATM   13  O   UNL     1      -9.071   6.603  72.622  1.00  0.00    -0.134 OA 
HETATM   14  C   UNL     1      -8.121   5.610  70.715  1.00  0.00    -0.117 A  
BRANCH   9  15
HETATM   15  C   UNL     1     -11.549   7.133  71.245  1.00  0.00    -0.294 C  
HETATM   16  O   UNL     1     -12.291   6.421  71.923  1.00  0.00    -0.345 OA 
BRANCH  15  17
HETATM   17  C   UNL     1     -11.866   8.577  71.085  1.00  0.00    -0.322 A  
HETATM   18  C   UNL     1     -11.046   9.349  70.253  1.00  0.00    -0.299 A  
HETATM   19  C   UNL     1     -11.262  10.722  70.134  1.00  0.00    -0.345 A  
HETATM   20  C   UNL     1     -12.297  11.330  70.841  1.00  0.00    -0.490 A  
HETATM   21  C   UNL     1     -13.121  10.566  71.668  1.00  0.00    -0.551 A  
HETATM   22  C   UNL     1     -12.901   9.194  71.800  1.00  0.00    -0.448 A  
ENDBRANCH  15  17
ENDBRANCH   9  15
ENDBRANCH   2   3
TORSDOF 3
ENDMDL
MODEL      119
REMARK 921   NORMALIZED FREE ENERGY PREDICTED BY IDOCK:   -4.33 KCAL/MOL
REMARK 922        TOTAL FREE ENERGY PREDICTED BY IDOCK:   -5.66 KCAL/MOL
REMARK 923 INTER-LIGAND FREE ENERGY PREDICTED BY IDOCK:   -5.03 KCAL/MOL
REMARK 924 INTRA-LIGAND FREE ENERGY PREDICTED BY IDOCK:   -0.63 KCAL/MOL
REMARK 927      BINDING AFFINITY PREDICTED BY RF-SCORE:    0.00 PKD
ROOT
HETATM    1  C   UNL     1      -8.925  15.316  67.604  1.00  0.00    -0.179 C  
HETATM    2  O   UNL     1      -9.662  14.610  66.609  1.00  0.00    -0.248 OA 
ENDROOT
BRANCH   2   3
HETATM    3  C   UNL     1      -9.688  13.248  66.719  1.00  0.00    -0.258 A  
HETATM    4  C   UNL     1     -10.773  12.567  66.158  1.00  0.00    -0.261 A  
HETATM    5  C   UNL     1     -10.899  11.173  66.271  1.00  0.00    -0.266 A  
HETATM    6  S   UNL     1     -11.996  13.456  65.236  1.00  0.00    -0.407 S  
HETATM    7  O   UNL     1     -13.045  12.316  64.768  1.00  0.00    -0.724 OA 
HETATM    8  O   UNL     1     -11.369  13.968  64.035  1.00  0.00    -0.226 OA 
HETATM    9  C   UNL     1      -9.919  10.440  66.938  1.00  0.00    -0.254 A  
HETATM   10  O   UNL     1     -12.751  14.274  66.154  1.00  0.00    -0.401 OA 
HETATM   11  H   UNL     1      -7.168  10.951  68.682  1.00  0.00     0.000 HD 
HETATM   12  C   UNL     1      -8.856  11.122  67.540  1.00  0.00    -0.139 A  
HETATM   13  O   UNL     1      -7.889  10.488  68.274  1.00  0.00    -0.104 OA 
HETATM   14  C   UNL     1      -8.736  12.511  67.427  1.00  0.00    -0.189 A  
BRANCH   9  15
HETATM   15  C   UNL     1     -10.011   8.963  67.053  1.00  0.00    -0.233 C  
HETATM   16  O   UNL     1     -10.683   8.502  67.977  1.00  0.00    -0.170 OA 
BRANCH  15  17
HETATM   17  C   UNL     1      -9.298   8.036  66.136  1.00  0.00    -0.212 A  
HETATM   18  C   UNL     1      -9.406   6.659  66.366  1.00  0.00    -0.175 A  
HETATM   19  C   UNL     1      -8.693   5.757  65.576  1.00  0.00    -0.141 A  
HETATM   20  C   UNL     1      -7.872   6.224  64.551  1.00  0.00    -0.115 A  
HETATM   21  C   UNL     1      -7.764   7.595  64.312  1.00  0.00    -0.131 A  
HETATM   22  C   UNL     1      -8.465   8.501  65.108  1.00  0.00    -0.193 A  
ENDBRANCH  15  17
ENDBRANCH   9  15
ENDBRANCH   2   3
TORSDOF 3
ENDMDL
MODEL      120
REMARK 921   NORMALIZED FREE ENERGY PREDICTED BY IDOCK:   -4.31 KCAL/MOL
REMARK 922        TOTAL FREE ENERGY PREDICTED BY IDOCK:   -5.63 KCAL/MOL
REMARK 923 INTER-LIGAND FREE ENERGY PREDICTED BY IDOCK:   -4.95 KCAL/MOL
REMARK 924 INTRA-LIGAND FREE ENERGY PREDICTED BY IDOCK:   -0.69 KCAL/MOL
REMARK 927      BINDING AFFINITY PREDICTED BY RF-SCORE:    0.00 PKD
ROOT
HETATM    1  C   UNL     1      -8.490   9.673  63.503  1.00  0.00    -0.188 C  
HETATM    2  O   UNL     1      -8.373   9.678  64.923  1.00  0.00    -0.131 OA 
ENDROOT
BRANCH   2   3
HETATM    3  C   UNL     1      -8.952  10.727  65.580  1.00  0.00    -0.193 A  
HETATM    4  C   UNL     1      -8.164  11.451  66.481  1.00  0.00    -0.152 A  
HETATM    5  C   UNL     1      -8.696  12.510  67.232  1.00  0.00    -0.193 A  
HETATM    6  S   UNL     1      -6.442  11.071  66.654  1.00  0.00    -0.138 S  
HETATM    7  O   UNL     1      -5.915  12.122  67.766  1.00  0.00    -0.067 OA 
HETATM    8  O   UNL     1      -5.780  11.408  65.412  1.00  0.00    -0.018 OA 
HETATM    9  C   UNL     1     -10.033  12.872  67.071  1.00  0.00    -0.244 A  
HETATM   10  O   UNL     1      -6.324   9.785  67.300  1.00  0.00    -0.066 OA 
HETATM   11  H   UNL     1     -12.719  11.855  65.452  1.00  0.00     0.000 HD 
HETATM   12  C   UNL     1     -10.836  12.122  66.204  1.00  0.00    -0.282 A  
HETATM   13  O   UNL     1     -12.174  12.364  66.040  1.00  0.00    -0.636 OA 
HETATM   14  C   UNL     1     -10.302  11.066  65.461  1.00  0.00    -0.321 A  
BRANCH   9  15
HETATM   15  C   UNL     1     -10.619  14.003  67.832  1.00  0.00    -0.244 C  
HETATM   16  O   UNL     1     -11.219  13.741  68.875  1.00  0.00    -0.248 OA 
BRANCH  15  17
HETATM   17  C   UNL     1     -10.547  15.413  67.365  1.00  0.00    -0.289 A  
HETATM   18  C   UNL     1     -10.538  16.431  68.326  1.00  0.00    -0.318 A  
HETATM   19  C   UNL     1     -10.547  17.770  67.930  1.00  0.00    -0.389 A  
HETATM   20  C   UNL     1     -10.563  18.097  66.576  1.00  0.00    -0.290 A  
HETATM   21  C   UNL     1     -10.566  17.087  65.613  1.00  0.00    -0.206 A  
HETATM   22  C   UNL     1     -10.569  15.747  66.004  1.00  0.00    -0.334 A  
ENDBRANCH  15  17
ENDBRANCH   9  15
ENDBRANCH   2   3
TORSDOF 3
ENDMDL
MODEL      121
REMARK 921   NORMALIZED FREE ENERGY PREDICTED BY IDOCK:   -4.31 KCAL/MOL
REMARK 922        TOTAL FREE ENERGY PREDICTED BY IDOCK:   -5.62 KCAL/MOL
REMARK 923 INTER-LIGAND FREE ENERGY PREDICTED BY IDOCK:   -5.01 KCAL/MOL
REMARK 924 INTRA-LIGAND FREE ENERGY PREDICTED BY IDOCK:   -0.62 KCAL/MOL
REMARK 927      BINDING AFFINITY PREDICTED BY RF-SCORE:    0.00 PKD
ROOT
HETATM    1  C   UNL     1     -10.873   6.680  68.319  1.00  0.00    -0.254 C  
HETATM    2  O   UNL     1      -9.833   7.490  68.862  1.00  0.00    -0.154 OA 
ENDROOT
BRANCH   2   3
HETATM    3  C   UNL     1      -9.904   8.830  68.601  1.00  0.00    -0.168 A  
HETATM    4  C   UNL     1      -8.968   9.667  69.218  1.00  0.00    -0.172 A  
HETATM    5  C   UNL     1      -9.004  11.060  69.041  1.00  0.00    -0.071 A  
HETATM    6  S   UNL     1      -7.671   8.970  70.203  1.00  0.00    -0.104 S  
HETATM    7  O   UNL     1      -6.828  10.255  70.712  1.00  0.00    -0.334 OA 
HETATM    8  O   UNL     1      -6.799   8.216  69.329  1.00  0.00    -0.049 OA 
HETATM    9  C   UNL     1      -9.976  11.630  68.222  1.00  0.00    -0.201 A  
HETATM   10  O   UNL     1      -8.256   8.433  71.408  1.00  0.00    -0.114 OA 
HETATM   11  H   UNL     1     -12.627  10.723  66.483  1.00  0.00     0.000 HD 
HETATM   12  C   UNL     1     -10.941  10.801  67.639  1.00  0.00    -0.306 A  
HETATM   13  O   UNL     1     -11.972  11.286  66.878  1.00  0.00    -0.327 OA 
HETATM   14  C   UNL     1     -10.904   9.415  67.820  1.00  0.00    -0.223 A  
BRANCH   9  15
HETATM   15  C   UNL     1     -10.025  13.096  67.995  1.00  0.00    -0.233 C  
HETATM   16  O   UNL     1      -9.448  13.540  67.001  1.00  0.00    -0.234 OA 
BRANCH  15  17
HETATM   17  C   UNL     1     -10.695  14.036  68.932  1.00  0.00    -0.265 A  
HETATM   18  C   UNL     1     -11.927  13.660  69.482  1.00  0.00    -0.397 A  
HETATM   19  C   UNL     1     -12.626  14.542  70.306  1.00  0.00    -0.378 A  
HETATM   20  C   UNL     1     -12.098  15.801  70.587  1.00  0.00    -0.424 A  
HETATM   21  C   UNL     1     -10.869  16.180  70.047  1.00  0.00    -0.349 A  
HETATM   22  C   UNL     1     -10.172  15.305  69.212  1.00  0.00    -0.250 A  
ENDBRANCH  15  17
ENDBRANCH   9  15
ENDBRANCH   2   3
TORSDOF 3
ENDMDL
MODEL      122
REMARK 921   NORMALIZED FREE ENERGY PREDICTED BY IDOCK:   -4.27 KCAL/MOL
REMARK 922        TOTAL FREE ENERGY PREDICTED BY IDOCK:   -5.57 KCAL/MOL
REMARK 923 INTER-LIGAND FREE ENERGY PREDICTED BY IDOCK:   -5.07 KCAL/MOL
REMARK 924 INTRA-LIGAND FREE ENERGY PREDICTED BY IDOCK:   -0.50 KCAL/MOL
REMARK 927      BINDING AFFINITY PREDICTED BY RF-SCORE:    0.00 PKD
ROOT
HETATM    1  C   UNL     1      -6.008  11.751  67.420  1.00  0.00    -0.105 C  
HETATM    2  O   UNL     1      -7.348  11.646  67.894  1.00  0.00    -0.086 OA 
ENDROOT
BRANCH   2   3
HETATM    3  C   UNL     1      -8.015  12.820  68.105  1.00  0.00    -0.156 A  
HETATM    4  C   UNL     1      -9.289  12.960  67.544  1.00  0.00    -0.190 A  
HETATM    5  C   UNL     1     -10.018  14.152  67.673  1.00  0.00    -0.233 A  
HETATM    6  S   UNL     1     -10.036  11.596  66.695  1.00  0.00    -0.208 S  
HETATM    7  O   UNL     1     -11.474  12.168  66.219  1.00  0.00    -0.347 OA 
HETATM    8  O   UNL     1     -10.299  10.553  67.663  1.00  0.00    -0.193 OA 
HETATM    9  C   UNL     1      -9.480  15.221  68.389  1.00  0.00    -0.206 A  
HETATM   10  O   UNL     1      -9.317  11.381  65.462  1.00  0.00    -0.221 OA 
HETATM   11  H   UNL     1      -6.680  16.044  69.923  1.00  0.00     0.000 HD 
HETATM   12  C   UNL     1      -8.188  15.101  68.913  1.00  0.00    -0.181 A  
HETATM   13  O   UNL     1      -7.557  16.125  69.568  1.00  0.00    -0.207 OA 
HETATM   14  C   UNL     1      -7.464  13.913  68.780  1.00  0.00    -0.114 A  
BRANCH   9  15
HETATM   15  C   UNL     1     -10.237  16.485  68.564  1.00  0.00    -0.266 C  
HETATM   16  O   UNL     1     -11.176  16.484  69.362  1.00  0.00    -0.286 OA 
BRANCH  15  17
HETATM   17  C   UNL     1      -9.936  17.719  67.792  1.00  0.00    -0.322 A  
HETATM   18  C   UNL     1     -10.505  17.863  66.521  1.00  0.00    -0.315 A  
HETATM   19  C   UNL     1     -10.189  18.970  65.732  1.00  0.00    -0.231 A  
HETATM   20  C   UNL     1      -9.308  19.938  66.208  1.00  0.00    -0.474 A  
HETATM   21  C   UNL     1      -8.742  19.804  67.476  1.00  0.00    -0.388 A  
HETATM   22  C   UNL     1      -9.045  18.692  68.264  1.00  0.00    -0.347 A  
ENDBRANCH  15  17
ENDBRANCH   9  15
ENDBRANCH   2   3
TORSDOF 3
ENDMDL
MODEL      123
REMARK 921   NORMALIZED FREE ENERGY PREDICTED BY IDOCK:   -4.24 KCAL/MOL
REMARK 922        TOTAL FREE ENERGY PREDICTED BY IDOCK:   -5.55 KCAL/MOL
REMARK 923 INTER-LIGAND FREE ENERGY PREDICTED BY IDOCK:   -5.00 KCAL/MOL
REMARK 924 INTRA-LIGAND FREE ENERGY PREDICTED BY IDOCK:   -0.55 KCAL/MOL
REMARK 927      BINDING AFFINITY PREDICTED BY RF-SCORE:    0.00 PKD
ROOT
HETATM    1  C   UNL     1      -7.281  14.927  69.438  1.00  0.00    -0.182 C  
HETATM    2  O   UNL     1      -8.514  14.840  68.730  1.00  0.00    -0.161 OA 
ENDROOT
BRANCH   2   3
HETATM    3  C   UNL     1      -8.670  13.760  67.906  1.00  0.00    -0.183 A  
HETATM    4  C   UNL     1      -9.902  13.600  67.263  1.00  0.00    -0.241 A  
HETATM    5  C   UNL     1     -10.160  12.492  66.441  1.00  0.00    -0.255 A  
HETATM    6  S   UNL     1     -11.158  14.837  67.437  1.00  0.00    -0.334 S  
HETATM    7  O   UNL     1     -12.390  14.277  66.549  1.00  0.00    -0.445 OA 
HETATM    8  O   UNL     1     -10.692  16.045  66.791  1.00  0.00    -0.317 OA 
HETATM    9  C   UNL     1      -9.168  11.534  66.237  1.00  0.00    -0.222 A  
HETATM   10  O   UNL     1     -11.653  14.794  68.792  1.00  0.00    -0.290 OA 
HETATM   11  H   UNL     1      -6.122  10.827  67.284  1.00  0.00     0.000 HD 
HETATM   12  C   UNL     1      -7.950  11.667  66.913  1.00  0.00    -0.161 A  
HETATM   13  O   UNL     1      -6.949  10.737  66.825  1.00  0.00    -0.104 OA 
HETATM   14  C   UNL     1      -7.699  12.771  67.733  1.00  0.00    -0.152 A  
BRANCH   9  15
HETATM   15  C   UNL     1      -9.400  10.365  65.353  1.00  0.00    -0.204 C  
HETATM   16  O   UNL     1      -9.538  10.578  64.147  1.00  0.00    -0.260 OA 
BRANCH  15  17
HETATM   17  C   UNL     1      -9.516   8.975  65.867  1.00  0.00    -0.317 A  
HETATM   18  C   UNL     1     -10.477   8.708  66.850  1.00  0.00    -0.329 A  
HETATM   19  C   UNL     1     -10.569   7.435  67.414  1.00  0.00    -0.371 A  
HETATM   20  C   UNL     1      -9.706   6.424  66.998  1.00  0.00    -0.182 A  
HETATM   21  C   UNL     1      -8.750   6.681  66.015  1.00  0.00    -0.155 A  
HETATM   22  C   UNL     1      -8.646   7.956  65.457  1.00  0.00    -0.139 A  
ENDBRANCH  15  17
ENDBRANCH   9  15
ENDBRANCH   2   3
TORSDOF 3
ENDMDL
MODEL      124
REMARK 921   NORMALIZED FREE ENERGY PREDICTED BY IDOCK:   -4.24 KCAL/MOL
REMARK 922        TOTAL FREE ENERGY PREDICTED BY IDOCK:   -5.54 KCAL/MOL
REMARK 923 INTER-LIGAND FREE ENERGY PREDICTED BY IDOCK:   -4.93 KCAL/MOL
REMARK 924 INTRA-LIGAND FREE ENERGY PREDICTED BY IDOCK:   -0.62 KCAL/MOL
REMARK 927      BINDING AFFINITY PREDICTED BY RF-SCORE:    0.00 PKD
ROOT
HETATM    1  C   UNL     1     -10.415   5.300  66.218  1.00  0.00    -0.255 C  
HETATM    2  O   UNL     1      -9.222   6.055  66.404  1.00  0.00    -0.146 OA 
ENDROOT
BRANCH   2   3
HETATM    3  C   UNL     1      -9.343   7.415  66.337  1.00  0.00    -0.155 A  
HETATM    4  C   UNL     1      -8.372   8.124  65.621  1.00  0.00    -0.143 A  
HETATM    5  C   UNL     1      -8.397   9.526  65.547  1.00  0.00    -0.137 A  
HETATM    6  S   UNL     1      -7.107   7.250  64.741  1.00  0.00    -0.068 S  
HETATM    7  O   UNL     1      -6.219   8.420  64.062  1.00  0.00    -0.066 OA 
HETATM    8  O   UNL     1      -7.735   6.520  63.661  1.00  0.00    -0.103 OA 
HETATM    9  C   UNL     1      -9.416  10.236  66.178  1.00  0.00    -0.229 A  
HETATM   10  O   UNL     1      -6.218   6.647  65.705  1.00  0.00    -0.036 OA 
HETATM   11  H   UNL     1     -11.997   9.681  68.154  1.00  0.00     0.000 HD 
HETATM   12  C   UNL     1     -10.363   9.534  66.933  1.00  0.00    -0.237 A  
HETATM   13  O   UNL     1     -11.355  10.158  67.642  1.00  0.00    -0.282 OA 
HETATM   14  C   UNL     1     -10.333   8.139  67.007  1.00  0.00    -0.403 A  
BRANCH   9  15
HETATM   15  C   UNL     1      -9.484  11.717  66.097  1.00  0.00    -0.224 C  
HETATM   16  O   UNL     1      -8.641  12.363  66.721  1.00  0.00    -0.190 OA 
BRANCH  15  17
HETATM   17  C   UNL     1     -10.541  12.435  65.338  1.00  0.00    -0.316 A  
HETATM   18  C   UNL     1     -10.959  11.901  64.113  1.00  0.00    -0.430 A  
HETATM   19  C   UNL     1     -11.895  12.582  63.333  1.00  0.00    -0.587 A  
HETATM   20  C   UNL     1     -12.418  13.796  63.773  1.00  0.00    -0.219 A  
HETATM   21  C   UNL     1     -12.011  14.331  64.995  1.00  0.00    -0.412 A  
HETATM   22  C   UNL     1     -11.066  13.660  65.773  1.00  0.00    -0.292 A  
ENDBRANCH  15  17
ENDBRANCH   9  15
ENDBRANCH   2   3
TORSDOF 3
ENDMDL
MODEL      125
REMARK 921   NORMALIZED FREE ENERGY PREDICTED BY IDOCK:   -4.22 KCAL/MOL
REMARK 922        TOTAL FREE ENERGY PREDICTED BY IDOCK:   -5.52 KCAL/MOL
REMARK 923 INTER-LIGAND FREE ENERGY PREDICTED BY IDOCK:   -4.89 KCAL/MOL
REMARK 924 INTRA-LIGAND FREE ENERGY PREDICTED BY IDOCK:   -0.63 KCAL/MOL
REMARK 927      BINDING AFFINITY PREDICTED BY RF-SCORE:    0.00 PKD
ROOT
HETATM    1  C   UNL     1      -9.470  19.682  66.089  1.00  0.00    -0.369 C  
HETATM    2  O   UNL     1      -8.542  18.639  66.376  1.00  0.00    -0.291 OA 
ENDROOT
BRANCH   2   3
HETATM    3  C   UNL     1      -9.068  17.457  66.816  1.00  0.00    -0.260 A  
HETATM    4  C   UNL     1      -8.395  16.782  67.840  1.00  0.00    -0.195 A  
HETATM    5  C   UNL     1      -8.842  15.538  68.313  1.00  0.00    -0.179 A  
HETATM    6  S   UNL     1      -6.977  17.519  68.604  1.00  0.00    -0.241 S  
HETATM    7  O   UNL     1      -6.519  16.435  69.715  1.00  0.00    -0.212 OA 
HETATM    8  O   UNL     1      -7.416  18.697  69.323  1.00  0.00    -0.192 OA 
HETATM    9  C   UNL     1      -9.991  14.962  67.772  1.00  0.00    -0.222 A  
HETATM   10  O   UNL     1      -5.896  17.523  67.647  1.00  0.00    -0.133 OA 
HETATM   11  H   UNL     1     -12.174  15.526  65.366  1.00  0.00     0.000 HD 
HETATM   12  C   UNL     1     -10.641  15.613  66.717  1.00  0.00    -0.307 A  
HETATM   13  O   UNL     1     -11.733  15.084  66.082  1.00  0.00    -0.242 OA 
HETATM   14  C   UNL     1     -10.191  16.850  66.247  1.00  0.00    -0.337 A  
BRANCH   9  15
HETATM   15  C   UNL     1     -10.503  13.661  68.268  1.00  0.00    -0.249 C  
HETATM   16  O   UNL     1     -11.362  13.684  69.151  1.00  0.00    -0.261 OA 
BRANCH  15  17
HETATM   17  C   UNL     1      -9.994  12.353  67.778  1.00  0.00    -0.205 A  
HETATM   18  C   UNL     1      -9.843  12.175  66.397  1.00  0.00    -0.242 A  
HETATM   19  C   UNL     1      -9.440  10.939  65.889  1.00  0.00    -0.241 A  
HETATM   20  C   UNL     1      -9.184   9.878  66.755  1.00  0.00    -0.176 A  
HETATM   21  C   UNL     1      -9.327  10.051  68.132  1.00  0.00    -0.137 A  
HETATM   22  C   UNL     1      -9.742  11.281  68.645  1.00  0.00    -0.200 A  
ENDBRANCH  15  17
ENDBRANCH   9  15
ENDBRANCH   2   3
TORSDOF 3
ENDMDL
MODEL      126
REMARK 921   NORMALIZED FREE ENERGY PREDICTED BY IDOCK:   -4.22 KCAL/MOL
REMARK 922        TOTAL FREE ENERGY PREDICTED BY IDOCK:   -5.52 KCAL/MOL
REMARK 923 INTER-LIGAND FREE ENERGY PREDICTED BY IDOCK:   -5.01 KCAL/MOL
REMARK 924 INTRA-LIGAND FREE ENERGY PREDICTED BY IDOCK:   -0.51 KCAL/MOL
REMARK 927      BINDING AFFINITY PREDICTED BY RF-SCORE:    0.00 PKD
ROOT
HETATM    1  C   UNL     1      -8.012  11.269  68.264  1.00  0.00    -0.134 C  
HETATM    2  O   UNL     1      -7.937   9.850  68.151  1.00  0.00    -0.099 OA 
ENDROOT
BRANCH   2   3
HETATM    3  C   UNL     1      -8.626   9.126  69.084  1.00  0.00    -0.133 A  
HETATM    4  C   UNL     1      -9.602   8.234  68.629  1.00  0.00    -0.149 A  
HETATM    5  C   UNL     1     -10.388   7.490  69.525  1.00  0.00    -0.216 A  
HETATM    6  S   UNL     1      -9.833   7.983  66.891  1.00  0.00    -0.273 S  
HETATM    7  O   UNL     1     -11.026   6.894  66.803  1.00  0.00    -0.329 OA 
HETATM    8  O   UNL     1      -8.644   7.345  66.367  1.00  0.00    -0.121 OA 
HETATM    9  C   UNL     1     -10.186   7.621  70.898  1.00  0.00    -0.202 A  
HETATM   10  O   UNL     1     -10.408   9.183  66.332  1.00  0.00    -0.258 OA 
HETATM   11  H   UNL     1      -8.389   9.416  73.000  1.00  0.00     0.000 HD 
HETATM   12  C   UNL     1      -9.241   8.546  71.357  1.00  0.00    -0.210 A  
HETATM   13  O   UNL     1      -9.030   8.789  72.688  1.00  0.00    -0.380 OA 
HETATM   14  C   UNL     1      -8.464   9.286  70.462  1.00  0.00    -0.251 A  
BRANCH   9  15
HETATM   15  C   UNL     1     -10.982   6.831  71.869  1.00  0.00    -0.239 C  
HETATM   16  O   UNL     1     -11.936   7.388  72.414  1.00  0.00    -0.269 OA 
BRANCH  15  17
HETATM   17  C   UNL     1     -10.649   5.429  72.234  1.00  0.00    -0.280 A  
HETATM   18  C   UNL     1      -9.881   4.674  71.339  1.00  0.00    -0.264 A  
HETATM   19  C   UNL     1      -9.608   3.332  71.606  1.00  0.00    -0.230 A  
HETATM   20  C   UNL     1     -10.098   2.738  72.768  1.00  0.00    -0.225 A  
HETATM   21  C   UNL     1     -10.859   3.486  73.667  1.00  0.00    -0.324 A  
HETATM   22  C   UNL     1     -11.145   4.826  73.398  1.00  0.00    -0.422 A  
ENDBRANCH  15  17
ENDBRANCH   9  15
ENDBRANCH   2   3
TORSDOF 3
ENDMDL
MODEL      127
REMARK 921   NORMALIZED FREE ENERGY PREDICTED BY IDOCK:   -4.19 KCAL/MOL
REMARK 922        TOTAL FREE ENERGY PREDICTED BY IDOCK:   -5.49 KCAL/MOL
REMARK 923 INTER-LIGAND FREE ENERGY PREDICTED BY IDOCK:   -4.86 KCAL/MOL
REMARK 924 INTRA-LIGAND FREE ENERGY PREDICTED BY IDOCK:   -0.63 KCAL/MOL
REMARK 927      BINDING AFFINITY PREDICTED BY RF-SCORE:    0.00 PKD
ROOT
HETATM    1  C   UNL     1      -8.206  11.944  67.111  1.00  0.00    -0.171 C  
HETATM    2  O   UNL     1      -9.223  10.964  67.303  1.00  0.00    -0.150 OA 
ENDROOT
BRANCH   2   3
HETATM    3  C   UNL     1      -9.158  10.234  68.456  1.00  0.00    -0.138 A  
HETATM    4  C   UNL     1     -10.111  10.491  69.448  1.00  0.00    -0.209 A  
HETATM    5  C   UNL     1     -10.083   9.821  70.681  1.00  0.00    -0.252 A  
HETATM    6  S   UNL     1     -11.419  11.646  69.140  1.00  0.00    -0.329 S  
HETATM    7  O   UNL     1     -12.282  11.640  70.510  1.00  0.00    -0.356 OA 
HETATM    8  O   UNL     1     -12.271  11.095  68.107  1.00  0.00    -0.612 OA 
HETATM    9  C   UNL     1      -9.102   8.863  70.927  1.00  0.00    -0.283 A  
HETATM   10  O   UNL     1     -10.852  12.971  69.085  1.00  0.00    -0.195 OA 
HETATM   11  H   UNL     1      -6.414   7.610  69.486  1.00  0.00     0.000 HD 
HETATM   12  C   UNL     1      -8.120   8.635  69.956  1.00  0.00    -0.112 A  
HETATM   13  O   UNL     1      -7.080   7.764  70.145  1.00  0.00    -0.053 OA 
HETATM   14  C   UNL     1      -8.150   9.307  68.731  1.00  0.00    -0.104 A  
BRANCH   9  15
HETATM   15  C   UNL     1      -9.061   8.119  72.211  1.00  0.00    -0.199 C  
HETATM   16  O   UNL     1      -8.527   8.670  73.174  1.00  0.00    -0.398 OA 
BRANCH  15  17
HETATM   17  C   UNL     1      -9.592   6.739  72.361  1.00  0.00    -0.164 A  
HETATM   18  C   UNL     1     -10.961   6.578  72.613  1.00  0.00    -0.287 A  
HETATM   19  C   UNL     1     -11.488   5.305  72.835  1.00  0.00    -0.339 A  
HETATM   20  C   UNL     1     -10.654   4.189  72.804  1.00  0.00    -0.226 A  
HETATM   21  C   UNL     1      -9.292   4.342  72.548  1.00  0.00    -0.155 A  
HETATM   22  C   UNL     1      -8.757   5.614  72.337  1.00  0.00    -0.128 A  
ENDBRANCH  15  17
ENDBRANCH   9  15
ENDBRANCH   2   3
TORSDOF 3
ENDMDL
MODEL      128
REMARK 921   NORMALIZED FREE ENERGY PREDICTED BY IDOCK:   -4.17 KCAL/MOL
REMARK 922        TOTAL FREE ENERGY PREDICTED BY IDOCK:   -5.46 KCAL/MOL
REMARK 923 INTER-LIGAND FREE ENERGY PREDICTED BY IDOCK:   -4.78 KCAL/MOL
REMARK 924 INTRA-LIGAND FREE ENERGY PREDICTED BY IDOCK:   -0.68 KCAL/MOL
REMARK 927      BINDING AFFINITY PREDICTED BY RF-SCORE:    0.00 PKD
ROOT
HETATM    1  C   UNL     1     -12.296  12.489  70.436  1.00  0.00    -0.232 C  
HETATM    2  O   UNL     1     -12.492  11.830  69.188  1.00  0.00    -0.142 OA 
ENDROOT
BRANCH   2   3
HETATM    3  C   UNL     1     -11.597  10.848  68.869  1.00  0.00    -0.309 A  
HETATM    4  C   UNL     1     -10.933  10.941  67.641  1.00  0.00    -0.293 A  
HETATM    5  C   UNL     1     -10.036   9.948  67.216  1.00  0.00    -0.264 A  
HETATM    6  S   UNL     1     -11.176  12.360  66.609  1.00  0.00    -0.335 S  
HETATM    7  O   UNL     1     -10.241  12.076  65.319  1.00  0.00    -0.257 OA 
HETATM    8  O   UNL     1     -10.616  13.510  67.287  1.00  0.00    -0.260 OA 
HETATM    9  C   UNL     1      -9.779   8.850  68.036  1.00  0.00    -0.181 A  
HETATM   10  O   UNL     1     -12.521  12.317  66.086  1.00  0.00    -0.466 OA 
HETATM   11  H   UNL     1     -10.807   7.570  70.895  1.00  0.00     0.000 HD 
HETATM   12  C   UNL     1     -10.474   8.730  69.244  1.00  0.00    -0.219 A  
HETATM   13  O   UNL     1     -10.334   7.651  70.075  1.00  0.00    -0.212 OA 
HETATM   14  C   UNL     1     -11.368   9.721  69.662  1.00  0.00    -0.165 A  
BRANCH   9  15
HETATM   15  C   UNL     1      -8.817   7.796  67.627  1.00  0.00    -0.128 C  
HETATM   16  O   UNL     1      -7.663   7.881  68.049  1.00  0.00    -0.119 OA 
BRANCH  15  17
HETATM   17  C   UNL     1      -9.179   6.686  66.707  1.00  0.00    -0.168 A  
HETATM   18  C   UNL     1     -10.417   6.056  66.882  1.00  0.00    -0.344 A  
HETATM   19  C   UNL     1     -10.766   4.961  66.090  1.00  0.00    -0.243 A  
HETATM   20  C   UNL     1      -9.882   4.493  65.118  1.00  0.00    -0.156 A  
HETATM   21  C   UNL     1      -8.650   5.121  64.935  1.00  0.00    -0.151 A  
HETATM   22  C   UNL     1      -8.292   6.208  65.733  1.00  0.00    -0.143 A  
ENDBRANCH  15  17
ENDBRANCH   9  15
ENDBRANCH   2   3
TORSDOF 3
ENDMDL
MODEL      129
REMARK 921   NORMALIZED FREE ENERGY PREDICTED BY IDOCK:   -4.17 KCAL/MOL
REMARK 922        TOTAL FREE ENERGY PREDICTED BY IDOCK:   -5.46 KCAL/MOL
REMARK 923 INTER-LIGAND FREE ENERGY PREDICTED BY IDOCK:   -5.06 KCAL/MOL
REMARK 924 INTRA-LIGAND FREE ENERGY PREDICTED BY IDOCK:   -0.40 KCAL/MOL
REMARK 927      BINDING AFFINITY PREDICTED BY RF-SCORE:    0.00 PKD
ROOT
HETATM    1  C   UNL     1      -7.527   6.189  67.628  1.00  0.00    -0.088 C  
HETATM    2  O   UNL     1      -7.238   7.460  67.052  1.00  0.00    -0.084 OA 
ENDROOT
BRANCH   2   3
HETATM    3  C   UNL     1      -8.221   8.406  67.136  1.00  0.00    -0.108 A  
HETATM    4  C   UNL     1      -8.572   9.090  65.967  1.00  0.00    -0.142 A  
HETATM    5  C   UNL     1      -9.537  10.110  65.979  1.00  0.00    -0.265 A  
HETATM    6  S   UNL     1      -7.834   8.638  64.422  1.00  0.00    -0.145 S  
HETATM    7  O   UNL     1      -8.508   9.649  63.352  1.00  0.00    -0.158 OA 
HETATM    8  O   UNL     1      -8.285   7.306  64.080  1.00  0.00    -0.077 OA 
HETATM    9  C   UNL     1     -10.179  10.445  67.170  1.00  0.00    -0.271 A  
HETATM   10  O   UNL     1      -6.445   9.029  64.450  1.00  0.00    -0.074 OA 
HETATM   11  H   UNL     1     -10.067   9.669  70.373  1.00  0.00     0.000 HD 
HETATM   12  C   UNL     1      -9.798   9.794  68.349  1.00  0.00    -0.152 A  
HETATM   13  O   UNL     1     -10.326  10.110  69.572  1.00  0.00    -0.210 OA 
HETATM   14  C   UNL     1      -8.835   8.781  68.334  1.00  0.00    -0.138 A  
BRANCH   9  15
HETATM   15  C   UNL     1     -11.220  11.501  67.210  1.00  0.00    -0.301 C  
HETATM   16  O   UNL     1     -12.265  11.250  67.812  1.00  0.00    -0.504 OA 
BRANCH  15  17
HETATM   17  C   UNL     1     -11.068  12.811  66.524  1.00  0.00    -0.321 A  
HETATM   18  C   UNL     1     -12.055  13.200  65.610  1.00  0.00    -0.501 A  
HETATM   19  C   UNL     1     -11.914  14.386  64.888  1.00  0.00    -0.430 A  
HETATM   20  C   UNL     1     -10.791  15.189  65.076  1.00  0.00    -0.457 A  
HETATM   21  C   UNL     1      -9.807  14.809  65.990  1.00  0.00    -0.350 A  
HETATM   22  C   UNL     1      -9.937  13.618  66.705  1.00  0.00    -0.283 A  
ENDBRANCH  15  17
ENDBRANCH   9  15
ENDBRANCH   2   3
TORSDOF 3
ENDMDL
MODEL      130
REMARK 921   NORMALIZED FREE ENERGY PREDICTED BY IDOCK:   -4.16 KCAL/MOL
REMARK 922        TOTAL FREE ENERGY PREDICTED BY IDOCK:   -5.45 KCAL/MOL
REMARK 923 INTER-LIGAND FREE ENERGY PREDICTED BY IDOCK:   -5.99 KCAL/MOL
REMARK 924 INTRA-LIGAND FREE ENERGY PREDICTED BY IDOCK:    0.54 KCAL/MOL
REMARK 927      BINDING AFFINITY PREDICTED BY RF-SCORE:    0.00 PKD
ROOT
HETATM    1  C   UNL     1      -9.943  13.889  66.067  1.00  0.00    -0.310 C  
HETATM    2  O   UNL     1      -9.374  12.853  66.863  1.00  0.00    -0.226 OA 
ENDROOT
BRANCH   2   3
HETATM    3  C   UNL     1     -10.134  12.396  67.903  1.00  0.00    -0.208 A  
HETATM    4  C   UNL     1     -10.466  11.037  67.923  1.00  0.00    -0.192 A  
HETATM    5  C   UNL     1     -11.284  10.498  68.929  1.00  0.00    -0.323 A  
HETATM    6  S   UNL     1      -9.808   9.947  66.691  1.00  0.00    -0.220 S  
HETATM    7  O   UNL     1     -10.422   8.499  67.076  1.00  0.00    -0.300 OA 
HETATM    8  O   UNL     1      -8.376   9.860  66.886  1.00  0.00    -0.123 OA 
HETATM    9  C   UNL     1     -11.765  11.321  69.946  1.00  0.00    -0.430 A  
HETATM   10  O   UNL     1     -10.425  10.266  65.426  1.00  0.00    -0.217 OA 
HETATM   11  H   UNL     1     -11.764  14.507  70.795  1.00  0.00     0.000 HD 
HETATM   12  C   UNL     1     -11.472  12.689  69.905  1.00  0.00    -0.081 A  
HETATM   13  O   UNL     1     -11.963  13.579  70.823  1.00  0.00    -0.305 OA 
HETATM   14  C   UNL     1     -10.660  13.221  68.900  1.00  0.00    -0.167 A  
BRANCH   9  15
HETATM   15  C   UNL     1     -12.611  10.777  71.038  1.00  0.00    -0.420 C  
HETATM   16  O   UNL     1     -13.083  11.576  71.847  1.00  0.00    -0.481 OA 
BRANCH  15  17
HETATM   17  C   UNL     1     -12.867   9.323  71.212  1.00  0.00    -0.354 A  
HETATM   18  C   UNL     1     -14.109   8.923  71.720  1.00  0.00    -0.426 A  
HETATM   19  C   UNL     1     -14.364   7.574  71.970  1.00  0.00    -0.437 A  
HETATM   20  C   UNL     1     -13.383   6.619  71.712  1.00  0.00    -0.077 A  
HETATM   21  C   UNL     1     -12.145   7.010  71.199  1.00  0.00    -0.412 A  
HETATM   22  C   UNL     1     -11.881   8.359  70.960  1.00  0.00    -0.278 A  
ENDBRANCH  15  17
ENDBRANCH   9  15
ENDBRANCH   2   3
TORSDOF 3
ENDMDL
MODEL      131
REMARK 921   NORMALIZED FREE ENERGY PREDICTED BY IDOCK:   -4.15 KCAL/MOL
REMARK 922        TOTAL FREE ENERGY PREDICTED BY IDOCK:   -5.45 KCAL/MOL
REMARK 923 INTER-LIGAND FREE ENERGY PREDICTED BY IDOCK:   -4.84 KCAL/MOL
REMARK 924 INTRA-LIGAND FREE ENERGY PREDICTED BY IDOCK:   -0.61 KCAL/MOL
REMARK 927      BINDING AFFINITY PREDICTED BY RF-SCORE:    0.00 PKD
ROOT
HETATM    1  C   UNL     1     -12.056  11.547  69.344  1.00  0.00    -0.279 C  
HETATM    2  O   UNL     1     -12.115  11.042  68.013  1.00  0.00    -0.615 OA 
ENDROOT
BRANCH   2   3
HETATM    3  C   UNL     1     -10.920  10.777  67.406  1.00  0.00    -0.300 A  
HETATM    4  C   UNL     1     -10.538  11.587  66.331  1.00  0.00    -0.259 A  
HETATM    5  C   UNL     1      -9.350  11.351  65.622  1.00  0.00    -0.242 A  
HETATM    6  S   UNL     1     -11.536  12.978  65.872  1.00  0.00    -0.383 S  
HETATM    7  O   UNL     1     -10.750  13.631  64.617  1.00  0.00    -0.382 OA 
HETATM    8  O   UNL     1     -11.482  13.944  66.949  1.00  0.00    -0.321 OA 
HETATM    9  C   UNL     1      -8.514  10.301  66.000  1.00  0.00    -0.144 A  
HETATM   10  O   UNL     1     -12.766  12.485  65.301  1.00  0.00    -0.654 OA 
HETATM   11  H   UNL     1      -8.460   7.796  68.144  1.00  0.00     0.000 HD 
HETATM   12  C   UNL     1      -8.914   9.461  67.045  1.00  0.00    -0.130 A  
HETATM   13  O   UNL     1      -8.189   8.366  67.434  1.00  0.00    -0.118 OA 
HETATM   14  C   UNL     1     -10.100   9.699  67.747  1.00  0.00    -0.232 A  
BRANCH   9  15
HETATM   15  C   UNL     1      -7.239  10.041  65.287  1.00  0.00    -0.137 C  
HETATM   16  O   UNL     1      -6.291  10.791  65.519  1.00  0.00    -0.109 OA 
BRANCH  15  17
HETATM   17  C   UNL     1      -7.081   8.952  64.287  1.00  0.00    -0.090 A  
HETATM   18  C   UNL     1      -8.020   8.860  63.252  1.00  0.00    -0.157 A  
HETATM   19  C   UNL     1      -7.954   7.810  62.335  1.00  0.00    -0.141 A  
HETATM   20  C   UNL     1      -6.950   6.850  62.446  1.00  0.00    -0.052 A  
HETATM   21  C   UNL     1      -6.008   6.939  63.471  1.00  0.00    -0.036 A  
HETATM   22  C   UNL     1      -6.077   7.981  64.397  1.00  0.00    -0.056 A  
ENDBRANCH  15  17
ENDBRANCH   9  15
ENDBRANCH   2   3
TORSDOF 3
ENDMDL
MODEL      132
REMARK 921   NORMALIZED FREE ENERGY PREDICTED BY IDOCK:   -4.13 KCAL/MOL
REMARK 922        TOTAL FREE ENERGY PREDICTED BY IDOCK:   -5.42 KCAL/MOL
REMARK 923 INTER-LIGAND FREE ENERGY PREDICTED BY IDOCK:   -4.81 KCAL/MOL
REMARK 924 INTRA-LIGAND FREE ENERGY PREDICTED BY IDOCK:   -0.60 KCAL/MOL
REMARK 927      BINDING AFFINITY PREDICTED BY RF-SCORE:    0.00 PKD
ROOT
HETATM    1  C   UNL     1     -10.704   5.864  67.075  1.00  0.00    -0.318 C  
HETATM    2  O   UNL     1      -9.929   6.690  67.939  1.00  0.00    -0.125 OA 
ENDROOT
BRANCH   2   3
HETATM    3  C   UNL     1      -9.947   8.032  67.679  1.00  0.00    -0.180 A  
HETATM    4  C   UNL     1     -10.143   8.905  68.755  1.00  0.00    -0.200 A  
HETATM    5  C   UNL     1     -10.224  10.293  68.565  1.00  0.00    -0.192 A  
HETATM    6  S   UNL     1     -10.242   8.267  70.405  1.00  0.00    -0.204 S  
HETATM    7  O   UNL     1     -10.460   9.582  71.324  1.00  0.00    -0.320 OA 
HETATM    8  O   UNL     1      -8.947   7.722  70.754  1.00  0.00    -0.145 OA 
HETATM    9  C   UNL     1     -10.089  10.828  67.285  1.00  0.00    -0.233 A  
HETATM   10  O   UNL     1     -11.479   7.536  70.536  1.00  0.00    -0.280 OA 
HETATM   11  H   UNL     1      -9.765   9.800  64.169  1.00  0.00     0.000 HD 
HETATM   12  C   UNL     1      -9.937   9.956  66.201  1.00  0.00    -0.263 A  
HETATM   13  O   UNL     1      -9.868  10.392  64.905  1.00  0.00    -0.287 OA 
HETATM   14  C   UNL     1      -9.860   8.573  66.394  1.00  0.00    -0.327 A  
BRANCH   9  15
HETATM   15  C   UNL     1     -10.144  12.293  67.055  1.00  0.00    -0.212 C  
HETATM   16  O   UNL     1     -11.223  12.777  66.712  1.00  0.00    -0.271 OA 
BRANCH  15  17
HETATM   17  C   UNL     1      -8.954  13.175  67.180  1.00  0.00    -0.228 A  
HETATM   18  C   UNL     1      -7.747  12.605  67.603  1.00  0.00    -0.155 A  
HETATM   19  C   UNL     1      -6.624  13.409  67.805  1.00  0.00    -0.168 A  
HETATM   20  C   UNL     1      -6.701  14.783  67.585  1.00  0.00    -0.198 A  
HETATM   21  C   UNL     1      -7.900  15.356  67.158  1.00  0.00    -0.249 A  
HETATM   22  C   UNL     1      -9.028  14.558  66.966  1.00  0.00    -0.258 A  
ENDBRANCH  15  17
ENDBRANCH   9  15
ENDBRANCH   2   3
TORSDOF 3
ENDMDL
MODEL      133
REMARK 921   NORMALIZED FREE ENERGY PREDICTED BY IDOCK:   -4.12 KCAL/MOL
REMARK 922        TOTAL FREE ENERGY PREDICTED BY IDOCK:   -5.40 KCAL/MOL
REMARK 923 INTER-LIGAND FREE ENERGY PREDICTED BY IDOCK:   -5.49 KCAL/MOL
REMARK 924 INTRA-LIGAND FREE ENERGY PREDICTED BY IDOCK:    0.09 KCAL/MOL
REMARK 927      BINDING AFFINITY PREDICTED BY RF-SCORE:    0.00 PKD
ROOT
HETATM    1  C   UNL     1     -11.611   9.778  70.214  1.00  0.00    -0.220 C  
HETATM    2  O   UNL     1     -12.187  10.703  69.295  1.00  0.00    -0.280 OA 
ENDROOT
BRANCH   2   3
HETATM    3  C   UNL     1     -11.908  12.025  69.503  1.00  0.00    -0.326 A  
HETATM    4  C   UNL     1     -11.149  12.693  68.537  1.00  0.00    -0.266 A  
HETATM    5  C   UNL     1     -10.777  14.037  68.701  1.00  0.00    -0.269 A  
HETATM    6  S   UNL     1     -10.680  11.859  67.047  1.00  0.00    -0.252 S  
HETATM    7  O   UNL     1      -9.837  12.968  66.222  1.00  0.00    -0.269 OA 
HETATM    8  O   UNL     1     -11.881  11.593  66.284  1.00  0.00    -0.437 OA 
HETATM    9  C   UNL     1     -11.184  14.737  69.835  1.00  0.00    -0.293 A  
HETATM   10  O   UNL     1      -9.704  10.850  67.379  1.00  0.00    -0.166 OA 
HETATM   11  H   UNL     1     -12.774  14.190  72.672  1.00  0.00     0.000 HD 
HETATM   12  C   UNL     1     -11.906  14.059  70.825  1.00  0.00    -0.215 A  
HETATM   13  O   UNL     1     -12.284  14.650  72.001  1.00  0.00    -0.336 OA 
HETATM   14  C   UNL     1     -12.271  12.720  70.660  1.00  0.00    -0.374 A  
BRANCH   9  15
HETATM   15  C   UNL     1     -10.829  16.165  70.025  1.00  0.00    -0.349 C  
HETATM   16  O   UNL     1     -11.465  16.805  70.864  1.00  0.00    -0.071 OA 
BRANCH  15  17
HETATM   17  C   UNL     1      -9.783  16.850  69.221  1.00  0.00    -0.110 A  
HETATM   18  C   UNL     1      -8.464  16.389  69.317  1.00  0.00    -0.092 A  
HETATM   19  C   UNL     1      -7.439  17.050  68.638  1.00  0.00    -0.229 A  
HETATM   20  C   UNL     1      -7.726  18.170  67.861  1.00  0.00    -0.237 A  
HETATM   21  C   UNL     1      -9.039  18.631  67.757  1.00  0.00    -0.303 A  
HETATM   22  C   UNL     1     -10.066  17.981  68.443  1.00  0.00    -0.392 A  
ENDBRANCH  15  17
ENDBRANCH   9  15
ENDBRANCH   2   3
TORSDOF 3
ENDMDL
MODEL      134
REMARK 921   NORMALIZED FREE ENERGY PREDICTED BY IDOCK:   -4.08 KCAL/MOL
REMARK 922        TOTAL FREE ENERGY PREDICTED BY IDOCK:   -5.36 KCAL/MOL
REMARK 923 INTER-LIGAND FREE ENERGY PREDICTED BY IDOCK:   -4.72 KCAL/MOL
REMARK 924 INTRA-LIGAND FREE ENERGY PREDICTED BY IDOCK:   -0.64 KCAL/MOL
REMARK 927      BINDING AFFINITY PREDICTED BY RF-SCORE:    0.00 PKD
ROOT
HETATM    1  C   UNL     1     -12.919  11.467  71.315  1.00  0.00    -0.297 C  
HETATM    2  O   UNL     1     -12.109  10.396  70.839  1.00  0.00    -0.311 OA 
ENDROOT
BRANCH   2   3
HETATM    3  C   UNL     1     -11.322  10.661  69.754  1.00  0.00    -0.301 A  
HETATM    4  C   UNL     1     -10.222   9.828  69.523  1.00  0.00    -0.221 A  
HETATM    5  C   UNL     1      -9.337  10.062  68.460  1.00  0.00    -0.145 A  
HETATM    6  S   UNL     1      -9.955   8.411  70.553  1.00  0.00    -0.189 S  
HETATM    7  O   UNL     1      -8.612   7.735  69.953  1.00  0.00    -0.134 OA 
HETATM    8  O   UNL     1     -11.034   7.476  70.320  1.00  0.00    -0.247 OA 
HETATM    9  C   UNL     1      -9.558  11.134  67.596  1.00  0.00    -0.180 A  
HETATM   10  O   UNL     1      -9.563   8.870  71.864  1.00  0.00    -0.298 OA 
HETATM   11  H   UNL     1     -11.606  13.697  67.267  1.00  0.00     0.000 HD 
HETATM   12  C   UNL     1     -10.630  11.996  67.850  1.00  0.00    -0.202 A  
HETATM   13  O   UNL     1     -10.878  13.112  67.095  1.00  0.00    -0.253 OA 
HETATM   14  C   UNL     1     -11.508  11.761  68.912  1.00  0.00    -0.357 A  
BRANCH   9  15
HETATM   15  C   UNL     1      -8.654  11.393  66.448  1.00  0.00    -0.174 C  
HETATM   16  O   UNL     1      -7.662  12.095  66.649  1.00  0.00    -0.031 OA 
BRANCH  15  17
HETATM   17  C   UNL     1      -8.922  10.881  65.079  1.00  0.00    -0.184 A  
HETATM   18  C   UNL     1      -8.309   9.685  64.685  1.00  0.00    -0.162 A  
HETATM   19  C   UNL     1      -8.474   9.208  63.384  1.00  0.00    -0.195 A  
HETATM   20  C   UNL     1      -9.251   9.920  62.472  1.00  0.00    -0.307 A  
HETATM   21  C   UNL     1      -9.869  11.109  62.860  1.00  0.00    -0.323 A  
HETATM   22  C   UNL     1      -9.698  11.597  64.156  1.00  0.00    -0.207 A  
ENDBRANCH  15  17
ENDBRANCH   9  15
ENDBRANCH   2   3
TORSDOF 3
ENDMDL
MODEL      135
REMARK 921   NORMALIZED FREE ENERGY PREDICTED BY IDOCK:   -4.04 KCAL/MOL
REMARK 922        TOTAL FREE ENERGY PREDICTED BY IDOCK:   -5.31 KCAL/MOL
REMARK 923 INTER-LIGAND FREE ENERGY PREDICTED BY IDOCK:   -4.69 KCAL/MOL
REMARK 924 INTRA-LIGAND FREE ENERGY PREDICTED BY IDOCK:   -0.62 KCAL/MOL
REMARK 927      BINDING AFFINITY PREDICTED BY RF-SCORE:    0.00 PKD
ROOT
HETATM    1  C   UNL     1      -9.944  17.317  65.936  1.00  0.00    -0.173 C  
HETATM    2  O   UNL     1     -10.706  16.136  65.705  1.00  0.00    -0.346 OA 
ENDROOT
BRANCH   2   3
HETATM    3  C   UNL     1     -10.073  14.946  65.933  1.00  0.00    -0.325 A  
HETATM    4  C   UNL     1     -10.731  13.771  65.554  1.00  0.00    -0.302 A  
HETATM    5  C   UNL     1     -10.171  12.507  65.799  1.00  0.00    -0.289 A  
HETATM    6  S   UNL     1     -12.279  13.861  64.698  1.00  0.00    -0.406 S  
HETATM    7  O   UNL     1     -12.682  12.313  64.446  1.00  0.00    -0.557 OA 
HETATM    8  O   UNL     1     -12.040  14.449  63.397  1.00  0.00    -0.280 OA 
HETATM    9  C   UNL     1      -8.925  12.409  66.416  1.00  0.00    -0.101 A  
HETATM   10  O   UNL     1     -13.281  14.340  65.620  1.00  0.00    -0.558 OA 
HETATM   11  H   UNL     1      -6.659  14.364  67.800  1.00  0.00     0.000 HD 
HETATM   12  C   UNL     1      -8.285  13.579  66.838  1.00  0.00     0.067 A  
HETATM   13  O   UNL     1      -7.094  13.569  67.513  1.00  0.00    -0.161 OA 
HETATM   14  C   UNL     1      -8.847  14.835  66.594  1.00  0.00    -0.262 A  
BRANCH   9  15
HETATM   15  C   UNL     1      -8.295  11.088  66.666  1.00  0.00    -0.155 C  
HETATM   16  O   UNL     1      -8.304  10.661  67.821  1.00  0.00    -0.114 OA 
BRANCH  15  17
HETATM   17  C   UNL     1      -7.628  10.298  65.599  1.00  0.00    -0.148 A  
HETATM   18  C   UNL     1      -6.268  10.528  65.354  1.00  0.00    -0.110 A  
HETATM   19  C   UNL     1      -5.621   9.863  64.312  1.00  0.00    -0.092 A  
HETATM   20  C   UNL     1      -6.325   8.964  63.513  1.00  0.00    -0.089 A  
HETATM   21  C   UNL     1      -7.678   8.725  63.756  1.00  0.00    -0.133 A  
HETATM   22  C   UNL     1      -8.333   9.398  64.789  1.00  0.00    -0.159 A  
ENDBRANCH  15  17
ENDBRANCH   9  15
ENDBRANCH   2   3
TORSDOF 3
ENDMDL
MODEL      136
REMARK 921   NORMALIZED FREE ENERGY PREDICTED BY IDOCK:   -4.00 KCAL/MOL
REMARK 922        TOTAL FREE ENERGY PREDICTED BY IDOCK:   -5.26 KCAL/MOL
REMARK 923 INTER-LIGAND FREE ENERGY PREDICTED BY IDOCK:   -4.77 KCAL/MOL
REMARK 924 INTRA-LIGAND FREE ENERGY PREDICTED BY IDOCK:   -0.49 KCAL/MOL
REMARK 927      BINDING AFFINITY PREDICTED BY RF-SCORE:    0.00 PKD
ROOT
HETATM    1  C   UNL     1     -10.895  13.734  65.102  1.00  0.00    -0.345 C  
HETATM    2  O   UNL     1     -11.461  12.573  65.705  1.00  0.00    -0.328 OA 
ENDROOT
BRANCH   2   3
HETATM    3  C   UNL     1     -10.696  11.441  65.687  1.00  0.00    -0.242 A  
HETATM    4  C   UNL     1     -10.342  10.870  66.914  1.00  0.00    -0.238 A  
HETATM    5  C   UNL     1      -9.517   9.736  66.983  1.00  0.00    -0.195 A  
HETATM    6  S   UNL     1     -10.981  11.547  68.422  1.00  0.00    -0.242 S  
HETATM    7  O   UNL     1     -10.344  10.608  69.577  1.00  0.00    -0.223 OA 
HETATM    8  O   UNL     1     -12.411  11.327  68.443  1.00  0.00    -0.545 OA 
HETATM    9  C   UNL     1      -9.050   9.146  65.810  1.00  0.00    -0.265 A  
HETATM   10  O   UNL     1     -10.367  12.836  68.637  1.00  0.00    -0.232 OA 
HETATM   11  H   UNL     1      -9.103   9.670  62.555  1.00  0.00     0.000 HD 
HETATM   12  C   UNL     1      -9.365   9.740  64.582  1.00  0.00    -0.256 A  
HETATM   13  O   UNL     1      -8.890   9.267  63.388  1.00  0.00    -0.212 OA 
HETATM   14  C   UNL     1     -10.184  10.871  64.519  1.00  0.00    -0.422 A  
BRANCH   9  15
HETATM   15  C   UNL     1      -8.198   7.932  65.849  1.00  0.00    -0.126 C  
HETATM   16  O   UNL     1      -7.111   7.978  65.270  1.00  0.00    -0.061 OA 
BRANCH  15  17
HETATM   17  C   UNL     1      -8.620   6.670  66.512  1.00  0.00    -0.124 A  
HETATM   18  C   UNL     1      -9.693   5.957  65.961  1.00  0.00    -0.019 A  
HETATM   19  C   UNL     1     -10.170   4.809  66.593  1.00  0.00    -0.274 A  
HETATM   20  C   UNL     1      -9.579   4.365  67.774  1.00  0.00    -0.211 A  
HETATM   21  C   UNL     1      -8.507   5.067  68.325  1.00  0.00    -0.098 A  
HETATM   22  C   UNL     1      -8.033   6.223  67.703  1.00  0.00    -0.113 A  
ENDBRANCH  15  17
ENDBRANCH   9  15
ENDBRANCH   2   3
TORSDOF 3
ENDMDL
MODEL      137
REMARK 921   NORMALIZED FREE ENERGY PREDICTED BY IDOCK:   -3.94 KCAL/MOL
REMARK 922        TOTAL FREE ENERGY PREDICTED BY IDOCK:   -5.20 KCAL/MOL
REMARK 923 INTER-LIGAND FREE ENERGY PREDICTED BY IDOCK:   -4.58 KCAL/MOL
REMARK 924 INTRA-LIGAND FREE ENERGY PREDICTED BY IDOCK:   -0.62 KCAL/MOL
REMARK 927      BINDING AFFINITY PREDICTED BY RF-SCORE:    0.00 PKD
ROOT
HETATM    1  C   UNL     1      -6.972   3.675  73.655  1.00  0.00    -0.046 C  
HETATM    2  O   UNL     1      -7.516   3.844  72.349  1.00  0.00    -0.059 OA 
ENDROOT
BRANCH   2   3
HETATM    3  C   UNL     1      -7.939   5.102  72.023  1.00  0.00    -0.112 A  
HETATM    4  C   UNL     1      -8.470   5.303  70.744  1.00  0.00    -0.122 A  
HETATM    5  C   UNL     1      -8.880   6.574  70.313  1.00  0.00    -0.151 A  
HETATM    6  S   UNL     1      -8.687   3.926  69.650  1.00  0.00    -0.084 S  
HETATM    7  O   UNL     1      -9.320   4.581  68.312  1.00  0.00    -0.125 OA 
HETATM    8  O   UNL     1      -9.701   3.060  70.213  1.00  0.00    -0.137 OA 
HETATM    9  C   UNL     1      -8.778   7.665  71.175  1.00  0.00    -0.138 A  
HETATM   10  O   UNL     1      -7.383   3.467  69.235  1.00  0.00    -0.048 OA 
HETATM   11  H   UNL     1      -7.615   8.379  74.177  1.00  0.00     0.000 HD 
HETATM   12  C   UNL     1      -8.206   7.478  72.438  1.00  0.00    -0.104 A  
HETATM   13  O   UNL     1      -8.004   8.506  73.319  1.00  0.00    -0.363 OA 
HETATM   14  C   UNL     1      -7.796   6.210  72.862  1.00  0.00    -0.105 A  
BRANCH   9  15
HETATM   15  C   UNL     1      -9.227   9.017  70.758  1.00  0.00    -0.245 C  
HETATM   16  O   UNL     1      -8.389   9.766  70.253  1.00  0.00    -0.189 OA 
BRANCH  15  17
HETATM   17  C   UNL     1     -10.615   9.506  70.966  1.00  0.00    -0.392 A  
HETATM   18  C   UNL     1     -11.395   8.892  71.953  1.00  0.00    -0.446 A  
HETATM   19  C   UNL     1     -12.727   9.269  72.131  1.00  0.00    -0.465 A  
HETATM   20  C   UNL     1     -13.284  10.261  71.327  1.00  0.00    -0.447 A  
HETATM   21  C   UNL     1     -12.510  10.882  70.345  1.00  0.00    -0.411 A  
HETATM   22  C   UNL     1     -11.182  10.500  70.156  1.00  0.00    -0.389 A  
ENDBRANCH  15  17
ENDBRANCH   9  15
ENDBRANCH   2   3
TORSDOF 3
ENDMDL
MODEL      138
REMARK 921   NORMALIZED FREE ENERGY PREDICTED BY IDOCK:   -3.91 KCAL/MOL
REMARK 922        TOTAL FREE ENERGY PREDICTED BY IDOCK:   -5.16 KCAL/MOL
REMARK 923 INTER-LIGAND FREE ENERGY PREDICTED BY IDOCK:   -4.70 KCAL/MOL
REMARK 924 INTRA-LIGAND FREE ENERGY PREDICTED BY IDOCK:   -0.46 KCAL/MOL
REMARK 927      BINDING AFFINITY PREDICTED BY RF-SCORE:    0.00 PKD
ROOT
HETATM    1  C   UNL     1     -10.366   4.133  72.800  1.00  0.00    -0.175 C  
HETATM    2  O   UNL     1      -9.721   5.404  72.801  1.00  0.00    -0.148 OA 
ENDROOT
BRANCH   2   3
HETATM    3  C   UNL     1      -9.769   6.114  71.635  1.00  0.00    -0.158 A  
HETATM    4  C   UNL     1      -8.958   7.249  71.526  1.00  0.00    -0.129 A  
HETATM    5  C   UNL     1      -8.986   8.061  70.381  1.00  0.00    -0.146 A  
HETATM    6  S   UNL     1      -7.828   7.658  72.828  1.00  0.00    -0.111 S  
HETATM    7  O   UNL     1      -7.098   9.006  72.309  1.00  0.00    -0.323 OA 
HETATM    8  O   UNL     1      -6.814   6.626  72.883  1.00  0.00    -0.071 OA 
HETATM    9  C   UNL     1      -9.820   7.729  69.315  1.00  0.00    -0.173 A  
HETATM   10  O   UNL     1      -8.592   8.089  73.974  1.00  0.00    -0.258 OA 
HETATM   11  H   UNL     1     -12.140   5.513  68.553  1.00  0.00     0.000 HD 
HETATM   12  C   UNL     1     -10.666   6.621  69.438  1.00  0.00    -0.259 A  
HETATM   13  O   UNL     1     -11.566   6.266  68.469  1.00  0.00    -0.077 OA 
HETATM   14  C   UNL     1     -10.637   5.817  70.581  1.00  0.00    -0.346 A  
BRANCH   9  15
HETATM   15  C   UNL     1      -9.854   8.553  68.081  1.00  0.00    -0.165 C  
HETATM   16  O   UNL     1      -9.300   8.101  67.078  1.00  0.00    -0.140 OA 
BRANCH  15  17
HETATM   17  C   UNL     1     -10.481   9.900  68.027  1.00  0.00    -0.266 A  
HETATM   18  C   UNL     1     -11.082  10.400  69.188  1.00  0.00    -0.296 A  
HETATM   19  C   UNL     1     -11.748  11.626  69.162  1.00  0.00    -0.390 A  
HETATM   20  C   UNL     1     -11.814  12.358  67.978  1.00  0.00    -0.376 A  
HETATM   21  C   UNL     1     -11.213  11.868  66.818  1.00  0.00    -0.384 A  
HETATM   22  C   UNL     1     -10.556  10.637  66.837  1.00  0.00    -0.311 A  
ENDBRANCH  15  17
ENDBRANCH   9  15
ENDBRANCH   2   3
TORSDOF 3
ENDMDL
MODEL      139
REMARK 921   NORMALIZED FREE ENERGY PREDICTED BY IDOCK:   -3.91 KCAL/MOL
REMARK 922        TOTAL FREE ENERGY PREDICTED BY IDOCK:   -5.15 KCAL/MOL
REMARK 923 INTER-LIGAND FREE ENERGY PREDICTED BY IDOCK:   -6.04 KCAL/MOL
REMARK 924 INTRA-LIGAND FREE ENERGY PREDICTED BY IDOCK:    0.88 KCAL/MOL
REMARK 927      BINDING AFFINITY PREDICTED BY RF-SCORE:    0.00 PKD
ROOT
HETATM    1  C   UNL     1     -11.264  14.185  64.682  1.00  0.00    -0.368 C  
HETATM    2  O   UNL     1     -10.406  13.518  65.604  1.00  0.00    -0.284 OA 
ENDROOT
BRANCH   2   3
HETATM    3  C   UNL     1     -10.931  13.241  66.835  1.00  0.00    -0.283 A  
HETATM    4  C   UNL     1     -10.917  14.258  67.796  1.00  0.00    -0.264 A  
HETATM    5  C   UNL     1     -11.390  14.039  69.099  1.00  0.00    -0.323 A  
HETATM    6  S   UNL     1     -10.342  15.877  67.363  1.00  0.00    -0.293 S  
HETATM    7  O   UNL     1     -10.496  16.729  68.730  1.00  0.00    -0.293 OA 
HETATM    8  O   UNL     1     -11.271  16.443  66.409  1.00  0.00     0.087 OA 
HETATM    9  C   UNL     1     -11.905  12.793  69.450  1.00  0.00    -0.359 A  
HETATM   10  O   UNL     1      -8.916  15.810  67.148  1.00  0.00    -0.198 OA 
HETATM   11  H   UNL     1     -12.282   9.787  68.148  1.00  0.00     0.000 HD 
HETATM   12  C   UNL     1     -11.880  11.760  68.506  1.00  0.00    -0.303 A  
HETATM   13  O   UNL     1     -12.300  10.488  68.788  1.00  0.00    -0.238 OA 
HETATM   14  C   UNL     1     -11.404  11.981  67.210  1.00  0.00    -0.394 A  
BRANCH   9  15
HETATM   15  C   UNL     1     -12.437  12.538  70.812  1.00  0.00    -0.268 C  
HETATM   16  O   UNL     1     -12.506  11.367  71.189  1.00  0.00    -0.382 OA 
BRANCH  15  17
HETATM   17  C   UNL     1     -12.921  13.623  71.705  1.00  0.00    -0.441 A  
HETATM   18  C   UNL     1     -13.952  14.452  71.245  1.00  0.00    -0.307 A  
HETATM   19  C   UNL     1     -14.385  15.528  72.020  1.00  0.00    -0.600 A  
HETATM   20  C   UNL     1     -13.795  15.781  73.257  1.00  0.00    -0.227 A  
HETATM   21  C   UNL     1     -12.772  14.955  73.724  1.00  0.00    -0.530 A  
HETATM   22  C   UNL     1     -12.326  13.884  72.947  1.00  0.00     0.232 A  
ENDBRANCH  15  17
ENDBRANCH   9  15
ENDBRANCH   2   3
TORSDOF 3
ENDMDL
MODEL      140
REMARK 921   NORMALIZED FREE ENERGY PREDICTED BY IDOCK:   -3.90 KCAL/MOL
REMARK 922        TOTAL FREE ENERGY PREDICTED BY IDOCK:   -5.14 KCAL/MOL
REMARK 923 INTER-LIGAND FREE ENERGY PREDICTED BY IDOCK:   -5.45 KCAL/MOL
REMARK 924 INTRA-LIGAND FREE ENERGY PREDICTED BY IDOCK:    0.30 KCAL/MOL
REMARK 927      BINDING AFFINITY PREDICTED BY RF-SCORE:    0.00 PKD
ROOT
HETATM    1  C   UNL     1     -10.284  18.568  69.514  1.00  0.00     0.394 C  
HETATM    2  O   UNL     1     -10.347  17.940  68.236  1.00  0.00    -0.362 OA 
ENDROOT
BRANCH   2   3
HETATM    3  C   UNL     1     -10.601  16.597  68.229  1.00  0.00    -0.338 A  
HETATM    4  C   UNL     1     -10.563  15.931  66.999  1.00  0.00    -0.306 A  
HETATM    5  C   UNL     1     -10.862  14.562  66.899  1.00  0.00    -0.305 A  
HETATM    6  S   UNL     1     -10.080  16.802  65.535  1.00  0.00     0.015 S  
HETATM    7  O   UNL     1     -10.163  15.686  64.365  1.00  0.00     0.087 OA 
HETATM    8  O   UNL     1      -8.686  17.167  65.668  1.00  0.00    -0.473 OA 
HETATM    9  C   UNL     1     -11.185  13.837  68.044  1.00  0.00    -0.293 A  
HETATM   10  O   UNL     1     -11.124  17.742  65.200  1.00  0.00    -0.554 OA 
HETATM   11  H   UNL     1     -11.705  14.345  71.261  1.00  0.00     0.000 HD 
HETATM   12  C   UNL     1     -11.269  14.509  69.269  1.00  0.00    -0.281 A  
HETATM   13  O   UNL     1     -11.648  13.889  70.430  1.00  0.00    -0.227 OA 
HETATM   14  C   UNL     1     -10.974  15.872  69.364  1.00  0.00    -0.309 A  
BRANCH   9  15
HETATM   15  C   UNL     1     -11.481  12.384  67.975  1.00  0.00    -0.322 C  
HETATM   16  O   UNL     1     -12.277  11.923  68.794  1.00  0.00    -0.318 OA 
BRANCH  15  17
HETATM   17  C   UNL     1     -10.828  11.474  66.998  1.00  0.00    -0.320 A  
HETATM   18  C   UNL     1     -10.110  10.377  67.489  1.00  0.00    -0.231 A  
HETATM   19  C   UNL     1      -9.420   9.540  66.612  1.00  0.00    -0.222 A  
HETATM   20  C   UNL     1      -9.445   9.792  65.242  1.00  0.00    -0.343 A  
HETATM   21  C   UNL     1     -10.163  10.880  64.745  1.00  0.00    -0.398 A  
HETATM   22  C   UNL     1     -10.845  11.727  65.620  1.00  0.00    -0.342 A  
ENDBRANCH  15  17
ENDBRANCH   9  15
ENDBRANCH   2   3
TORSDOF 3
ENDMDL
MODEL      141
REMARK 921   NORMALIZED FREE ENERGY PREDICTED BY IDOCK:   -3.89 KCAL/MOL
REMARK 922        TOTAL FREE ENERGY PREDICTED BY IDOCK:   -5.14 KCAL/MOL
REMARK 923 INTER-LIGAND FREE ENERGY PREDICTED BY IDOCK:   -4.44 KCAL/MOL
REMARK 924 INTRA-LIGAND FREE ENERGY PREDICTED BY IDOCK:   -0.70 KCAL/MOL
REMARK 927      BINDING AFFINITY PREDICTED BY RF-SCORE:    0.00 PKD
ROOT
HETATM    1  C   UNL     1     -10.127  17.653  68.389  1.00  0.00    -0.368 C  
HETATM    2  O   UNL     1     -10.523  16.296  68.206  1.00  0.00    -0.260 OA 
ENDROOT
BRANCH   2   3
HETATM    3  C   UNL     1      -9.519  15.381  68.056  1.00  0.00    -0.201 A  
HETATM    4  C   UNL     1      -9.549  14.556  66.927  1.00  0.00    -0.250 A  
HETATM    5  C   UNL     1      -8.583  13.557  66.725  1.00  0.00    -0.043 A  
HETATM    6  S   UNL     1     -10.794  14.794  65.689  1.00  0.00    -0.359 S  
HETATM    7  O   UNL     1     -10.470  13.660  64.580  1.00  0.00    -0.430 OA 
HETATM    8  O   UNL     1     -10.562  16.076  65.059  1.00  0.00    -0.551 OA 
HETATM    9  C   UNL     1      -7.556  13.388  67.651  1.00  0.00    -0.177 A  
HETATM   10  O   UNL     1     -12.066  14.393  66.242  1.00  0.00    -0.409 OA 
HETATM   11  H   UNL     1      -6.612  14.572  70.581  1.00  0.00     0.000 HD 
HETATM   12  C   UNL     1      -7.548  14.182  68.804  1.00  0.00    -0.125 A  
HETATM   13  O   UNL     1      -6.617  14.034  69.798  1.00  0.00    -0.129 OA 
HETATM   14  C   UNL     1      -8.513  15.172  69.003  1.00  0.00    -0.214 A  
BRANCH   9  15
HETATM   15  C   UNL     1      -6.505  12.359  67.453  1.00  0.00    -0.154 C  
HETATM   16  O   UNL     1      -5.473  12.700  66.875  1.00  0.00    -0.335 OA 
BRANCH  15  17
HETATM   17  C   UNL     1      -6.670  10.945  67.880  1.00  0.00    -0.064 A  
HETATM   18  C   UNL     1      -5.900   9.964  67.243  1.00  0.00    -0.050 A  
HETATM   19  C   UNL     1      -6.077   8.617  67.560  1.00  0.00    -0.052 A  
HETATM   20  C   UNL     1      -7.021   8.242  68.514  1.00  0.00    -0.069 A  
HETATM   21  C   UNL     1      -7.788   9.214  69.157  1.00  0.00    -0.092 A  
HETATM   22  C   UNL     1      -7.623  10.562  68.835  1.00  0.00    -0.108 A  
ENDBRANCH  15  17
ENDBRANCH   9  15
ENDBRANCH   2   3
TORSDOF 3
ENDMDL
MODEL      142
REMARK 921   NORMALIZED FREE ENERGY PREDICTED BY IDOCK:   -3.89 KCAL/MOL
REMARK 922        TOTAL FREE ENERGY PREDICTED BY IDOCK:   -5.13 KCAL/MOL
REMARK 923 INTER-LIGAND FREE ENERGY PREDICTED BY IDOCK:   -4.48 KCAL/MOL
REMARK 924 INTRA-LIGAND FREE ENERGY PREDICTED BY IDOCK:   -0.65 KCAL/MOL
REMARK 927      BINDING AFFINITY PREDICTED BY RF-SCORE:    0.00 PKD
ROOT
HETATM    1  C   UNL     1      -7.055  16.172  68.917  1.00  0.00    -0.166 C  
HETATM    2  O   UNL     1      -8.384  15.672  69.035  1.00  0.00    -0.197 OA 
ENDROOT
BRANCH   2   3
HETATM    3  C   UNL     1      -8.626  14.445  68.484  1.00  0.00    -0.175 A  
HETATM    4  C   UNL     1      -9.897  14.207  67.951  1.00  0.00    -0.224 A  
HETATM    5  C   UNL     1     -10.242  12.957  67.412  1.00  0.00    -0.230 A  
HETATM    6  S   UNL     1     -11.094  15.512  67.897  1.00  0.00    -0.315 S  
HETATM    7  O   UNL     1     -12.393  14.828  67.215  1.00  0.00    -0.125 OA 
HETATM    8  O   UNL     1     -10.618  16.520  66.975  1.00  0.00    -0.310 OA 
HETATM    9  C   UNL     1      -9.300  11.930  67.385  1.00  0.00    -0.176 A  
HETATM   10  O   UNL     1     -11.514  15.798  69.248  1.00  0.00    -0.316 OA 
HETATM   11  H   UNL     1      -6.230  11.325  68.426  1.00  0.00     0.000 HD 
HETATM   12  C   UNL     1      -8.042  12.150  67.958  1.00  0.00    -0.155 A  
HETATM   13  O   UNL     1      -7.084  11.175  68.037  1.00  0.00    -0.071 OA 
HETATM   14  C   UNL     1      -7.705  13.395  68.495  1.00  0.00    -0.124 A  
BRANCH   9  15
HETATM   15  C   UNL     1      -9.626  10.605  66.799  1.00  0.00    -0.169 C  
HETATM   16  O   UNL     1     -10.092   9.747  67.551  1.00  0.00    -0.174 OA 
BRANCH  15  17
HETATM   17  C   UNL     1      -9.372  10.269  65.374  1.00  0.00    -0.258 A  
HETATM   18  C   UNL     1      -8.404   9.300  65.082  1.00  0.00    -0.155 A  
HETATM   19  C   UNL     1      -8.082   9.008  63.756  1.00  0.00    -0.164 A  
HETATM   20  C   UNL     1      -8.725   9.678  62.717  1.00  0.00    -0.225 A  
HETATM   21  C   UNL     1      -9.694  10.640  63.001  1.00  0.00    -0.362 A  
HETATM   22  C   UNL     1     -10.012  10.945  64.326  1.00  0.00    -0.392 A  
ENDBRANCH  15  17
ENDBRANCH   9  15
ENDBRANCH   2   3
TORSDOF 3
ENDMDL
MODEL      143
REMARK 921   NORMALIZED FREE ENERGY PREDICTED BY IDOCK:   -3.88 KCAL/MOL
REMARK 922        TOTAL FREE ENERGY PREDICTED BY IDOCK:   -5.13 KCAL/MOL
REMARK 923 INTER-LIGAND FREE ENERGY PREDICTED BY IDOCK:   -4.52 KCAL/MOL
REMARK 924 INTRA-LIGAND FREE ENERGY PREDICTED BY IDOCK:   -0.61 KCAL/MOL
REMARK 927      BINDING AFFINITY PREDICTED BY RF-SCORE:    0.00 PKD
ROOT
HETATM    1  C   UNL     1     -11.712  15.894  64.091  1.00  0.00    -0.027 C  
HETATM    2  O   UNL     1     -10.511  15.589  64.795  1.00  0.00    -0.390 OA 
ENDROOT
BRANCH   2   3
HETATM    3  C   UNL     1     -10.414  14.331  65.321  1.00  0.00    -0.389 A  
HETATM    4  C   UNL     1     -10.113  14.212  66.682  1.00  0.00    -0.275 A  
HETATM    5  C   UNL     1      -9.947  12.956  67.287  1.00  0.00    -0.224 A  
HETATM    6  S   UNL     1      -9.987  15.662  67.691  1.00  0.00    -0.239 S  
HETATM    7  O   UNL     1      -9.641  15.089  69.165  1.00  0.00    -0.210 OA 
HETATM    8  O   UNL     1     -11.300  16.267  67.774  1.00  0.00    -0.227 OA 
HETATM    9  C   UNL     1     -10.101  11.795  66.530  1.00  0.00    -0.232 A  
HETATM   10  O   UNL     1      -8.798  16.382  67.304  1.00  0.00    -0.183 OA 
HETATM   11  H   UNL     1     -10.626  10.904  63.399  1.00  0.00     0.000 HD 
HETATM   12  C   UNL     1     -10.357  11.911  65.159  1.00  0.00    -0.277 A  
HETATM   13  O   UNL     1     -10.453  10.825  64.330  1.00  0.00    -0.367 OA 
HETATM   14  C   UNL     1     -10.519  13.164  64.560  1.00  0.00    -0.425 A  
BRANCH   9  15
HETATM   15  C   UNL     1      -9.956  10.453  67.146  1.00  0.00    -0.195 C  
HETATM   16  O   UNL     1     -10.924   9.997  67.758  1.00  0.00    -0.283 OA 
BRANCH  15  17
HETATM   17  C   UNL     1      -8.693   9.671  67.090  1.00  0.00    -0.137 A  
HETATM   18  C   UNL     1      -8.592   8.639  66.148  1.00  0.00    -0.158 A  
HETATM   19  C   UNL     1      -7.454   7.832  66.111  1.00  0.00    -0.079 A  
HETATM   20  C   UNL     1      -6.413   8.052  67.011  1.00  0.00    -0.056 A  
HETATM   21  C   UNL     1      -6.505   9.081  67.948  1.00  0.00    -0.057 A  
HETATM   22  C   UNL     1      -7.646   9.884  67.997  1.00  0.00    -0.085 A  
ENDBRANCH  15  17
ENDBRANCH   9  15
ENDBRANCH   2   3
TORSDOF 3
ENDMDL
MODEL      144
REMARK 921   NORMALIZED FREE ENERGY PREDICTED BY IDOCK:   -3.85 KCAL/MOL
REMARK 922        TOTAL FREE ENERGY PREDICTED BY IDOCK:   -5.09 KCAL/MOL
REMARK 923 INTER-LIGAND FREE ENERGY PREDICTED BY IDOCK:   -4.44 KCAL/MOL
REMARK 924 INTRA-LIGAND FREE ENERGY PREDICTED BY IDOCK:   -0.65 KCAL/MOL
REMARK 927      BINDING AFFINITY PREDICTED BY RF-SCORE:    0.00 PKD
ROOT
HETATM    1  C   UNL     1      -7.298  16.450  67.968  1.00  0.00    -0.136 C  
HETATM    2  O   UNL     1      -8.312  15.801  68.731  1.00  0.00    -0.168 OA 
ENDROOT
BRANCH   2   3
HETATM    3  C   UNL     1      -8.508  14.472  68.480  1.00  0.00    -0.166 A  
HETATM    4  C   UNL     1      -9.803  14.050  68.159  1.00  0.00    -0.235 A  
HETATM    5  C   UNL     1     -10.098  12.696  67.937  1.00  0.00    -0.222 A  
HETATM    6  S   UNL     1     -11.101  15.242  67.974  1.00  0.00    -0.322 S  
HETATM    7  O   UNL     1     -12.403  14.353  67.605  1.00  0.00    -0.251 OA 
HETATM    8  O   UNL     1     -10.804  16.053  66.813  1.00  0.00    -0.294 OA 
HETATM    9  C   UNL     1      -9.083  11.743  68.015  1.00  0.00    -0.180 A  
HETATM   10  O   UNL     1     -11.404  15.788  69.275  1.00  0.00    -0.300 OA 
HETATM   11  H   UNL     1      -5.885  11.556  68.796  1.00  0.00     0.000 HD 
HETATM   12  C   UNL     1      -7.796  12.154  68.379  1.00  0.00    -0.149 A  
HETATM   13  O   UNL     1      -6.758  11.277  68.548  1.00  0.00    -0.058 OA 
HETATM   14  C   UNL     1      -7.508  13.504  68.603  1.00  0.00    -0.108 A  
BRANCH   9  15
HETATM   15  C   UNL     1      -9.358  10.307  67.760  1.00  0.00    -0.144 C  
HETATM   16  O   UNL     1      -9.172   9.884  66.618  1.00  0.00    -0.148 OA 
BRANCH  15  17
HETATM   17  C   UNL     1      -9.881   9.388  68.804  1.00  0.00    -0.172 A  
HETATM   18  C   UNL     1      -9.899   9.833  70.132  1.00  0.00    -0.306 A  
HETATM   19  C   UNL     1     -10.312   8.976  71.154  1.00  0.00    -0.362 A  
HETATM   20  C   UNL     1     -10.711   7.675  70.854  1.00  0.00    -0.243 A  
HETATM   21  C   UNL     1     -10.702   7.228  69.533  1.00  0.00    -0.244 A  
HETATM   22  C   UNL     1     -10.278   8.077  68.509  1.00  0.00    -0.231 A  
ENDBRANCH  15  17
ENDBRANCH   9  15
ENDBRANCH   2   3
TORSDOF 3
ENDMDL
MODEL      145
REMARK 921   NORMALIZED FREE ENERGY PREDICTED BY IDOCK:   -3.83 KCAL/MOL
REMARK 922        TOTAL FREE ENERGY PREDICTED BY IDOCK:   -5.06 KCAL/MOL
REMARK 923 INTER-LIGAND FREE ENERGY PREDICTED BY IDOCK:   -4.43 KCAL/MOL
REMARK 924 INTRA-LIGAND FREE ENERGY PREDICTED BY IDOCK:   -0.63 KCAL/MOL
REMARK 927      BINDING AFFINITY PREDICTED BY RF-SCORE:    0.00 PKD
ROOT
HETATM    1  C   UNL     1     -11.537   6.671  71.292  1.00  0.00    -0.323 C  
HETATM    2  O   UNL     1     -11.059   7.963  71.659  1.00  0.00    -0.236 OA 
ENDROOT
BRANCH   2   3
HETATM    3  C   UNL     1     -10.645   8.773  70.639  1.00  0.00    -0.215 A  
HETATM    4  C   UNL     1      -9.274   9.022  70.516  1.00  0.00    -0.220 A  
HETATM    5  C   UNL     1      -8.773   9.883  69.527  1.00  0.00    -0.200 A  
HETATM    6  S   UNL     1      -8.126   8.202  71.587  1.00  0.00    -0.135 S  
HETATM    7  O   UNL     1      -6.680   8.755  71.113  1.00  0.00    -0.060 OA 
HETATM    8  O   UNL     1      -8.155   6.788  71.279  1.00  0.00    -0.109 OA 
HETATM    9  C   UNL     1      -9.648  10.494  68.630  1.00  0.00    -0.171 A  
HETATM   10  O   UNL     1      -8.288   8.734  72.919  1.00  0.00    -0.414 OA 
HETATM   11  H   UNL     1     -12.890  10.757  68.088  1.00  0.00     0.000 HD 
HETATM   12  C   UNL     1     -11.024  10.284  68.779  1.00  0.00    -0.243 A  
HETATM   13  O   UNL     1     -11.957  10.899  67.987  1.00  0.00    -0.586 OA 
HETATM   14  C   UNL     1     -11.519   9.428  69.767  1.00  0.00     0.006 A  
BRANCH   9  15
HETATM   15  C   UNL     1      -9.148  11.389  67.558  1.00  0.00    -0.157 C  
HETATM   16  O   UNL     1      -9.142  12.601  67.781  1.00  0.00    -0.176 OA 
BRANCH  15  17
HETATM   17  C   UNL     1      -8.702  10.889  66.231  1.00  0.00    -0.175 A  
HETATM   18  C   UNL     1      -9.641  10.832  65.193  1.00  0.00    -0.295 A  
HETATM   19  C   UNL     1      -9.285  10.299  63.954  1.00  0.00    -0.312 A  
HETATM   20  C   UNL     1      -7.992   9.823  63.744  1.00  0.00    -0.145 A  
HETATM   21  C   UNL     1      -7.051   9.881  64.772  1.00  0.00    -0.133 A  
HETATM   22  C   UNL     1      -7.405  10.403  66.017  1.00  0.00    -0.134 A  
ENDBRANCH  15  17
ENDBRANCH   9  15
ENDBRANCH   2   3
TORSDOF 3
ENDMDL
MODEL      146
REMARK 921   NORMALIZED FREE ENERGY PREDICTED BY IDOCK:   -3.82 KCAL/MOL
REMARK 922        TOTAL FREE ENERGY PREDICTED BY IDOCK:   -5.05 KCAL/MOL
REMARK 923 INTER-LIGAND FREE ENERGY PREDICTED BY IDOCK:   -4.79 KCAL/MOL
REMARK 924 INTRA-LIGAND FREE ENERGY PREDICTED BY IDOCK:   -0.26 KCAL/MOL
REMARK 927      BINDING AFFINITY PREDICTED BY RF-SCORE:    0.00 PKD
ROOT
HETATM    1  C   UNL     1      -9.796   4.921  70.134  1.00  0.00    -0.239 C  
HETATM    2  O   UNL     1      -9.090   5.889  69.362  1.00  0.00    -0.126 OA 
ENDROOT
BRANCH   2   3
HETATM    3  C   UNL     1      -9.689   7.109  69.218  1.00  0.00    -0.159 A  
HETATM    4  C   UNL     1      -9.622   7.727  67.964  1.00  0.00    -0.150 A  
HETATM    5  C   UNL     1     -10.168   9.002  67.747  1.00  0.00    -0.284 A  
HETATM    6  S   UNL     1      -8.884   6.876  66.597  1.00  0.00    -0.139 S  
HETATM    7  O   UNL     1      -9.017   7.918  65.365  1.00  0.00    -0.051 OA 
HETATM    8  O   UNL     1      -9.717   5.737  66.274  1.00  0.00    -0.157 OA 
HETATM    9  C   UNL     1     -10.810   9.669  68.790  1.00  0.00    -0.199 A  
HETATM   10  O   UNL     1      -7.463   6.787  66.831  1.00  0.00    -0.080 OA 
HETATM   11  H   UNL     1     -11.405   9.286  72.010  1.00  0.00     0.000 HD 
HETATM   12  C   UNL     1     -10.839   9.074  70.056  1.00  0.00    -0.231 A  
HETATM   13  O   UNL     1     -11.386   9.690  71.151  1.00  0.00    -0.327 OA 
HETATM   14  C   UNL     1     -10.292   7.805  70.269  1.00  0.00    -0.215 A  
BRANCH   9  15
HETATM   15  C   UNL     1     -11.419  11.006  68.585  1.00  0.00    -0.308 C  
HETATM   16  O   UNL     1     -12.468  11.254  69.182  1.00  0.00    -0.378 OA 
BRANCH  15  17
HETATM   17  C   UNL     1     -10.842  12.024  67.668  1.00  0.00    -0.273 A  
HETATM   18  C   UNL     1      -9.808  12.839  68.145  1.00  0.00    -0.226 A  
HETATM   19  C   UNL     1      -9.290  13.856  67.343  1.00  0.00    -0.228 A  
HETATM   20  C   UNL     1      -9.798  14.063  66.062  1.00  0.00    -0.316 A  
HETATM   21  C   UNL     1     -10.824  13.251  65.579  1.00  0.00    -0.297 A  
HETATM   22  C   UNL     1     -11.355  12.240  66.381  1.00  0.00    -0.405 A  
ENDBRANCH  15  17
ENDBRANCH   9  15
ENDBRANCH   2   3
TORSDOF 3
ENDMDL
MODEL      147
REMARK 921   NORMALIZED FREE ENERGY PREDICTED BY IDOCK:   -3.80 KCAL/MOL
REMARK 922        TOTAL FREE ENERGY PREDICTED BY IDOCK:   -5.03 KCAL/MOL
REMARK 923 INTER-LIGAND FREE ENERGY PREDICTED BY IDOCK:   -4.41 KCAL/MOL
REMARK 924 INTRA-LIGAND FREE ENERGY PREDICTED BY IDOCK:   -0.62 KCAL/MOL
REMARK 927      BINDING AFFINITY PREDICTED BY RF-SCORE:    0.00 PKD
ROOT
HETATM    1  C   UNL     1     -10.145  17.188  66.526  1.00  0.00    -0.310 C  
HETATM    2  O   UNL     1     -10.813  15.930  66.570  1.00  0.00    -0.291 OA 
ENDROOT
BRANCH   2   3
HETATM    3  C   UNL     1     -10.031  14.831  66.789  1.00  0.00    -0.251 A  
HETATM    4  C   UNL     1     -10.423  13.622  66.205  1.00  0.00    -0.297 A  
HETATM    5  C   UNL     1      -9.702  12.437  66.423  1.00  0.00    -0.246 A  
HETATM    6  S   UNL     1     -11.825  13.575  65.123  1.00  0.00    -0.364 S  
HETATM    7  O   UNL     1     -11.924  12.024  64.672  1.00  0.00    -0.323 OA 
HETATM    8  O   UNL     1     -11.502  14.337  63.936  1.00  0.00    -0.087 OA 
HETATM    9  C   UNL     1      -8.559  12.456  67.220  1.00  0.00    -0.185 A  
HETATM   10  O   UNL     1     -13.014  13.790  65.912  1.00  0.00    -0.407 OA 
HETATM   11  H   UNL     1      -6.872  14.558  69.119  1.00  0.00     0.000 HD 
HETATM   12  C   UNL     1      -8.189  13.654  67.842  1.00  0.00    -0.171 A  
HETATM   13  O   UNL     1      -7.123  13.746  68.696  1.00  0.00    -0.093 OA 
HETATM   14  C   UNL     1      -8.911  14.831  67.625  1.00  0.00    -0.183 A  
BRANCH   9  15
HETATM   15  C   UNL     1      -7.762  11.226  67.448  1.00  0.00    -0.128 C  
HETATM   16  O   UNL     1      -6.986  10.874  66.558  1.00  0.00    -0.124 OA 
BRANCH  15  17
HETATM   17  C   UNL     1      -7.896  10.393  68.672  1.00  0.00    -0.108 A  
HETATM   18  C   UNL     1      -9.181  10.012  69.078  1.00  0.00    -0.180 A  
HETATM   19  C   UNL     1      -9.358   9.293  70.261  1.00  0.00    -0.277 A  
HETATM   20  C   UNL     1      -8.256   8.950  71.041  1.00  0.00    -0.217 A  
HETATM   21  C   UNL     1      -6.973   9.321  70.639  1.00  0.00    -0.101 A  
HETATM   22  C   UNL     1      -6.791  10.051  69.463  1.00  0.00    -0.071 A  
ENDBRANCH  15  17
ENDBRANCH   9  15
ENDBRANCH   2   3
TORSDOF 3
ENDMDL
MODEL      148
REMARK 921   NORMALIZED FREE ENERGY PREDICTED BY IDOCK:   -3.79 KCAL/MOL
REMARK 922        TOTAL FREE ENERGY PREDICTED BY IDOCK:   -5.02 KCAL/MOL
REMARK 923 INTER-LIGAND FREE ENERGY PREDICTED BY IDOCK:   -4.93 KCAL/MOL
REMARK 924 INTRA-LIGAND FREE ENERGY PREDICTED BY IDOCK:   -0.09 KCAL/MOL
REMARK 927      BINDING AFFINITY PREDICTED BY RF-SCORE:    0.00 PKD
ROOT
HETATM    1  C   UNL     1     -10.808  19.512  66.942  1.00  0.00    -0.411 C  
HETATM    2  O   UNL     1     -10.885  18.287  67.665  1.00  0.00    -0.396 OA 
ENDROOT
BRANCH   2   3
HETATM    3  C   UNL     1      -9.711  17.798  68.165  1.00  0.00    -0.313 A  
HETATM    4  C   UNL     1      -9.694  16.476  68.623  1.00  0.00    -0.247 A  
HETATM    5  C   UNL     1      -8.542  15.915  69.197  1.00  0.00    -0.252 A  
HETATM    6  S   UNL     1     -11.130  15.456  68.435  1.00  0.00    -0.317 S  
HETATM    7  O   UNL     1     -10.692  14.035  69.075  1.00  0.00    -0.240 OA 
HETATM    8  O   UNL     1     -11.341  15.232  67.021  1.00  0.00    -0.317 OA 
HETATM    9  C   UNL     1      -7.378  16.675  69.301  1.00  0.00    -0.184 A  
HETATM   10  O   UNL     1     -12.153  15.945  69.329  1.00  0.00    -0.329 OA 
HETATM   11  H   UNL     1      -6.345  19.755  68.736  1.00  0.00     0.000 HD 
HETATM   12  C   UNL     1      -7.404  18.011  68.886  1.00  0.00    -0.243 A  
HETATM   13  O   UNL     1      -6.327  18.848  69.017  1.00  0.00    -0.247 OA 
HETATM   14  C   UNL     1      -8.554  18.567  68.318  1.00  0.00    -0.341 A  
BRANCH   9  15
HETATM   15  C   UNL     1      -6.137  16.102  69.879  1.00  0.00    -0.172 C  
HETATM   16  O   UNL     1      -5.374  16.869  70.467  1.00  0.00    -0.210 OA 
BRANCH  15  17
HETATM   17  C   UNL     1      -5.767  14.670  69.737  1.00  0.00    -0.104 A  
HETATM   18  C   UNL     1      -5.536  14.168  68.450  1.00  0.00    -0.107 A  
HETATM   19  C   UNL     1      -5.259  12.812  68.264  1.00  0.00    -0.069 A  
HETATM   20  C   UNL     1      -5.210  11.954  69.361  1.00  0.00    -0.057 A  
HETATM   21  C   UNL     1      -5.433  12.449  70.646  1.00  0.00    -0.169 A  
HETATM   22  C   UNL     1      -5.722  13.801  70.836  1.00  0.00    -0.206 A  
ENDBRANCH  15  17
ENDBRANCH   9  15
ENDBRANCH   2   3
TORSDOF 3
ENDMDL
MODEL      149
REMARK 921   NORMALIZED FREE ENERGY PREDICTED BY IDOCK:   -3.78 KCAL/MOL
REMARK 922        TOTAL FREE ENERGY PREDICTED BY IDOCK:   -5.01 KCAL/MOL
REMARK 923 INTER-LIGAND FREE ENERGY PREDICTED BY IDOCK:   -4.37 KCAL/MOL
REMARK 924 INTRA-LIGAND FREE ENERGY PREDICTED BY IDOCK:   -0.64 KCAL/MOL
REMARK 927      BINDING AFFINITY PREDICTED BY RF-SCORE:    0.00 PKD
ROOT
HETATM    1  C   UNL     1      -5.526   5.902  73.994  1.00  0.00    -0.037 C  
HETATM    2  O   UNL     1      -6.255   5.152  73.026  1.00  0.00    -0.039 OA 
ENDROOT
BRANCH   2   3
HETATM    3  C   UNL     1      -7.272   5.805  72.387  1.00  0.00    -0.090 A  
HETATM    4  C   UNL     1      -8.257   5.031  71.764  1.00  0.00    -0.116 A  
HETATM    5  C   UNL     1      -9.307   5.624  71.045  1.00  0.00    -0.181 A  
HETATM    6  S   UNL     1      -8.225   3.267  71.918  1.00  0.00    -0.063 S  
HETATM    7  O   UNL     1      -9.515   2.773  71.073  1.00  0.00    -0.137 OA 
HETATM    8  O   UNL     1      -8.479   2.932  73.303  1.00  0.00    -0.074 OA 
HETATM    9  C   UNL     1      -9.392   7.012  70.959  1.00  0.00    -0.159 A  
HETATM   10  O   UNL     1      -7.099   2.765  71.168  1.00  0.00    -0.032 OA 
HETATM   11  H   UNL     1      -7.668   9.681  71.841  1.00  0.00     0.000 HD 
HETATM   12  C   UNL     1      -8.384   7.789  71.543  1.00  0.00    -0.109 A  
HETATM   13  O   UNL     1      -8.352   9.154  71.446  1.00  0.00    -0.321 OA 
HETATM   14  C   UNL     1      -7.339   7.194  72.255  1.00  0.00    -0.080 A  
BRANCH   9  15
HETATM   15  C   UNL     1     -10.504   7.669  70.228  1.00  0.00    -0.224 C  
HETATM   16  O   UNL     1     -10.358   7.863  69.020  1.00  0.00    -0.210 OA 
BRANCH  15  17
HETATM   17  C   UNL     1     -11.747   8.134  70.897  1.00  0.00    -0.259 A  
HETATM   18  C   UNL     1     -11.795   9.453  71.367  1.00  0.00    -0.447 A  
HETATM   19  C   UNL     1     -12.913   9.907  72.068  1.00  0.00    -0.518 A  
HETATM   20  C   UNL     1     -13.987   9.050  72.300  1.00  0.00    -0.522 A  
HETATM   21  C   UNL     1     -13.948   7.737  71.830  1.00  0.00    -0.419 A  
HETATM   22  C   UNL     1     -12.827   7.274  71.140  1.00  0.00    -0.334 A  
ENDBRANCH  15  17
ENDBRANCH   9  15
ENDBRANCH   2   3
TORSDOF 3
ENDMDL
MODEL      150
REMARK 921   NORMALIZED FREE ENERGY PREDICTED BY IDOCK:   -3.78 KCAL/MOL
REMARK 922        TOTAL FREE ENERGY PREDICTED BY IDOCK:   -5.01 KCAL/MOL
REMARK 923 INTER-LIGAND FREE ENERGY PREDICTED BY IDOCK:   -4.42 KCAL/MOL
REMARK 924 INTRA-LIGAND FREE ENERGY PREDICTED BY IDOCK:   -0.59 KCAL/MOL
REMARK 927      BINDING AFFINITY PREDICTED BY RF-SCORE:    0.00 PKD
ROOT
HETATM    1  C   UNL     1     -12.393  11.030  70.227  1.00  0.00    -0.328 C  
HETATM    2  O   UNL     1     -11.773   9.929  70.886  1.00  0.00    -0.307 OA 
ENDROOT
BRANCH   2   3
HETATM    3  C   UNL     1     -10.990   9.118  70.114  1.00  0.00    -0.239 A  
HETATM    4  C   UNL     1     -10.858   7.779  70.498  1.00  0.00    -0.241 A  
HETATM    5  C   UNL     1     -10.032   6.892  69.787  1.00  0.00    -0.187 A  
HETATM    6  S   UNL     1     -11.783   7.157  71.874  1.00  0.00    -0.305 S  
HETATM    7  O   UNL     1     -11.350   5.600  71.970  1.00  0.00    -0.250 OA 
HETATM    8  O   UNL     1     -13.186   7.181  71.521  1.00  0.00    -0.383 OA 
HETATM    9  C   UNL     1      -9.340   7.339  68.663  1.00  0.00    -0.138 A  
HETATM   10  O   UNL     1     -11.252   7.745  73.081  1.00  0.00    -0.402 OA 
HETATM   11  H   UNL     1      -8.798  10.141  67.011  1.00  0.00     0.000 HD 
HETATM   12  C   UNL     1      -9.435   8.688  68.303  1.00  0.00    -0.141 A  
HETATM   13  O   UNL     1      -8.734   9.225  67.256  1.00  0.00    -0.127 OA 
HETATM   14  C   UNL     1     -10.255   9.568  69.015  1.00  0.00    -0.211 A  
BRANCH   9  15
HETATM   15  C   UNL     1      -8.480   6.420  67.876  1.00  0.00    -0.118 C  
HETATM   16  O   UNL     1      -7.304   6.303  68.221  1.00  0.00    -0.082 OA 
BRANCH  15  17
HETATM   17  C   UNL     1      -8.968   5.684  66.681  1.00  0.00    -0.120 A  
HETATM   18  C   UNL     1     -10.325   5.343  66.619  1.00  0.00    -0.325 A  
HETATM   19  C   UNL     1     -10.811   4.586  65.552  1.00  0.00    -0.085 A  
HETATM   20  C   UNL     1      -9.946   4.170  64.541  1.00  0.00    -0.170 A  
HETATM   21  C   UNL     1      -8.594   4.511  64.594  1.00  0.00    -0.139 A  
HETATM   22  C   UNL     1      -8.102   5.257  65.666  1.00  0.00    -0.117 A  
ENDBRANCH  15  17
ENDBRANCH   9  15
ENDBRANCH   2   3
TORSDOF 3
ENDMDL
MODEL      151
REMARK 921   NORMALIZED FREE ENERGY PREDICTED BY IDOCK:   -3.78 KCAL/MOL
REMARK 922        TOTAL FREE ENERGY PREDICTED BY IDOCK:   -5.00 KCAL/MOL
REMARK 923 INTER-LIGAND FREE ENERGY PREDICTED BY IDOCK:   -4.37 KCAL/MOL
REMARK 924 INTRA-LIGAND FREE ENERGY PREDICTED BY IDOCK:   -0.63 KCAL/MOL
REMARK 927      BINDING AFFINITY PREDICTED BY RF-SCORE:    0.00 PKD
ROOT
HETATM    1  C   UNL     1      -8.875   7.975  66.200  1.00  0.00    -0.166 C  
HETATM    2  O   UNL     1      -8.745   8.886  67.287  1.00  0.00    -0.120 OA 
ENDROOT
BRANCH   2   3
HETATM    3  C   UNL     1      -9.260   8.483  68.487  1.00  0.00    -0.135 A  
HETATM    4  C   UNL     1      -8.596   8.883  69.652  1.00  0.00    -0.131 A  
HETATM    5  C   UNL     1      -9.031   8.470  70.921  1.00  0.00    -0.206 A  
HETATM    6  S   UNL     1      -7.207   9.977  69.547  1.00  0.00    -0.122 S  
HETATM    7  O   UNL     1      -6.752  10.187  71.086  1.00  0.00    -0.335 OA 
HETATM    8  O   UNL     1      -7.679  11.260  69.071  1.00  0.00    -0.135 OA 
HETATM    9  C   UNL     1     -10.159   7.659  71.037  1.00  0.00    -0.196 A  
HETATM   10  O   UNL     1      -6.107   9.258  68.949  1.00  0.00    -0.043 OA 
HETATM   11  H   UNL     1     -12.303   6.066  69.103  1.00  0.00     0.000 HD 
HETATM   12  C   UNL     1     -10.799   7.219  69.873  1.00  0.00    -0.247 A  
HETATM   13  O   UNL     1     -11.869   6.365  69.894  1.00  0.00    -0.384 OA 
HETATM   14  C   UNL     1     -10.360   7.631  68.611  1.00  0.00    -0.220 A  
BRANCH   9  15
HETATM   15  C   UNL     1     -10.659   7.226  72.366  1.00  0.00    -0.237 C  
HETATM   16  O   UNL     1     -11.374   8.010  72.991  1.00  0.00    -0.386 OA 
BRANCH  15  17
HETATM   17  C   UNL     1     -10.297   5.920  72.978  1.00  0.00    -0.225 A  
HETATM   18  C   UNL     1     -11.293   4.943  73.095  1.00  0.00    -0.395 A  
HETATM   19  C   UNL     1     -11.017   3.732  73.731  1.00  0.00    -0.312 A  
HETATM   20  C   UNL     1      -9.746   3.490  74.250  1.00  0.00    -0.144 A  
HETATM   21  C   UNL     1      -8.748   4.457  74.131  1.00  0.00    -0.103 A  
HETATM   22  C   UNL     1      -9.023   5.675  73.507  1.00  0.00    -0.125 A  
ENDBRANCH  15  17
ENDBRANCH   9  15
ENDBRANCH   2   3
TORSDOF 3
ENDMDL
MODEL      152
REMARK 921   NORMALIZED FREE ENERGY PREDICTED BY IDOCK:   -3.76 KCAL/MOL
REMARK 922        TOTAL FREE ENERGY PREDICTED BY IDOCK:   -4.98 KCAL/MOL
REMARK 923 INTER-LIGAND FREE ENERGY PREDICTED BY IDOCK:   -4.56 KCAL/MOL
REMARK 924 INTRA-LIGAND FREE ENERGY PREDICTED BY IDOCK:   -0.43 KCAL/MOL
REMARK 927      BINDING AFFINITY PREDICTED BY RF-SCORE:    0.00 PKD
ROOT
HETATM    1  C   UNL     1     -13.415   9.972  72.133  1.00  0.00    -0.318 C  
HETATM    2  O   UNL     1     -12.067   9.594  71.867  1.00  0.00    -0.376 OA 
ENDROOT
BRANCH   2   3
HETATM    3  C   UNL     1     -11.492  10.131  70.750  1.00  0.00    -0.357 A  
HETATM    4  C   UNL     1     -10.242   9.640  70.357  1.00  0.00    -0.288 A  
HETATM    5  C   UNL     1      -9.562  10.172  69.250  1.00  0.00    -0.239 A  
HETATM    6  S   UNL     1      -9.511   8.283  71.229  1.00  0.00    -0.186 S  
HETATM    7  O   UNL     1      -8.106   8.033  70.464  1.00  0.00    -0.100 OA 
HETATM    8  O   UNL     1     -10.327   7.109  71.001  1.00  0.00    -0.197 OA 
HETATM    9  C   UNL     1     -10.142  11.199  68.507  1.00  0.00    -0.208 A  
HETATM   10  O   UNL     1      -9.121   8.743  72.540  1.00  0.00    -0.367 OA 
HETATM   11  H   UNL     1     -12.810  13.135  68.578  1.00  0.00     0.000 HD 
HETATM   12  C   UNL     1     -11.371  11.724  68.924  1.00  0.00    -0.267 A  
HETATM   13  O   UNL     1     -11.977  12.779  68.295  1.00  0.00    -0.319 OA 
HETATM   14  C   UNL     1     -12.043  11.193  70.028  1.00  0.00    -0.437 A  
BRANCH   9  15
HETATM   15  C   UNL     1      -9.460  11.766  67.318  1.00  0.00    -0.170 C  
HETATM   16  O   UNL     1     -10.081  11.778  66.254  1.00  0.00    -0.207 OA 
BRANCH  15  17
HETATM   17  C   UNL     1      -8.062  12.270  67.353  1.00  0.00    -0.175 A  
HETATM   18  C   UNL     1      -7.852  13.626  67.633  1.00  0.00    -0.178 A  
HETATM   19  C   UNL     1      -6.561  14.157  67.602  1.00  0.00    -0.173 A  
HETATM   20  C   UNL     1      -5.477  13.338  67.294  1.00  0.00     0.266 A  
HETATM   21  C   UNL     1      -5.679  11.985  67.020  1.00  0.00    -0.123 A  
HETATM   22  C   UNL     1      -6.968  11.452  67.038  1.00  0.00    -0.135 A  
ENDBRANCH  15  17
ENDBRANCH   9  15
ENDBRANCH   2   3
TORSDOF 3
ENDMDL
MODEL      153
REMARK 921   NORMALIZED FREE ENERGY PREDICTED BY IDOCK:   -3.74 KCAL/MOL
REMARK 922        TOTAL FREE ENERGY PREDICTED BY IDOCK:   -4.96 KCAL/MOL
REMARK 923 INTER-LIGAND FREE ENERGY PREDICTED BY IDOCK:   -4.34 KCAL/MOL
REMARK 924 INTRA-LIGAND FREE ENERGY PREDICTED BY IDOCK:   -0.61 KCAL/MOL
REMARK 927      BINDING AFFINITY PREDICTED BY RF-SCORE:    0.00 PKD
ROOT
HETATM    1  C   UNL     1      -7.893  15.088  68.192  1.00  0.00    -0.120 C  
HETATM    2  O   UNL     1      -8.766  14.358  67.334  1.00  0.00    -0.181 OA 
ENDROOT
BRANCH   2   3
HETATM    3  C   UNL     1      -9.102  13.096  67.737  1.00  0.00    -0.200 A  
HETATM    4  C   UNL     1     -10.326  12.575  67.304  1.00  0.00    -0.220 A  
HETATM    5  C   UNL     1     -10.768  11.307  67.714  1.00  0.00    -0.265 A  
HETATM    6  S   UNL     1     -11.330  13.498  66.173  1.00  0.00    -0.316 S  
HETATM    7  O   UNL     1     -12.623  12.554  65.931  1.00  0.00    -0.514 OA 
HETATM    8  O   UNL     1     -10.627  13.577  64.910  1.00  0.00    -0.349 OA 
HETATM    9  C   UNL     1      -9.970  10.533  68.554  1.00  0.00    -0.181 A  
HETATM   10  O   UNL     1     -11.857  14.648  66.868  1.00  0.00    -0.381 OA 
HETATM   11  H   UNL     1      -7.140  10.769  70.230  1.00  0.00     0.000 HD 
HETATM   12  C   UNL     1      -8.766  11.068  69.026  1.00  0.00    -0.064 A  
HETATM   13  O   UNL     1      -7.957  10.405  69.910  1.00  0.00    -0.132 OA 
HETATM   14  C   UNL     1      -8.332  12.332  68.618  1.00  0.00    -0.002 A  
BRANCH   9  15
HETATM   15  C   UNL     1     -10.397   9.178  68.985  1.00  0.00    -0.215 C  
HETATM   16  O   UNL     1     -11.227   9.102  69.892  1.00  0.00    -0.206 OA 
BRANCH  15  17
HETATM   17  C   UNL     1      -9.838   7.932  68.400  1.00  0.00    -0.185 A  
HETATM   18  C   UNL     1      -9.729   7.842  67.006  1.00  0.00    -0.269 A  
HETATM   19  C   UNL     1      -9.280   6.662  66.412  1.00  0.00    -0.180 A  
HETATM   20  C   UNL     1      -8.934   5.569  67.204  1.00  0.00    -0.112 A  
HETATM   21  C   UNL     1      -9.034   5.654  68.593  1.00  0.00    -0.113 A  
HETATM   22  C   UNL     1      -9.495   6.827  69.192  1.00  0.00    -0.141 A  
ENDBRANCH  15  17
ENDBRANCH   9  15
ENDBRANCH   2   3
TORSDOF 3
ENDMDL
MODEL      154
REMARK 921   NORMALIZED FREE ENERGY PREDICTED BY IDOCK:   -3.73 KCAL/MOL
REMARK 922        TOTAL FREE ENERGY PREDICTED BY IDOCK:   -4.94 KCAL/MOL
REMARK 923 INTER-LIGAND FREE ENERGY PREDICTED BY IDOCK:   -4.92 KCAL/MOL
REMARK 924 INTRA-LIGAND FREE ENERGY PREDICTED BY IDOCK:   -0.02 KCAL/MOL
REMARK 927      BINDING AFFINITY PREDICTED BY RF-SCORE:    0.00 PKD
ROOT
HETATM    1  C   UNL     1     -11.673  14.980  65.062  1.00  0.00    -0.291 C  
HETATM    2  O   UNL     1     -10.559  14.611  65.870  1.00  0.00    -0.289 OA 
ENDROOT
BRANCH   2   3
HETATM    3  C   UNL     1     -10.755  13.581  66.747  1.00  0.00    -0.278 A  
HETATM    4  C   UNL     1     -10.682  13.864  68.115  1.00  0.00    -0.250 A  
HETATM    5  C   UNL     1     -10.822  12.853  69.079  1.00  0.00    -0.188 A  
HETATM    6  S   UNL     1     -10.462  15.534  68.663  1.00  0.00    -0.245 S  
HETATM    7  O   UNL     1     -10.439  15.420  70.277  1.00  0.00    -0.301 OA 
HETATM    8  O   UNL     1     -11.650  16.282  68.313  1.00  0.00    -0.301 OA 
HETATM    9  C   UNL     1     -11.058  11.539  68.678  1.00  0.00    -0.291 A  
HETATM   10  O   UNL     1      -9.124  15.951  68.320  1.00  0.00    -0.181 OA 
HETATM   11  H   UNL     1     -11.261   9.772  65.902  1.00  0.00     0.000 HD 
HETATM   12  C   UNL     1     -11.087  11.244  67.310  1.00  0.00    -0.305 A  
HETATM   13  O   UNL     1     -11.242   9.971  66.830  1.00  0.00     0.043 OA 
HETATM   14  C   UNL     1     -10.944  12.254  66.353  1.00  0.00    -0.326 A  
BRANCH   9  15
HETATM   15  C   UNL     1     -11.236  10.453  69.673  1.00  0.00    -0.277 C  
HETATM   16  O   UNL     1     -12.264  10.462  70.352  1.00  0.00    -0.288 OA 
BRANCH  15  17
HETATM   17  C   UNL     1     -10.215   9.398  69.908  1.00  0.00    -0.247 A  
HETATM   18  C   UNL     1     -10.083   8.378  68.957  1.00  0.00    -0.209 A  
HETATM   19  C   UNL     1      -9.190   7.328  69.174  1.00  0.00    -0.139 A  
HETATM   20  C   UNL     1      -8.424   7.292  70.337  1.00  0.00    -0.139 A  
HETATM   21  C   UNL     1      -8.546   8.308  71.286  1.00  0.00    -0.179 A  
HETATM   22  C   UNL     1      -9.447   9.354  71.079  1.00  0.00    -0.243 A  
ENDBRANCH  15  17
ENDBRANCH   9  15
ENDBRANCH   2   3
TORSDOF 3
ENDMDL
MODEL      155
REMARK 921   NORMALIZED FREE ENERGY PREDICTED BY IDOCK:   -3.67 KCAL/MOL
REMARK 922        TOTAL FREE ENERGY PREDICTED BY IDOCK:   -4.87 KCAL/MOL
REMARK 923 INTER-LIGAND FREE ENERGY PREDICTED BY IDOCK:   -4.92 KCAL/MOL
REMARK 924 INTRA-LIGAND FREE ENERGY PREDICTED BY IDOCK:    0.05 KCAL/MOL
REMARK 927      BINDING AFFINITY PREDICTED BY RF-SCORE:    0.00 PKD
ROOT
HETATM    1  C   UNL     1     -13.978   8.994  72.240  1.00  0.00    -0.455 C  
HETATM    2  O   UNL     1     -12.594   9.278  72.421  1.00  0.00    -0.351 OA 
ENDROOT
BRANCH   2   3
HETATM    3  C   UNL     1     -11.927   9.778  71.338  1.00  0.00    -0.411 A  
HETATM    4  C   UNL     1     -10.869   9.026  70.815  1.00  0.00    -0.251 A  
HETATM    5  C   UNL     1     -10.102   9.493  69.736  1.00  0.00    -0.238 A  
HETATM    6  S   UNL     1     -10.509   7.425  71.481  1.00  0.00    -0.200 S  
HETATM    7  O   UNL     1      -9.248   6.908  70.607  1.00  0.00    -0.158 OA 
HETATM    8  O   UNL     1     -11.619   6.549  71.173  1.00  0.00    -0.307 OA 
HETATM    9  C   UNL     1     -10.403  10.723  69.152  1.00  0.00    -0.238 A  
HETATM   10  O   UNL     1      -9.971   7.596  72.810  1.00  0.00    -0.197 OA 
HETATM   11  H   UNL     1     -12.442  13.274  69.607  1.00  0.00     0.000 HD 
HETATM   12  C   UNL     1     -11.430  11.498  69.701  1.00  0.00    -0.301 A  
HETATM   13  O   UNL     1     -11.745  12.747  69.234  1.00  0.00    -0.289 OA 
HETATM   14  C   UNL     1     -12.190  11.031  70.777  1.00  0.00    -0.480 A  
BRANCH   9  15
HETATM   15  C   UNL     1      -9.627  11.232  67.995  1.00  0.00    -0.180 C  
HETATM   16  O   UNL     1      -9.822  12.397  67.644  1.00  0.00    -0.191 OA 
BRANCH  15  17
HETATM   17  C   UNL     1      -8.672  10.389  67.229  1.00  0.00    -0.125 A  
HETATM   18  C   UNL     1      -7.344  10.322  67.668  1.00  0.00    -0.088 A  
HETATM   19  C   UNL     1      -6.398   9.603  66.936  1.00  0.00    -0.066 A  
HETATM   20  C   UNL     1      -6.774   8.946  65.766  1.00  0.00    -0.068 A  
HETATM   21  C   UNL     1      -8.096   9.003  65.326  1.00  0.00    -0.126 A  
HETATM   22  C   UNL     1      -9.043   9.732  66.048  1.00  0.00    -0.201 A  
ENDBRANCH  15  17
ENDBRANCH   9  15
ENDBRANCH   2   3
TORSDOF 3
ENDMDL
MODEL      156
REMARK 921   NORMALIZED FREE ENERGY PREDICTED BY IDOCK:   -3.66 KCAL/MOL
REMARK 922        TOTAL FREE ENERGY PREDICTED BY IDOCK:   -4.86 KCAL/MOL
REMARK 923 INTER-LIGAND FREE ENERGY PREDICTED BY IDOCK:   -4.17 KCAL/MOL
REMARK 924 INTRA-LIGAND FREE ENERGY PREDICTED BY IDOCK:   -0.69 KCAL/MOL
REMARK 927      BINDING AFFINITY PREDICTED BY RF-SCORE:    0.00 PKD
ROOT
HETATM    1  C   UNL     1     -11.189   5.225  73.175  1.00  0.00    -0.318 C  
HETATM    2  O   UNL     1     -10.780   6.516  72.732  1.00  0.00    -0.219 OA 
ENDROOT
BRANCH   2   3
HETATM    3  C   UNL     1     -10.317   6.604  71.449  1.00  0.00    -0.200 A  
HETATM    4  C   UNL     1      -9.038   7.134  71.249  1.00  0.00    -0.151 A  
HETATM    5  C   UNL     1      -8.510   7.304  69.959  1.00  0.00    -0.139 A  
HETATM    6  S   UNL     1      -8.028   7.557  72.641  1.00  0.00    -0.106 S  
HETATM    7  O   UNL     1      -6.659   8.115  71.981  1.00  0.00    -0.056 OA 
HETATM    8  O   UNL     1      -7.689   6.335  73.339  1.00  0.00    -0.098 OA 
HETATM    9  C   UNL     1      -9.258   6.922  68.847  1.00  0.00    -0.132 A  
HETATM   10  O   UNL     1      -8.605   8.712  73.286  1.00  0.00    -0.375 OA 
HETATM   11  H   UNL     1     -12.264   5.770  68.133  1.00  0.00     0.000 HD 
HETATM   12  C   UNL     1     -10.555   6.433  69.040  1.00  0.00    -0.257 A  
HETATM   13  O   UNL     1     -11.384   6.101  68.001  1.00  0.00    -0.221 OA 
HETATM   14  C   UNL     1     -11.078   6.268  70.326  1.00  0.00    -0.430 A  
BRANCH   9  15
HETATM   15  C   UNL     1      -8.717   7.065  67.473  1.00  0.00    -0.120 C  
HETATM   16  O   UNL     1      -8.207   6.072  66.953  1.00  0.00    -0.105 OA 
BRANCH  15  17
HETATM   17  C   UNL     1      -8.730   8.353  66.731  1.00  0.00    -0.138 A  
HETATM   18  C   UNL     1      -9.934   9.065  66.656  1.00  0.00    -0.349 A  
HETATM   19  C   UNL     1     -10.009  10.240  65.907  1.00  0.00    -0.321 A  
HETATM   20  C   UNL     1      -8.884  10.711  65.232  1.00  0.00    -0.204 A  
HETATM   21  C   UNL     1      -7.680  10.010  65.307  1.00  0.00    -0.139 A  
HETATM   22  C   UNL     1      -7.603   8.827  66.045  1.00  0.00    -0.093 A  
ENDBRANCH  15  17
ENDBRANCH   9  15
ENDBRANCH   2   3
TORSDOF 3
ENDMDL
MODEL      157
REMARK 921   NORMALIZED FREE ENERGY PREDICTED BY IDOCK:   -3.64 KCAL/MOL
REMARK 922        TOTAL FREE ENERGY PREDICTED BY IDOCK:   -4.84 KCAL/MOL
REMARK 923 INTER-LIGAND FREE ENERGY PREDICTED BY IDOCK:   -4.41 KCAL/MOL
REMARK 924 INTRA-LIGAND FREE ENERGY PREDICTED BY IDOCK:   -0.44 KCAL/MOL
REMARK 927      BINDING AFFINITY PREDICTED BY RF-SCORE:    0.00 PKD
ROOT
HETATM    1  C   UNL     1      -7.847  12.801  67.649  1.00  0.00    -0.165 C  
HETATM    2  O   UNL     1      -8.821  12.067  66.911  1.00  0.00    -0.186 OA 
ENDROOT
BRANCH   2   3
HETATM    3  C   UNL     1      -9.036  10.775  67.299  1.00  0.00    -0.140 A  
HETATM    4  C   UNL     1     -10.228  10.483  67.970  1.00  0.00    -0.166 A  
HETATM    5  C   UNL     1     -10.503   9.191  68.447  1.00  0.00    -0.241 A  
HETATM    6  S   UNL     1     -11.453  11.745  68.187  1.00  0.00    -0.328 S  
HETATM    7  O   UNL     1     -12.648  11.001  68.987  1.00  0.00    -0.378 OA 
HETATM    8  O   UNL     1     -11.975  12.093  66.883  1.00  0.00    -0.603 OA 
HETATM    9  C   UNL     1      -9.584   8.165  68.236  1.00  0.00    -0.154 A  
HETATM   10  O   UNL     1     -10.946  12.713  69.130  1.00  0.00    -0.223 OA 
HETATM   11  H   UNL     1      -6.560   7.732  66.993  1.00  0.00     0.000 HD 
HETATM   12  C   UNL     1      -8.370   8.462  67.605  1.00  0.00    -0.130 A  
HETATM   13  O   UNL     1      -7.384   7.530  67.421  1.00  0.00    -0.093 OA 
HETATM   14  C   UNL     1      -8.100   9.750  67.135  1.00  0.00    -0.116 A  
BRANCH   9  15
HETATM   15  C   UNL     1      -9.856   6.783  68.705  1.00  0.00    -0.142 C  
HETATM   16  O   UNL     1     -10.101   6.624  69.901  1.00  0.00    -0.173 OA 
BRANCH  15  17
HETATM   17  C   UNL     1      -9.800   5.600  67.806  1.00  0.00    -0.153 A  
HETATM   18  C   UNL     1      -8.951   4.542  68.154  1.00  0.00    -0.140 A  
HETATM   19  C   UNL     1      -8.811   3.446  67.301  1.00  0.00    -0.152 A  
HETATM   20  C   UNL     1      -9.519   3.400  66.101  1.00  0.00    -0.124 A  
HETATM   21  C   UNL     1     -10.370   4.449  65.752  1.00  0.00    -0.246 A  
HETATM   22  C   UNL     1     -10.504   5.553  66.595  1.00  0.00    -0.355 A  
ENDBRANCH  15  17
ENDBRANCH   9  15
ENDBRANCH   2   3
TORSDOF 3
ENDMDL
MODEL      158
REMARK 921   NORMALIZED FREE ENERGY PREDICTED BY IDOCK:   -3.57 KCAL/MOL
REMARK 922        TOTAL FREE ENERGY PREDICTED BY IDOCK:   -4.76 KCAL/MOL
REMARK 923 INTER-LIGAND FREE ENERGY PREDICTED BY IDOCK:   -4.32 KCAL/MOL
REMARK 924 INTRA-LIGAND FREE ENERGY PREDICTED BY IDOCK:   -0.44 KCAL/MOL
REMARK 927      BINDING AFFINITY PREDICTED BY RF-SCORE:    0.00 PKD
ROOT
HETATM    1  C   UNL     1     -10.399   5.282  66.955  1.00  0.00    -0.255 C  
HETATM    2  O   UNL     1      -9.491   6.302  67.361  1.00  0.00    -0.115 OA 
ENDROOT
BRANCH   2   3
HETATM    3  C   UNL     1      -9.745   7.564  66.901  1.00  0.00    -0.209 A  
HETATM    4  C   UNL     1      -8.970   8.040  65.837  1.00  0.00    -0.137 A  
HETATM    5  C   UNL     1      -9.134   9.342  65.339  1.00  0.00    -0.280 A  
HETATM    6  S   UNL     1      -7.790   6.975  65.055  1.00  0.00    -0.129 S  
HETATM    7  O   UNL     1      -7.132   7.896  63.898  1.00  0.00    -0.073 OA 
HETATM    8  O   UNL     1      -8.514   5.916  64.386  1.00  0.00    -0.093 OA 
HETATM    9  C   UNL     1     -10.098  10.182  65.894  1.00  0.00    -0.325 A  
HETATM   10  O   UNL     1      -6.706   6.742  65.980  1.00  0.00    -0.049 OA 
HETATM   11  H   UNL     1     -12.265  10.198  68.379  1.00  0.00     0.000 HD 
HETATM   12  C   UNL     1     -10.843   9.725  66.987  1.00  0.00    -0.094 A  
HETATM   13  O   UNL     1     -11.760  10.508  67.637  1.00  0.00    -0.401 OA 
HETATM   14  C   UNL     1     -10.675   8.429  67.482  1.00  0.00    -0.207 A  
BRANCH   9  15
HETATM   15  C   UNL     1     -10.312  11.555  65.373  1.00  0.00    -0.273 C  
HETATM   16  O   UNL     1     -10.886  11.671  64.290  1.00  0.00    -0.316 OA 
BRANCH  15  17
HETATM   17  C   UNL     1      -9.827  12.770  66.078  1.00  0.00    -0.258 A  
HETATM   18  C   UNL     1      -8.687  12.660  66.885  1.00  0.00    -0.175 A  
HETATM   19  C   UNL     1      -8.242  13.757  67.623  1.00  0.00    -0.180 A  
HETATM   20  C   UNL     1      -8.929  14.968  67.559  1.00  0.00    -0.189 A  
HETATM   21  C   UNL     1     -10.062  15.085  66.753  1.00  0.00    -0.257 A  
HETATM   22  C   UNL     1     -10.519  13.988  66.022  1.00  0.00    -0.307 A  
ENDBRANCH  15  17
ENDBRANCH   9  15
ENDBRANCH   2   3
TORSDOF 3
ENDMDL
MODEL      159
REMARK 921   NORMALIZED FREE ENERGY PREDICTED BY IDOCK:   -3.57 KCAL/MOL
REMARK 922        TOTAL FREE ENERGY PREDICTED BY IDOCK:   -4.75 KCAL/MOL
REMARK 923 INTER-LIGAND FREE ENERGY PREDICTED BY IDOCK:   -4.12 KCAL/MOL
REMARK 924 INTRA-LIGAND FREE ENERGY PREDICTED BY IDOCK:   -0.64 KCAL/MOL
REMARK 927      BINDING AFFINITY PREDICTED BY RF-SCORE:    0.00 PKD
ROOT
HETATM    1  C   UNL     1     -10.315   8.615  71.953  1.00  0.00    -0.335 C  
HETATM    2  O   UNL     1     -10.828   8.985  70.676  1.00  0.00    -0.218 OA 
ENDROOT
BRANCH   2   3
HETATM    3  C   UNL     1     -10.592   8.116  69.647  1.00  0.00    -0.223 A  
HETATM    4  C   UNL     1     -10.534   8.637  68.350  1.00  0.00    -0.176 A  
HETATM    5  C   UNL     1     -10.345   7.805  67.235  1.00  0.00    -0.371 A  
HETATM    6  S   UNL     1     -10.646  10.386  68.094  1.00  0.00    -0.229 S  
HETATM    7  O   UNL     1     -10.531  10.558  66.488  1.00  0.00    -0.241 OA 
HETATM    8  O   UNL     1      -9.468  11.001  68.666  1.00  0.00    -0.184 OA 
HETATM    9  C   UNL     1     -10.191   6.431  67.413  1.00  0.00    -0.223 A  
HETATM   10  O   UNL     1     -11.994  10.804  68.397  1.00  0.00    -0.508 OA 
HETATM   11  H   UNL     1     -10.295   4.197  69.836  1.00  0.00     0.000 HD 
HETATM   12  C   UNL     1     -10.294   5.901  68.704  1.00  0.00    -0.215 A  
HETATM   13  O   UNL     1     -10.225   4.557  68.960  1.00  0.00    -0.079 OA 
HETATM   14  C   UNL     1     -10.485   6.733  69.811  1.00  0.00    -0.240 A  
BRANCH   9  15
HETATM   15  C   UNL     1      -9.965   5.528  66.257  1.00  0.00    -0.140 C  
HETATM   16  O   UNL     1     -10.929   4.887  65.835  1.00  0.00    -0.248 OA 
BRANCH  15  17
HETATM   17  C   UNL     1      -8.631   5.340  65.630  1.00  0.00    -0.143 A  
HETATM   18  C   UNL     1      -8.575   4.816  64.332  1.00  0.00    -0.145 A  
HETATM   19  C   UNL     1      -7.342   4.553  63.734  1.00  0.00    -0.054 A  
HETATM   20  C   UNL     1      -6.161   4.813  64.426  1.00  0.00    -0.030 A  
HETATM   21  C   UNL     1      -6.209   5.340  65.716  1.00  0.00    -0.034 A  
HETATM   22  C   UNL     1      -7.440   5.594  66.324  1.00  0.00    -0.083 A  
ENDBRANCH  15  17
ENDBRANCH   9  15
ENDBRANCH   2   3
TORSDOF 3
ENDMDL
MODEL      160
REMARK 921   NORMALIZED FREE ENERGY PREDICTED BY IDOCK:   -3.56 KCAL/MOL
REMARK 922        TOTAL FREE ENERGY PREDICTED BY IDOCK:   -4.75 KCAL/MOL
REMARK 923 INTER-LIGAND FREE ENERGY PREDICTED BY IDOCK:   -4.45 KCAL/MOL
REMARK 924 INTRA-LIGAND FREE ENERGY PREDICTED BY IDOCK:   -0.29 KCAL/MOL
REMARK 927      BINDING AFFINITY PREDICTED BY RF-SCORE:    0.00 PKD
ROOT
HETATM    1  C   UNL     1      -7.598   2.378  66.549  1.00  0.00    -0.071 C  
HETATM    2  O   UNL     1      -7.725   3.767  66.842  1.00  0.00    -0.079 OA 
ENDROOT
BRANCH   2   3
HETATM    3  C   UNL     1      -8.400   4.091  67.985  1.00  0.00    -0.093 A  
HETATM    4  C   UNL     1      -9.484   4.969  67.878  1.00  0.00    -0.134 A  
HETATM    5  C   UNL     1     -10.198   5.391  69.011  1.00  0.00    -0.291 A  
HETATM    6  S   UNL     1     -10.015   5.530  66.284  1.00  0.00    -0.110 S  
HETATM    7  O   UNL     1     -11.271   6.500  66.605  1.00  0.00    -0.244 OA 
HETATM    8  O   UNL     1     -10.539   4.393  65.559  1.00  0.00    -0.265 OA 
HETATM    9  C   UNL     1      -9.841   4.917  70.273  1.00  0.00    -0.306 A  
HETATM   10  O   UNL     1      -9.008   6.420  65.758  1.00  0.00    -0.138 OA 
HETATM   11  H   UNL     1      -7.513   3.049  71.674  1.00  0.00     0.000 HD 
HETATM   12  C   UNL     1      -8.730   4.075  70.389  1.00  0.00    -0.078 A  
HETATM   13  O   UNL     1      -8.268   3.620  71.595  1.00  0.00    -0.064 OA 
HETATM   14  C   UNL     1      -8.020   3.659  69.258  1.00  0.00    -0.060 A  
BRANCH   9  15
HETATM   15  C   UNL     1     -10.592   5.324  71.486  1.00  0.00    -0.184 C  
HETATM   16  O   UNL     1     -10.759   4.478  72.365  1.00  0.00    -0.173 OA 
BRANCH  15  17
HETATM   17  C   UNL     1     -11.176   6.680  71.656  1.00  0.00    -0.306 A  
HETATM   18  C   UNL     1     -12.571   6.801  71.706  1.00  0.00    -0.370 A  
HETATM   19  C   UNL     1     -13.164   8.061  71.790  1.00  0.00    -0.367 A  
HETATM   20  C   UNL     1     -12.369   9.205  71.826  1.00  0.00    -0.444 A  
HETATM   21  C   UNL     1     -10.979   9.092  71.783  1.00  0.00    -0.443 A  
HETATM   22  C   UNL     1     -10.382   7.834  71.687  1.00  0.00    -0.236 A  
ENDBRANCH  15  17
ENDBRANCH   9  15
ENDBRANCH   2   3
TORSDOF 3
ENDMDL
MODEL      161
REMARK 921   NORMALIZED FREE ENERGY PREDICTED BY IDOCK:   -3.52 KCAL/MOL
REMARK 922        TOTAL FREE ENERGY PREDICTED BY IDOCK:   -4.70 KCAL/MOL
REMARK 923 INTER-LIGAND FREE ENERGY PREDICTED BY IDOCK:   -4.30 KCAL/MOL
REMARK 924 INTRA-LIGAND FREE ENERGY PREDICTED BY IDOCK:   -0.41 KCAL/MOL
REMARK 927      BINDING AFFINITY PREDICTED BY RF-SCORE:    0.00 PKD
ROOT
HETATM    1  C   UNL     1      -9.207  13.047  67.712  1.00  0.00    -0.200 C  
HETATM    2  O   UNL     1      -9.923  12.164  66.854  1.00  0.00    -0.201 OA 
ENDROOT
BRANCH   2   3
HETATM    3  C   UNL     1     -10.042  10.869  67.273  1.00  0.00    -0.191 A  
HETATM    4  C   UNL     1      -9.699   9.855  66.372  1.00  0.00    -0.212 A  
HETATM    5  C   UNL     1      -9.840   8.499  66.707  1.00  0.00    -0.327 A  
HETATM    6  S   UNL     1      -9.021  10.270  64.789  1.00  0.00    -0.221 S  
HETATM    7  O   UNL     1      -8.764   8.838  64.081  1.00  0.00    -0.127 OA 
HETATM    8  O   UNL     1      -7.721  10.872  65.001  1.00  0.00     0.063 OA 
HETATM    9  C   UNL     1     -10.313   8.142  67.969  1.00  0.00    -0.267 A  
HETATM   10  O   UNL     1     -10.062  10.876  63.994  1.00  0.00    -0.305 OA 
HETATM   11  H   UNL     1     -11.504   9.575  70.690  1.00  0.00     0.000 HD 
HETATM   12  C   UNL     1     -10.700   9.152  68.857  1.00  0.00    -0.141 A  
HETATM   13  O   UNL     1     -11.241   8.890  70.087  1.00  0.00    -0.238 OA 
HETATM   14  C   UNL     1     -10.561  10.501  68.517  1.00  0.00    -0.234 A  
BRANCH   9  15
HETATM   15  C   UNL     1     -10.450   6.718  68.363  1.00  0.00    -0.205 C  
HETATM   16  O   UNL     1     -11.120   5.985  67.634  1.00  0.00    -0.297 OA 
BRANCH  15  17
HETATM   17  C   UNL     1      -9.853   6.164  69.606  1.00  0.00    -0.196 A  
HETATM   18  C   UNL     1     -10.713   5.629  70.574  1.00  0.00    -0.344 A  
HETATM   19  C   UNL     1     -10.203   5.166  71.788  1.00  0.00    -0.271 A  
HETATM   20  C   UNL     1      -8.834   5.234  72.040  1.00  0.00    -0.137 A  
HETATM   21  C   UNL     1      -7.971   5.760  71.078  1.00  0.00    -0.115 A  
HETATM   22  C   UNL     1      -8.478   6.235  69.867  1.00  0.00    -0.130 A  
ENDBRANCH  15  17
ENDBRANCH   9  15
ENDBRANCH   2   3
TORSDOF 3
ENDMDL
MODEL      162
REMARK 921   NORMALIZED FREE ENERGY PREDICTED BY IDOCK:   -3.51 KCAL/MOL
REMARK 922        TOTAL FREE ENERGY PREDICTED BY IDOCK:   -4.69 KCAL/MOL
REMARK 923 INTER-LIGAND FREE ENERGY PREDICTED BY IDOCK:   -4.07 KCAL/MOL
REMARK 924 INTRA-LIGAND FREE ENERGY PREDICTED BY IDOCK:   -0.63 KCAL/MOL
REMARK 927      BINDING AFFINITY PREDICTED BY RF-SCORE:    0.00 PKD
ROOT
HETATM    1  C   UNL     1      -8.094   8.332  73.550  1.00  0.00    -0.174 C  
HETATM    2  O   UNL     1      -8.680   8.486  72.260  1.00  0.00    -0.218 OA 
ENDROOT
BRANCH   2   3
HETATM    3  C   UNL     1      -8.822   7.349  71.515  1.00  0.00    -0.124 A  
HETATM    4  C   UNL     1     -10.118   6.875  71.286  1.00  0.00    -0.190 A  
HETATM    5  C   UNL     1     -10.346   5.687  70.573  1.00  0.00    -0.327 A  
HETATM    6  S   UNL     1     -11.515   7.804  71.854  1.00  0.00    -0.292 S  
HETATM    7  O   UNL     1     -12.791   6.925  71.386  1.00  0.00    -0.366 OA 
HETATM    8  O   UNL     1     -11.563   9.043  71.107  1.00  0.00    -0.273 OA 
HETATM    9  C   UNL     1      -9.269   4.967  70.061  1.00  0.00    -0.182 A  
HETATM   10  O   UNL     1     -11.549   7.737  73.295  1.00  0.00    -0.248 OA 
HETATM   11  H   UNL     1      -5.972   5.033  70.103  1.00  0.00     0.000 HD 
HETATM   12  C   UNL     1      -7.969   5.414  70.326  1.00  0.00    -0.092 A  
HETATM   13  O   UNL     1      -6.854   4.730  69.922  1.00  0.00    -0.045 OA 
HETATM   14  C   UNL     1      -7.746   6.595  71.039  1.00  0.00    -0.097 A  
BRANCH   9  15
HETATM   15  C   UNL     1      -9.478   3.722  69.281  1.00  0.00    -0.182 C  
HETATM   16  O   UNL     1      -9.601   2.669  69.908  1.00  0.00    -0.111 OA 
BRANCH  15  17
HETATM   17  C   UNL     1      -9.501   3.694  67.795  1.00  0.00    -0.231 A  
HETATM   18  C   UNL     1     -10.131   4.747  67.121  1.00  0.00    -0.210 A  
HETATM   19  C   UNL     1     -10.242   4.724  65.730  1.00  0.00    -0.251 A  
HETATM   20  C   UNL     1      -9.722   3.652  65.007  1.00  0.00    -0.162 A  
HETATM   21  C   UNL     1      -9.087   2.603  65.672  1.00  0.00    -0.121 A  
HETATM   22  C   UNL     1      -8.985   2.615  67.064  1.00  0.00    -0.171 A  
ENDBRANCH  15  17
ENDBRANCH   9  15
ENDBRANCH   2   3
TORSDOF 3
ENDMDL
MODEL      163
REMARK 921   NORMALIZED FREE ENERGY PREDICTED BY IDOCK:   -3.41 KCAL/MOL
REMARK 922        TOTAL FREE ENERGY PREDICTED BY IDOCK:   -4.57 KCAL/MOL
REMARK 923 INTER-LIGAND FREE ENERGY PREDICTED BY IDOCK:   -3.87 KCAL/MOL
REMARK 924 INTRA-LIGAND FREE ENERGY PREDICTED BY IDOCK:   -0.70 KCAL/MOL
REMARK 927      BINDING AFFINITY PREDICTED BY RF-SCORE:    0.00 PKD
ROOT
HETATM    1  C   UNL     1     -12.804  11.360  71.448  1.00  0.00    -0.397 C  
HETATM    2  O   UNL     1     -12.484  11.682  70.097  1.00  0.00    -0.221 OA 
ENDROOT
BRANCH   2   3
HETATM    3  C   UNL     1     -11.272  11.251  69.637  1.00  0.00    -0.251 A  
HETATM    4  C   UNL     1     -10.554  12.100  68.788  1.00  0.00    -0.201 A  
HETATM    5  C   UNL     1      -9.325  11.711  68.233  1.00  0.00    -0.191 A  
HETATM    6  S   UNL     1     -11.168  13.724  68.437  1.00  0.00    -0.291 S  
HETATM    7  O   UNL     1     -10.057  14.360  67.445  1.00  0.00    -0.240 OA 
HETATM    8  O   UNL     1     -11.126  14.495  69.661  1.00  0.00    -0.254 OA 
HETATM    9  C   UNL     1      -8.788  10.463  68.542  1.00  0.00    -0.142 A  
HETATM   10  O   UNL     1     -12.345  13.596  67.612  1.00  0.00    -0.257 OA 
HETATM   11  H   UNL     1      -9.604   7.732  70.200  1.00  0.00     0.000 HD 
HETATM   12  C   UNL     1      -9.524   9.592  69.354  1.00  0.00    -0.192 A  
HETATM   13  O   UNL     1      -9.104   8.323  69.649  1.00  0.00    -0.151 OA 
HETATM   14  C   UNL     1     -10.749   9.982  69.902  1.00  0.00    -0.328 A  
BRANCH   9  15
HETATM   15  C   UNL     1      -7.479  10.033  67.991  1.00  0.00    -0.088 C  
HETATM   16  O   UNL     1      -6.484  10.181  68.702  1.00  0.00    -0.052 OA 
BRANCH  15  17
HETATM   17  C   UNL     1      -7.322   9.481  66.620  1.00  0.00    -0.090 A  
HETATM   18  C   UNL     1      -6.271   9.959  65.828  1.00  0.00    -0.082 A  
HETATM   19  C   UNL     1      -6.132   9.524  64.509  1.00  0.00    -0.082 A  
HETATM   20  C   UNL     1      -7.038   8.609  63.977  1.00  0.00    -0.090 A  
HETATM   21  C   UNL     1      -8.084   8.124  64.762  1.00  0.00    -0.152 A  
HETATM   22  C   UNL     1      -8.235   8.566  66.078  1.00  0.00    -0.118 A  
ENDBRANCH  15  17
ENDBRANCH   9  15
ENDBRANCH   2   3
TORSDOF 3
ENDMDL
MODEL      164
REMARK 921   NORMALIZED FREE ENERGY PREDICTED BY IDOCK:   -3.39 KCAL/MOL
REMARK 922        TOTAL FREE ENERGY PREDICTED BY IDOCK:   -4.55 KCAL/MOL
REMARK 923 INTER-LIGAND FREE ENERGY PREDICTED BY IDOCK:   -3.91 KCAL/MOL
REMARK 924 INTRA-LIGAND FREE ENERGY PREDICTED BY IDOCK:   -0.65 KCAL/MOL
REMARK 927      BINDING AFFINITY PREDICTED BY RF-SCORE:    0.00 PKD
ROOT
HETATM    1  C   UNL     1     -12.624  13.484  65.514  1.00  0.00    -0.481 C  
HETATM    2  O   UNL     1     -11.253  13.837  65.679  1.00  0.00    -0.300 OA 
ENDROOT
BRANCH   2   3
HETATM    3  C   UNL     1     -10.349  12.814  65.626  1.00  0.00    -0.279 A  
HETATM    4  C   UNL     1      -9.340  12.781  66.595  1.00  0.00    -0.242 A  
HETATM    5  C   UNL     1      -8.343  11.793  66.580  1.00  0.00    -0.136 A  
HETATM    6  S   UNL     1      -9.333  13.973  67.906  1.00  0.00    -0.214 S  
HETATM    7  O   UNL     1      -8.033  13.583  68.787  1.00  0.00    -0.106 OA 
HETATM    8  O   UNL     1     -10.492  13.731  68.739  1.00  0.00    -0.240 OA 
HETATM    9  C   UNL     1      -8.359  10.806  65.596  1.00  0.00    -0.144 A  
HETATM   10  O   UNL     1      -9.006  15.262  67.346  1.00  0.00    -0.173 OA 
HETATM   11  H   UNL     1     -10.052  10.012  62.880  1.00  0.00     0.000 HD 
HETATM   12  C   UNL     1      -9.340  10.861  64.599  1.00  0.00    -0.223 A  
HETATM   13  O   UNL     1      -9.386   9.974  63.557  1.00  0.00    -0.275 OA 
HETATM   14  C   UNL     1     -10.329  11.849  64.616  1.00  0.00    -0.326 A  
BRANCH   9  15
HETATM   15  C   UNL     1      -7.334   9.733  65.569  1.00  0.00    -0.112 C  
HETATM   16  O   UNL     1      -6.291   9.955  64.953  1.00  0.00    -0.095 OA 
BRANCH  15  17
HETATM   17  C   UNL     1      -7.537   8.407  66.209  1.00  0.00    -0.086 A  
HETATM   18  C   UNL     1      -6.894   7.295  65.652  1.00  0.00    -0.056 A  
HETATM   19  C   UNL     1      -7.116   6.020  66.175  1.00  0.00    -0.067 A  
HETATM   20  C   UNL     1      -7.978   5.851  67.257  1.00  0.00    -0.102 A  
HETATM   21  C   UNL     1      -8.617   6.955  67.821  1.00  0.00    -0.122 A  
HETATM   22  C   UNL     1      -8.408   8.230  67.293  1.00  0.00    -0.124 A  
ENDBRANCH  15  17
ENDBRANCH   9  15
ENDBRANCH   2   3
TORSDOF 3
ENDMDL
MODEL      165
REMARK 921   NORMALIZED FREE ENERGY PREDICTED BY IDOCK:   -3.37 KCAL/MOL
REMARK 922        TOTAL FREE ENERGY PREDICTED BY IDOCK:   -4.53 KCAL/MOL
REMARK 923 INTER-LIGAND FREE ENERGY PREDICTED BY IDOCK:   -3.94 KCAL/MOL
REMARK 924 INTRA-LIGAND FREE ENERGY PREDICTED BY IDOCK:   -0.59 KCAL/MOL
REMARK 927      BINDING AFFINITY PREDICTED BY RF-SCORE:    0.00 PKD
ROOT
HETATM    1  C   UNL     1     -10.924   4.691  73.769  1.00  0.00    -0.295 C  
HETATM    2  O   UNL     1      -9.931   4.545  72.758  1.00  0.00    -0.149 OA 
ENDROOT
BRANCH   2   3
HETATM    3  C   UNL     1     -10.155   5.204  71.582  1.00  0.00    -0.200 A  
HETATM    4  C   UNL     1      -9.711   4.602  70.399  1.00  0.00    -0.222 A  
HETATM    5  C   UNL     1      -9.858   5.237  69.156  1.00  0.00    -0.257 A  
HETATM    6  S   UNL     1      -8.995   2.983  70.445  1.00  0.00    -0.113 S  
HETATM    7  O   UNL     1      -8.634   2.667  68.900  1.00  0.00    -0.064 OA 
HETATM    8  O   UNL     1     -10.027   2.046  70.835  1.00  0.00    -0.046 OA 
HETATM    9  C   UNL     1     -10.474   6.485  69.082  1.00  0.00    -0.260 A  
HETATM   10  O   UNL     1      -7.710   3.073  71.096  1.00  0.00    -0.043 OA 
HETATM   11  H   UNL     1     -11.701   8.790  71.096  1.00  0.00     0.000 HD 
HETATM   12  C   UNL     1     -10.878   7.111  70.267  1.00  0.00    -0.249 A  
HETATM   13  O   UNL     1     -11.427   8.365  70.292  1.00  0.00    -0.198 OA 
HETATM   14  C   UNL     1     -10.728   6.476  71.504  1.00  0.00    -0.275 A  
BRANCH   9  15
HETATM   15  C   UNL     1     -10.666   7.170  67.780  1.00  0.00    -0.212 C  
HETATM   16  O   UNL     1     -11.475   6.680  66.990  1.00  0.00    -0.233 OA 
BRANCH  15  17
HETATM   17  C   UNL     1      -9.900   8.381  67.384  1.00  0.00    -0.249 A  
HETATM   18  C   UNL     1      -8.507   8.359  67.523  1.00  0.00    -0.129 A  
HETATM   19  C   UNL     1      -7.755   9.499  67.234  1.00  0.00    -0.091 A  
HETATM   20  C   UNL     1      -8.390  10.663  66.804  1.00  0.00    -0.132 A  
HETATM   21  C   UNL     1      -9.777  10.689  66.658  1.00  0.00    -0.225 A  
HETATM   22  C   UNL     1     -10.534   9.555  66.957  1.00  0.00    -0.302 A  
ENDBRANCH  15  17
ENDBRANCH   9  15
ENDBRANCH   2   3
TORSDOF 3
ENDMDL
MODEL      166
REMARK 921   NORMALIZED FREE ENERGY PREDICTED BY IDOCK:   -3.35 KCAL/MOL
REMARK 922        TOTAL FREE ENERGY PREDICTED BY IDOCK:   -4.50 KCAL/MOL
REMARK 923 INTER-LIGAND FREE ENERGY PREDICTED BY IDOCK:   -3.90 KCAL/MOL
REMARK 924 INTRA-LIGAND FREE ENERGY PREDICTED BY IDOCK:   -0.60 KCAL/MOL
REMARK 927      BINDING AFFINITY PREDICTED BY RF-SCORE:    0.00 PKD
ROOT
HETATM    1  C   UNL     1      -9.762   3.517  73.593  1.00  0.00    -0.107 C  
HETATM    2  O   UNL     1      -9.255   4.788  73.195  1.00  0.00    -0.116 OA 
ENDROOT
BRANCH   2   3
HETATM    3  C   UNL     1      -9.499   5.166  71.905  1.00  0.00    -0.147 A  
HETATM    4  C   UNL     1      -9.888   6.489  71.673  1.00  0.00    -0.167 A  
HETATM    5  C   UNL     1     -10.206   6.943  70.383  1.00  0.00    -0.209 A  
HETATM    6  S   UNL     1      -9.938   7.645  73.014  1.00  0.00    -0.311 S  
HETATM    7  O   UNL     1     -10.421   9.029  72.326  1.00  0.00    -0.269 OA 
HETATM    8  O   UNL     1      -8.582   7.857  73.475  1.00  0.00    -0.191 OA 
HETATM    9  C   UNL     1     -10.116   6.071  69.299  1.00  0.00    -0.235 A  
HETATM   10  O   UNL     1     -11.031   7.284  73.885  1.00  0.00    -0.200 OA 
HETATM   11  H   UNL     1      -9.494   2.890  68.695  1.00  0.00     0.000 HD 
HETATM   12  C   UNL     1      -9.771   4.735  69.532  1.00  0.00    -0.201 A  
HETATM   13  O   UNL     1      -9.728   3.797  68.536  1.00  0.00    -0.132 OA 
HETATM   14  C   UNL     1      -9.458   4.287  70.819  1.00  0.00    -0.241 A  
BRANCH   9  15
HETATM   15  C   UNL     1     -10.420   6.528  67.920  1.00  0.00    -0.222 C  
HETATM   16  O   UNL     1     -11.448   6.103  67.391  1.00  0.00    -0.035 OA 
BRANCH  15  17
HETATM   17  C   UNL     1      -9.521   7.428  67.151  1.00  0.00    -0.187 A  
HETATM   18  C   UNL     1     -10.052   8.621  66.643  1.00  0.00    -0.364 A  
HETATM   19  C   UNL     1      -9.264   9.458  65.853  1.00  0.00    -0.269 A  
HETATM   20  C   UNL     1      -7.945   9.112  65.568  1.00  0.00    -0.104 A  
HETATM   21  C   UNL     1      -7.408   7.928  66.076  1.00  0.00    -0.074 A  
HETATM   22  C   UNL     1      -8.196   7.081  66.856  1.00  0.00    -0.117 A  
ENDBRANCH  15  17
ENDBRANCH   9  15
ENDBRANCH   2   3
TORSDOF 3
ENDMDL
MODEL      167
REMARK 921   NORMALIZED FREE ENERGY PREDICTED BY IDOCK:   -3.34 KCAL/MOL
REMARK 922        TOTAL FREE ENERGY PREDICTED BY IDOCK:   -4.49 KCAL/MOL
REMARK 923 INTER-LIGAND FREE ENERGY PREDICTED BY IDOCK:   -3.98 KCAL/MOL
REMARK 924 INTRA-LIGAND FREE ENERGY PREDICTED BY IDOCK:   -0.51 KCAL/MOL
REMARK 927      BINDING AFFINITY PREDICTED BY RF-SCORE:    0.00 PKD
ROOT
HETATM    1  C   UNL     1      -5.988   4.663  71.147  1.00  0.00    -0.017 C  
HETATM    2  O   UNL     1      -7.070   4.752  70.224  1.00  0.00    -0.047 OA 
ENDROOT
BRANCH   2   3
HETATM    3  C   UNL     1      -7.876   5.850  70.332  1.00  0.00    -0.105 A  
HETATM    4  C   UNL     1      -8.931   5.980  69.422  1.00  0.00    -0.126 A  
HETATM    5  C   UNL     1      -9.774   7.102  69.434  1.00  0.00    -0.160 A  
HETATM    6  S   UNL     1      -9.259   4.686  68.257  1.00  0.00    -0.136 S  
HETATM    7  O   UNL     1     -10.535   5.223  67.419  1.00  0.00    -0.199 OA 
HETATM    8  O   UNL     1      -9.700   3.520  68.992  1.00  0.00    -0.129 OA 
HETATM    9  C   UNL     1      -9.577   8.107  70.380  1.00  0.00    -0.171 A  
HETATM   10  O   UNL     1      -8.187   4.663  67.291  1.00  0.00    -0.105 OA 
HETATM   11  H   UNL     1      -7.455   8.907  72.773  1.00  0.00     0.000 HD 
HETATM   12  C   UNL     1      -8.496   8.003  71.262  1.00  0.00    -0.122 A  
HETATM   13  O   UNL     1      -8.189   8.977  72.175  1.00  0.00    -0.359 OA 
HETATM   14  C   UNL     1      -7.657   6.885  71.245  1.00  0.00    -0.087 A  
BRANCH   9  15
HETATM   15  C   UNL     1     -10.466   9.294  70.435  1.00  0.00    -0.245 C  
HETATM   16  O   UNL     1     -11.187   9.423  71.425  1.00  0.00    -0.330 OA 
BRANCH  15  17
HETATM   17  C   UNL     1     -10.549  10.292  69.336  1.00  0.00    -0.262 A  
HETATM   18  C   UNL     1     -11.728  11.036  69.202  1.00  0.00    -0.403 A  
HETATM   19  C   UNL     1     -11.877  11.929  68.141  1.00  0.00    -0.338 A  
HETATM   20  C   UNL     1     -10.852  12.085  67.210  1.00  0.00    -0.290 A  
HETATM   21  C   UNL     1      -9.673  11.351  67.341  1.00  0.00    -0.196 A  
HETATM   22  C   UNL     1      -9.523  10.447  68.394  1.00  0.00    -0.151 A  
ENDBRANCH  15  17
ENDBRANCH   9  15
ENDBRANCH   2   3
TORSDOF 3
ENDMDL
MODEL      168
REMARK 921   NORMALIZED FREE ENERGY PREDICTED BY IDOCK:   -3.32 KCAL/MOL
REMARK 922        TOTAL FREE ENERGY PREDICTED BY IDOCK:   -4.46 KCAL/MOL
REMARK 923 INTER-LIGAND FREE ENERGY PREDICTED BY IDOCK:   -3.81 KCAL/MOL
REMARK 924 INTRA-LIGAND FREE ENERGY PREDICTED BY IDOCK:   -0.66 KCAL/MOL
REMARK 927      BINDING AFFINITY PREDICTED BY RF-SCORE:    0.00 PKD
ROOT
HETATM    1  C   UNL     1      -8.430  15.700  68.113  1.00  0.00    -0.147 C  
HETATM    2  O   UNL     1      -9.083  14.552  68.647  1.00  0.00    -0.189 OA 
ENDROOT
BRANCH   2   3
HETATM    3  C   UNL     1      -8.717  13.343  68.125  1.00  0.00    -0.179 A  
HETATM    4  C   UNL     1      -9.719  12.390  67.917  1.00  0.00    -0.204 A  
HETATM    5  C   UNL     1      -9.420  11.107  67.432  1.00  0.00    -0.176 A  
HETATM    6  S   UNL     1     -11.414  12.808  68.218  1.00  0.00    -0.338 S  
HETATM    7  O   UNL     1     -12.225  11.454  67.855  1.00  0.00    -0.592 OA 
HETATM    8  O   UNL     1     -11.810  13.806  67.247  1.00  0.00    -0.360 OA 
HETATM    9  C   UNL     1      -8.101  10.771  67.128  1.00  0.00    -0.124 A  
HETATM   10  O   UNL     1     -11.600  12.959  69.641  1.00  0.00    -0.283 OA 
HETATM   11  H   UNL     1      -5.078  12.068  67.344  1.00  0.00     0.000 HD 
HETATM   12  C   UNL     1      -7.090  11.706  67.377  1.00  0.00    -0.124 A  
HETATM   13  O   UNL     1      -5.764  11.434  67.175  1.00  0.00    -0.066 OA 
HETATM   14  C   UNL     1      -7.393  12.981  67.864  1.00  0.00    -0.128 A  
BRANCH   9  15
HETATM   15  C   UNL     1      -7.756   9.432  66.590  1.00  0.00    -0.097 C  
HETATM   16  O   UNL     1      -7.423   8.560  67.395  1.00  0.00    -0.091 OA 
BRANCH  15  17
HETATM   17  C   UNL     1      -7.753   9.123  65.136  1.00  0.00    -0.104 A  
HETATM   18  C   UNL     1      -7.959   7.796  64.738  1.00  0.00    -0.142 A  
HETATM   19  C   UNL     1      -7.889   7.449  63.388  1.00  0.00    -0.113 A  
HETATM   20  C   UNL     1      -7.618   8.424  62.430  1.00  0.00    -0.115 A  
HETATM   21  C   UNL     1      -7.418   9.749  62.819  1.00  0.00    -0.122 A  
HETATM   22  C   UNL     1      -7.474  10.099  64.169  1.00  0.00    -0.114 A  
ENDBRANCH  15  17
ENDBRANCH   9  15
ENDBRANCH   2   3
TORSDOF 3
ENDMDL
MODEL      169
REMARK 921   NORMALIZED FREE ENERGY PREDICTED BY IDOCK:   -3.31 KCAL/MOL
REMARK 922        TOTAL FREE ENERGY PREDICTED BY IDOCK:   -4.45 KCAL/MOL
REMARK 923 INTER-LIGAND FREE ENERGY PREDICTED BY IDOCK:   -3.93 KCAL/MOL
REMARK 924 INTRA-LIGAND FREE ENERGY PREDICTED BY IDOCK:   -0.52 KCAL/MOL
REMARK 927      BINDING AFFINITY PREDICTED BY RF-SCORE:    0.00 PKD
ROOT
HETATM    1  C   UNL     1     -11.018   5.085  73.021  1.00  0.00    -0.295 C  
HETATM    2  O   UNL     1      -9.876   5.159  72.171  1.00  0.00    -0.164 OA 
ENDROOT
BRANCH   2   3
HETATM    3  C   UNL     1      -9.684   6.339  71.508  1.00  0.00    -0.162 A  
HETATM    4  C   UNL     1      -8.728   6.368  70.487  1.00  0.00    -0.144 A  
HETATM    5  C   UNL     1      -8.435   7.552  69.792  1.00  0.00    -0.135 A  
HETATM    6  S   UNL     1      -7.897   4.878  70.011  1.00  0.00    -0.066 S  
HETATM    7  O   UNL     1      -6.903   5.343  68.820  1.00  0.00    -0.052 OA 
HETATM    8  O   UNL     1      -8.873   3.988  69.418  1.00  0.00    -0.080 OA 
HETATM    9  C   UNL     1      -9.118   8.726  70.104  1.00  0.00    -0.176 A  
HETATM   10  O   UNL     1      -7.008   4.491  71.081  1.00  0.00    -0.034 OA 
HETATM   11  H   UNL     1     -11.332   9.826  72.286  1.00  0.00     0.000 HD 
HETATM   12  C   UNL     1     -10.042   8.712  71.155  1.00  0.00    -0.226 A  
HETATM   13  O   UNL     1     -10.705   9.835  71.573  1.00  0.00    -0.218 OA 
HETATM   14  C   UNL     1     -10.329   7.531  71.846  1.00  0.00    -0.226 A  
BRANCH   9  15
HETATM   15  C   UNL     1      -8.849   9.988  69.371  1.00  0.00    -0.190 C  
HETATM   16  O   UNL     1      -7.828  10.613  69.664  1.00  0.00    -0.133 OA 
BRANCH  15  17
HETATM   17  C   UNL     1      -9.773  10.539  68.346  1.00  0.00    -0.166 A  
HETATM   18  C   UNL     1      -9.552  10.204  67.004  1.00  0.00    -0.209 A  
HETATM   19  C   UNL     1     -10.350  10.758  66.002  1.00  0.00    -0.300 A  
HETATM   20  C   UNL     1     -11.372  11.646  66.335  1.00  0.00    -0.312 A  
HETATM   21  C   UNL     1     -11.601  11.978  67.670  1.00  0.00    -0.392 A  
HETATM   22  C   UNL     1     -10.798  11.436  68.674  1.00  0.00    -0.249 A  
ENDBRANCH  15  17
ENDBRANCH   9  15
ENDBRANCH   2   3
TORSDOF 3
ENDMDL
MODEL      170
REMARK 921   NORMALIZED FREE ENERGY PREDICTED BY IDOCK:   -3.24 KCAL/MOL
REMARK 922        TOTAL FREE ENERGY PREDICTED BY IDOCK:   -4.37 KCAL/MOL
REMARK 923 INTER-LIGAND FREE ENERGY PREDICTED BY IDOCK:   -3.74 KCAL/MOL
REMARK 924 INTRA-LIGAND FREE ENERGY PREDICTED BY IDOCK:   -0.63 KCAL/MOL
REMARK 927      BINDING AFFINITY PREDICTED BY RF-SCORE:    0.00 PKD
ROOT
HETATM    1  C   UNL     1      -7.711  10.315  69.557  1.00  0.00    -0.165 C  
HETATM    2  O   UNL     1      -7.876   9.316  68.555  1.00  0.00    -0.089 OA 
ENDROOT
BRANCH   2   3
HETATM    3  C   UNL     1      -8.036   8.031  68.993  1.00  0.00    -0.114 A  
HETATM    4  C   UNL     1      -9.094   7.285  68.462  1.00  0.00    -0.136 A  
HETATM    5  C   UNL     1      -9.356   5.976  68.897  1.00  0.00    -0.131 A  
HETATM    6  S   UNL     1     -10.102   7.969  67.177  1.00  0.00    -0.292 S  
HETATM    7  O   UNL     1     -11.176   6.803  66.854  1.00  0.00    -0.375 OA 
HETATM    8  O   UNL     1      -9.280   8.121  65.994  1.00  0.00    -0.189 OA 
HETATM    9  C   UNL     1      -8.541   5.389  69.863  1.00  0.00    -0.108 A  
HETATM   10  O   UNL     1     -10.896   9.034  67.741  1.00  0.00    -0.194 OA 
HETATM   11  H   UNL     1      -6.008   6.189  71.818  1.00  0.00     0.000 HD 
HETATM   12  C   UNL     1      -7.510   6.148  70.430  1.00  0.00    -0.090 A  
HETATM   13  O   UNL     1      -6.708   5.674  71.433  1.00  0.00    -0.056 OA 
HETATM   14  C   UNL     1      -7.254   7.452  69.996  1.00  0.00    -0.073 A  
BRANCH   9  15
HETATM   15  C   UNL     1      -8.777   3.999  70.325  1.00  0.00    -0.074 C  
HETATM   16  O   UNL     1      -8.219   3.090  69.708  1.00  0.00    -0.044 OA 
BRANCH  15  17
HETATM   17  C   UNL     1      -9.681   3.666  71.456  1.00  0.00    -0.238 A  
HETATM   18  C   UNL     1     -10.232   4.719  72.198  1.00  0.00    -0.258 A  
HETATM   19  C   UNL     1     -11.025   4.452  73.314  1.00  0.00    -0.358 A  
HETATM   20  C   UNL     1     -11.275   3.134  73.693  1.00  0.00    -0.288 A  
HETATM   21  C   UNL     1     -10.734   2.081  72.956  1.00  0.00    -0.245 A  
HETATM   22  C   UNL     1      -9.930   2.343  71.846  1.00  0.00    -0.220 A  
ENDBRANCH  15  17
ENDBRANCH   9  15
ENDBRANCH   2   3
TORSDOF 3
ENDMDL
MODEL      171
REMARK 921   NORMALIZED FREE ENERGY PREDICTED BY IDOCK:   -3.19 KCAL/MOL
REMARK 922        TOTAL FREE ENERGY PREDICTED BY IDOCK:   -4.31 KCAL/MOL
REMARK 923 INTER-LIGAND FREE ENERGY PREDICTED BY IDOCK:   -3.64 KCAL/MOL
REMARK 924 INTRA-LIGAND FREE ENERGY PREDICTED BY IDOCK:   -0.67 KCAL/MOL
REMARK 927      BINDING AFFINITY PREDICTED BY RF-SCORE:    0.00 PKD
ROOT
HETATM    1  C   UNL     1      -6.195   9.248  66.686  1.00  0.00    -0.065 C  
HETATM    2  O   UNL     1      -6.287   7.889  67.102  1.00  0.00    -0.052 OA 
ENDROOT
BRANCH   2   3
HETATM    3  C   UNL     1      -7.324   7.575  67.936  1.00  0.00    -0.099 A  
HETATM    4  C   UNL     1      -8.319   6.720  67.449  1.00  0.00    -0.122 A  
HETATM    5  C   UNL     1      -9.442   6.389  68.224  1.00  0.00    -0.121 A  
HETATM    6  S   UNL     1      -8.151   5.991  65.843  1.00  0.00    -0.125 S  
HETATM    7  O   UNL     1      -9.486   5.089  65.678  1.00  0.00    -0.160 OA 
HETATM    8  O   UNL     1      -7.030   5.077  65.880  1.00  0.00    -0.063 OA 
HETATM    9  C   UNL     1      -9.570   6.900  69.514  1.00  0.00    -0.148 A  
HETATM   10  O   UNL     1      -8.304   7.030  64.854  1.00  0.00    -0.107 OA 
HETATM   11  H   UNL     1      -8.025   8.997  71.536  1.00  0.00     0.000 HD 
HETATM   12  C   UNL     1      -8.599   7.790  69.988  1.00  0.00    -0.140 A  
HETATM   13  O   UNL     1      -8.683   8.392  71.215  1.00  0.00    -0.134 OA 
HETATM   14  C   UNL     1      -7.484   8.120  69.212  1.00  0.00    -0.089 A  
BRANCH   9  15
HETATM   15  C   UNL     1     -10.732   6.548  70.367  1.00  0.00    -0.255 C  
HETATM   16  O   UNL     1     -11.763   7.207  70.228  1.00  0.00    -0.262 OA 
BRANCH  15  17
HETATM   17  C   UNL     1     -10.682   5.477  71.396  1.00  0.00    -0.290 A  
HETATM   18  C   UNL     1     -11.345   5.692  72.611  1.00  0.00    -0.356 A  
HETATM   19  C   UNL     1     -11.262   4.745  73.633  1.00  0.00    -0.332 A  
HETATM   20  C   UNL     1     -10.520   3.580  73.447  1.00  0.00    -0.264 A  
HETATM   21  C   UNL     1      -9.862   3.357  72.237  1.00  0.00    -0.231 A  
HETATM   22  C   UNL     1      -9.932   4.307  71.216  1.00  0.00    -0.230 A  
ENDBRANCH  15  17
ENDBRANCH   9  15
ENDBRANCH   2   3
TORSDOF 3
ENDMDL
MODEL      172
REMARK 921   NORMALIZED FREE ENERGY PREDICTED BY IDOCK:   -3.13 KCAL/MOL
REMARK 922        TOTAL FREE ENERGY PREDICTED BY IDOCK:   -4.24 KCAL/MOL
REMARK 923 INTER-LIGAND FREE ENERGY PREDICTED BY IDOCK:   -3.69 KCAL/MOL
REMARK 924 INTRA-LIGAND FREE ENERGY PREDICTED BY IDOCK:   -0.55 KCAL/MOL
REMARK 927      BINDING AFFINITY PREDICTED BY RF-SCORE:    0.00 PKD
ROOT
HETATM    1  C   UNL     1      -7.771   2.167  65.513  1.00  0.00    -0.072 C  
HETATM    2  O   UNL     1      -7.794   3.487  66.048  1.00  0.00    -0.087 OA 
ENDROOT
BRANCH   2   3
HETATM    3  C   UNL     1      -8.234   3.616  67.336  1.00  0.00    -0.090 A  
HETATM    4  C   UNL     1      -9.230   4.562  67.596  1.00  0.00    -0.137 A  
HETATM    5  C   UNL     1      -9.700   4.791  68.899  1.00  0.00    -0.244 A  
HETATM    6  S   UNL     1      -9.965   5.464  66.260  1.00  0.00    -0.153 S  
HETATM    7  O   UNL     1     -11.050   6.425  66.981  1.00  0.00    -0.384 OA 
HETATM    8  O   UNL     1     -10.710   4.530  65.443  1.00  0.00    -0.270 OA 
HETATM    9  C   UNL     1      -9.184   4.052  69.962  1.00  0.00    -0.215 A  
HETATM   10  O   UNL     1      -8.979   6.378  65.733  1.00  0.00    -0.138 OA 
HETATM   11  H   UNL     1      -6.845   1.800  70.539  1.00  0.00     0.000 HD 
HETATM   12  C   UNL     1      -8.155   3.136  69.713  1.00  0.00    -0.044 A  
HETATM   13  O   UNL     1      -7.544   2.421  70.708  1.00  0.00    -0.036 OA 
HETATM   14  C   UNL     1      -7.689   2.914  68.414  1.00  0.00    -0.055 A  
BRANCH   9  15
HETATM   15  C   UNL     1      -9.678   4.252  71.347  1.00  0.00    -0.181 C  
HETATM   16  O   UNL     1     -10.187   3.286  71.918  1.00  0.00    -0.127 OA 
BRANCH  15  17
HETATM   17  C   UNL     1      -9.621   5.565  72.043  1.00  0.00    -0.177 A  
HETATM   18  C   UNL     1      -8.446   6.320  71.940  1.00  0.00    -0.124 A  
HETATM   19  C   UNL     1      -8.322   7.522  72.638  1.00  0.00    -0.146 A  
HETATM   20  C   UNL     1      -9.369   7.977  73.437  1.00  0.00    -0.323 A  
HETATM   21  C   UNL     1     -10.545   7.232  73.539  1.00  0.00    -0.408 A  
HETATM   22  C   UNL     1     -10.669   6.023  72.853  1.00  0.00    -0.277 A  
ENDBRANCH  15  17
ENDBRANCH   9  15
ENDBRANCH   2   3
TORSDOF 3
ENDMDL
MODEL      173
REMARK 921   NORMALIZED FREE ENERGY PREDICTED BY IDOCK:   -3.06 KCAL/MOL
REMARK 922        TOTAL FREE ENERGY PREDICTED BY IDOCK:   -4.16 KCAL/MOL
REMARK 923 INTER-LIGAND FREE ENERGY PREDICTED BY IDOCK:   -3.51 KCAL/MOL
REMARK 924 INTRA-LIGAND FREE ENERGY PREDICTED BY IDOCK:   -0.65 KCAL/MOL
REMARK 927      BINDING AFFINITY PREDICTED BY RF-SCORE:    0.00 PKD
ROOT
HETATM    1  C   UNL     1      -8.046  15.517  69.425  1.00  0.00    -0.241 C  
HETATM    2  O   UNL     1      -9.046  14.703  68.818  1.00  0.00    -0.190 OA 
ENDROOT
BRANCH   2   3
HETATM    3  C   UNL     1      -8.747  13.378  68.668  1.00  0.00     0.015 A  
HETATM    4  C   UNL     1      -9.785  12.509  68.316  1.00  0.00    -0.220 A  
HETATM    5  C   UNL     1      -9.571  11.127  68.191  1.00  0.00    -0.181 A  
HETATM    6  S   UNL     1     -11.397  13.152  67.964  1.00  0.00    -0.314 S  
HETATM    7  O   UNL     1     -12.275  11.842  67.602  1.00  0.00    -0.534 OA 
HETATM    8  O   UNL     1     -11.311  13.946  66.757  1.00  0.00    -0.313 OA 
HETATM    9  C   UNL     1      -8.298  10.600  68.402  1.00  0.00    -0.127 A  
HETATM   10  O   UNL     1     -11.973  13.633  69.198  1.00  0.00    -0.329 OA 
HETATM   11  H   UNL     1      -5.306  11.600  69.363  1.00  0.00     0.000 HD 
HETATM   12  C   UNL     1      -7.267  11.460  68.798  1.00  0.00    -0.107 A  
HETATM   13  O   UNL     1      -6.006  11.017  69.094  1.00  0.00    -0.041 OA 
HETATM   14  C   UNL     1      -7.485  12.835  68.924  1.00  0.00     0.022 A  
BRANCH   9  15
HETATM   15  C   UNL     1      -8.034   9.147  68.253  1.00  0.00    -0.103 C  
HETATM   16  O   UNL     1      -7.654   8.745  67.152  1.00  0.00    -0.087 OA 
BRANCH  15  17
HETATM   17  C   UNL     1      -8.251   8.171  69.352  1.00  0.00    -0.121 A  
HETATM   18  C   UNL     1      -8.771   6.911  69.028  1.00  0.00    -0.131 A  
HETATM   19  C   UNL     1      -9.060   5.991  70.037  1.00  0.00    -0.152 A  
HETATM   20  C   UNL     1      -8.831   6.323  71.371  1.00  0.00    -0.139 A  
HETATM   21  C   UNL     1      -8.309   7.574  71.700  1.00  0.00    -0.114 A  
HETATM   22  C   UNL     1      -8.029   8.502  70.695  1.00  0.00    -0.104 A  
ENDBRANCH  15  17
ENDBRANCH   9  15
ENDBRANCH   2   3
TORSDOF 3
ENDMDL
MODEL      174
REMARK 921   NORMALIZED FREE ENERGY PREDICTED BY IDOCK:   -3.06 KCAL/MOL
REMARK 922        TOTAL FREE ENERGY PREDICTED BY IDOCK:   -4.16 KCAL/MOL
REMARK 923 INTER-LIGAND FREE ENERGY PREDICTED BY IDOCK:   -3.52 KCAL/MOL
REMARK 924 INTRA-LIGAND FREE ENERGY PREDICTED BY IDOCK:   -0.64 KCAL/MOL
REMARK 927      BINDING AFFINITY PREDICTED BY RF-SCORE:    0.00 PKD
ROOT
HETATM    1  C   UNL     1     -11.296   5.136  73.189  1.00  0.00    -0.313 C  
HETATM    2  O   UNL     1     -10.884   6.440  72.786  1.00  0.00    -0.228 OA 
ENDROOT
BRANCH   2   3
HETATM    3  C   UNL     1     -10.351   6.551  71.532  1.00  0.00    -0.211 A  
HETATM    4  C   UNL     1      -9.028   6.990  71.421  1.00  0.00    -0.139 A  
HETATM    5  C   UNL     1      -8.423   7.179  70.168  1.00  0.00    -0.139 A  
HETATM    6  S   UNL     1      -8.062   7.269  72.879  1.00  0.00    -0.109 S  
HETATM    7  O   UNL     1      -6.623   7.750  72.314  1.00  0.00    -0.053 OA 
HETATM    8  O   UNL     1      -7.851   5.993  73.529  1.00  0.00    -0.100 OA 
HETATM    9  C   UNL     1      -9.140   6.908  69.003  1.00  0.00    -0.138 A  
HETATM   10  O   UNL     1      -8.583   8.434  73.553  1.00  0.00    -0.304 OA 
HETATM   11  H   UNL     1     -12.183   6.026  68.090  1.00  0.00     0.000 HD 
HETATM   12  C   UNL     1     -10.478   6.512  69.110  1.00  0.00    -0.221 A  
HETATM   13  O   UNL     1     -11.275   6.294  68.018  1.00  0.00    -0.323 OA 
HETATM   14  C   UNL     1     -11.077   6.328  70.360  1.00  0.00    -0.416 A  
BRANCH   9  15
HETATM   15  C   UNL     1      -8.521   7.074  67.665  1.00  0.00    -0.123 C  
HETATM   16  O   UNL     1      -8.322   8.222  67.265  1.00  0.00    -0.122 OA 
BRANCH  15  17
HETATM   17  C   UNL     1      -8.178   5.925  66.787  1.00  0.00    -0.105 A  
HETATM   18  C   UNL     1      -7.473   4.850  67.344  1.00  0.00    -0.082 A  
HETATM   19  C   UNL     1      -7.065   3.786  66.539  1.00  0.00    -0.063 A  
HETATM   20  C   UNL     1      -7.361   3.787  65.177  1.00  0.00    -0.068 A  
HETATM   21  C   UNL     1      -8.068   4.851  64.617  1.00  0.00    -0.111 A  
HETATM   22  C   UNL     1      -8.467   5.924  65.416  1.00  0.00    -0.153 A  
ENDBRANCH  15  17
ENDBRANCH   9  15
ENDBRANCH   2   3
TORSDOF 3
ENDMDL
MODEL      175
REMARK 921   NORMALIZED FREE ENERGY PREDICTED BY IDOCK:   -3.05 KCAL/MOL
REMARK 922        TOTAL FREE ENERGY PREDICTED BY IDOCK:   -4.14 KCAL/MOL
REMARK 923 INTER-LIGAND FREE ENERGY PREDICTED BY IDOCK:   -4.28 KCAL/MOL
REMARK 924 INTRA-LIGAND FREE ENERGY PREDICTED BY IDOCK:    0.13 KCAL/MOL
REMARK 927      BINDING AFFINITY PREDICTED BY RF-SCORE:    0.00 PKD
ROOT
HETATM    1  C   UNL     1      -6.204   9.464  67.002  1.00  0.00    -0.065 C  
HETATM    2  O   UNL     1      -6.501  10.249  68.153  1.00  0.00    -0.056 OA 
ENDROOT
BRANCH   2   3
HETATM    3  C   UNL     1      -7.362   9.700  69.061  1.00  0.00    -0.073 A  
HETATM    4  C   UNL     1      -8.576  10.357  69.291  1.00  0.00    -0.150 A  
HETATM    5  C   UNL     1      -9.494   9.886  70.244  1.00  0.00    -0.162 A  
HETATM    6  S   UNL     1      -9.006  11.783  68.333  1.00  0.00    -0.138 S  
HETATM    7  O   UNL     1     -10.458  12.218  68.902  1.00  0.00    -0.195 OA 
HETATM    8  O   UNL     1      -9.202  11.362  66.962  1.00  0.00    -0.164 OA 
HETATM    9  C   UNL     1      -9.209   8.730  70.969  1.00  0.00    -0.278 A  
HETATM   10  O   UNL     1      -8.137  12.869  68.720  1.00  0.00    -0.053 OA 
HETATM   11  H   UNL     1      -6.750   6.568  71.362  1.00  0.00     0.000 HD 
HETATM   12  C   UNL     1      -7.976   8.096  70.774  1.00  0.00    -0.097 A  
HETATM   13  O   UNL     1      -7.587   6.998  71.494  1.00  0.00    -0.087 OA 
HETATM   14  C   UNL     1      -7.065   8.570  69.827  1.00  0.00    -0.051 A  
BRANCH   9  15
HETATM   15  C   UNL     1     -10.169   8.193  71.964  1.00  0.00    -0.249 C  
HETATM   16  O   UNL     1      -9.714   7.533  72.900  1.00  0.00    -0.170 OA 
BRANCH  15  17
HETATM   17  C   UNL     1     -11.639   8.381  71.851  1.00  0.00    -0.395 A  
HETATM   18  C   UNL     1     -12.427   7.272  71.518  1.00  0.00    -0.408 A  
HETATM   19  C   UNL     1     -13.802   7.419  71.328  1.00  0.00    -0.357 A  
HETATM   20  C   UNL     1     -14.396   8.672  71.470  1.00  0.00    -0.402 A  
HETATM   21  C   UNL     1     -13.617   9.780  71.808  1.00  0.00    -0.397 A  
HETATM   22  C   UNL     1     -12.240   9.640  71.987  1.00  0.00    -0.330 A  
ENDBRANCH  15  17
ENDBRANCH   9  15
ENDBRANCH   2   3
TORSDOF 3
ENDMDL
MODEL      176
REMARK 921   NORMALIZED FREE ENERGY PREDICTED BY IDOCK:   -2.94 KCAL/MOL
REMARK 922        TOTAL FREE ENERGY PREDICTED BY IDOCK:   -4.02 KCAL/MOL
REMARK 923 INTER-LIGAND FREE ENERGY PREDICTED BY IDOCK:   -3.52 KCAL/MOL
REMARK 924 INTRA-LIGAND FREE ENERGY PREDICTED BY IDOCK:   -0.50 KCAL/MOL
REMARK 927      BINDING AFFINITY PREDICTED BY RF-SCORE:    0.00 PKD
ROOT
HETATM    1  C   UNL     1      -9.172   9.389  65.544  1.00  0.00    -0.232 C  
HETATM    2  O   UNL     1     -10.475   9.268  66.109  1.00  0.00    -0.150 OA 
ENDROOT
BRANCH   2   3
HETATM    3  C   UNL     1     -10.612   8.388  67.146  1.00  0.00    -0.256 A  
HETATM    4  C   UNL     1     -10.843   8.912  68.422  1.00  0.00     0.010 A  
HETATM    5  C   UNL     1     -10.945   8.079  69.548  1.00  0.00    -0.062 A  
HETATM    6  S   UNL     1     -11.067  10.656  68.636  1.00  0.00    -0.280 S  
HETATM    7  O   UNL     1     -11.309  10.831  70.227  1.00  0.00    -0.298 OA 
HETATM    8  O   UNL     1     -12.300  11.035  67.980  1.00  0.00    -0.310 OA 
HETATM    9  C   UNL     1     -10.835   6.697  69.400  1.00  0.00    -0.340 A  
HETATM   10  O   UNL     1      -9.801  11.309  68.398  1.00  0.00    -0.185 OA 
HETATM   11  H   UNL     1     -10.177   4.479  67.051  1.00  0.00     0.000 HD 
HETATM   12  C   UNL     1     -10.558   6.172  68.132  1.00  0.00    -0.264 A  
HETATM   13  O   UNL     1     -10.365   4.835  67.911  1.00  0.00    -0.054 OA 
HETATM   14  C   UNL     1     -10.455   7.006  67.015  1.00  0.00    -0.386 A  
BRANCH   9  15
HETATM   15  C   UNL     1     -10.963   5.788  70.566  1.00  0.00    -0.249 C  
HETATM   16  O   UNL     1     -12.047   5.759  71.151  1.00  0.00     0.370 OA 
BRANCH  15  17
HETATM   17  C   UNL     1      -9.838   4.959  71.071  1.00  0.00    -0.266 A  
HETATM   18  C   UNL     1     -10.140   3.768  71.744  1.00  0.00    -0.174 A  
HETATM   19  C   UNL     1      -9.117   2.998  72.300  1.00  0.00    -0.142 A  
HETATM   20  C   UNL     1      -7.791   3.410  72.184  1.00  0.00    -0.059 A  
HETATM   21  C   UNL     1      -7.483   4.592  71.510  1.00  0.00    -0.069 A  
HETATM   22  C   UNL     1      -8.503   5.372  70.964  1.00  0.00    -0.124 A  
ENDBRANCH  15  17
ENDBRANCH   9  15
ENDBRANCH   2   3
TORSDOF 3
ENDMDL
MODEL      177
REMARK 921   NORMALIZED FREE ENERGY PREDICTED BY IDOCK:   -2.94 KCAL/MOL
REMARK 922        TOTAL FREE ENERGY PREDICTED BY IDOCK:   -4.02 KCAL/MOL
REMARK 923 INTER-LIGAND FREE ENERGY PREDICTED BY IDOCK:   -3.34 KCAL/MOL
REMARK 924 INTRA-LIGAND FREE ENERGY PREDICTED BY IDOCK:   -0.67 KCAL/MOL
REMARK 927      BINDING AFFINITY PREDICTED BY RF-SCORE:    0.00 PKD
ROOT
HETATM    1  C   UNL     1      -9.672   5.768  70.017  1.00  0.00    -0.169 C  
HETATM    2  O   UNL     1      -8.840   6.909  70.209  1.00  0.00    -0.146 OA 
ENDROOT
BRANCH   2   3
HETATM    3  C   UNL     1      -9.321   8.101  69.745  1.00  0.00    -0.159 A  
HETATM    4  C   UNL     1      -8.603   8.747  68.734  1.00  0.00    -0.137 A  
HETATM    5  C   UNL     1      -9.003   9.998  68.238  1.00  0.00    -0.119 A  
HETATM    6  S   UNL     1      -7.187   7.963  68.014  1.00  0.00    -0.092 S  
HETATM    7  O   UNL     1      -6.669   9.023  66.906  1.00  0.00    -0.070 OA 
HETATM    8  O   UNL     1      -7.639   6.792  67.294  1.00  0.00    -0.099 OA 
HETATM    9  C   UNL     1     -10.148  10.611  68.743  1.00  0.00    -0.203 A  
HETATM   10  O   UNL     1      -6.132   7.938  68.999  1.00  0.00    -0.037 OA 
HETATM   11  H   UNL     1     -12.409  10.132  71.095  1.00  0.00     0.000 HD 
HETATM   12  C   UNL     1     -10.844   9.989  69.786  1.00  0.00    -0.273 A  
HETATM   13  O   UNL     1     -11.937  10.554  70.387  1.00  0.00    -0.281 OA 
HETATM   14  C   UNL     1     -10.441   8.744  70.278  1.00  0.00    -0.231 A  
BRANCH   9  15
HETATM   15  C   UNL     1     -10.611  11.921  68.222  1.00  0.00    -0.213 C  
HETATM   16  O   UNL     1     -11.497  11.916  67.366  1.00  0.00    -0.307 OA 
BRANCH  15  17
HETATM   17  C   UNL     1     -10.023  13.215  68.656  1.00  0.00    -0.117 A  
HETATM   18  C   UNL     1     -10.704  13.962  69.626  1.00  0.00     0.123 A  
HETATM   19  C   UNL     1     -10.227  15.217  70.007  1.00  0.00    -0.216 A  
HETATM   20  C   UNL     1      -9.069  15.730  69.426  1.00  0.00    -0.254 A  
HETATM   21  C   UNL     1      -8.383  14.989  68.464  1.00  0.00    -0.161 A  
HETATM   22  C   UNL     1      -8.862  13.739  68.070  1.00  0.00    -0.182 A  
ENDBRANCH  15  17
ENDBRANCH   9  15
ENDBRANCH   2   3
TORSDOF 3
ENDMDL
MODEL      178
REMARK 921   NORMALIZED FREE ENERGY PREDICTED BY IDOCK:   -2.93 KCAL/MOL
REMARK 922        TOTAL FREE ENERGY PREDICTED BY IDOCK:   -4.00 KCAL/MOL
REMARK 923 INTER-LIGAND FREE ENERGY PREDICTED BY IDOCK:   -3.88 KCAL/MOL
REMARK 924 INTRA-LIGAND FREE ENERGY PREDICTED BY IDOCK:   -0.12 KCAL/MOL
REMARK 927      BINDING AFFINITY PREDICTED BY RF-SCORE:    0.00 PKD
ROOT
HETATM    1  C   UNL     1     -11.694  11.473  67.640  1.00  0.00    -0.208 C  
HETATM    2  O   UNL     1     -10.474  11.381  68.370  1.00  0.00    -0.185 OA 
ENDROOT
BRANCH   2   3
HETATM    3  C   UNL     1      -9.688  12.498  68.389  1.00  0.00    -0.189 A  
HETATM    4  C   UNL     1      -8.361  12.372  67.966  1.00  0.00    -0.170 A  
HETATM    5  C   UNL     1      -7.474  13.460  68.002  1.00  0.00    -0.139 A  
HETATM    6  S   UNL     1      -7.782  10.828  67.318  1.00  0.00    -0.113 S  
HETATM    7  O   UNL     1      -6.231  11.111  66.949  1.00  0.00    -0.086 OA 
HETATM    8  O   UNL     1      -8.470  10.578  66.069  1.00  0.00    -0.144 OA 
HETATM    9  C   UNL     1      -7.920  14.703  68.450  1.00  0.00    -0.137 A  
HETATM   10  O   UNL     1      -7.718   9.876  68.401  1.00  0.00    -0.083 OA 
HETATM   11  H   UNL     1     -10.623  16.068  69.755  1.00  0.00     0.000 HD 
HETATM   12  C   UNL     1      -9.234  14.822  68.916  1.00  0.00    -0.177 A  
HETATM   13  O   UNL     1      -9.731  15.987  69.438  1.00  0.00    -0.247 OA 
HETATM   14  C   UNL     1     -10.112  13.735  68.881  1.00  0.00    -0.075 A  
BRANCH   9  15
HETATM   15  C   UNL     1      -7.014  15.878  68.477  1.00  0.00    -0.122 C  
HETATM   16  O   UNL     1      -5.996  15.800  69.165  1.00  0.00    -0.106 OA 
BRANCH  15  17
HETATM   17  C   UNL     1      -7.310  17.141  67.750  1.00  0.00    -0.179 A  
HETATM   18  C   UNL     1      -6.776  17.308  66.466  1.00  0.00    -0.286 A  
HETATM   19  C   UNL     1      -6.965  18.508  65.778  1.00  0.00    -0.287 A  
HETATM   20  C   UNL     1      -7.689  19.543  66.367  1.00  0.00    -0.307 A  
HETATM   21  C   UNL     1      -8.228  19.380  67.644  1.00  0.00    -0.329 A  
HETATM   22  C   UNL     1      -8.031  18.187  68.340  1.00  0.00    -0.312 A  
ENDBRANCH  15  17
ENDBRANCH   9  15
ENDBRANCH   2   3
TORSDOF 3
ENDMDL
MODEL      179
REMARK 921   NORMALIZED FREE ENERGY PREDICTED BY IDOCK:   -2.74 KCAL/MOL
REMARK 922        TOTAL FREE ENERGY PREDICTED BY IDOCK:   -3.78 KCAL/MOL
REMARK 923 INTER-LIGAND FREE ENERGY PREDICTED BY IDOCK:   -3.23 KCAL/MOL
REMARK 924 INTRA-LIGAND FREE ENERGY PREDICTED BY IDOCK:   -0.55 KCAL/MOL
REMARK 927      BINDING AFFINITY PREDICTED BY RF-SCORE:    0.00 PKD
ROOT
HETATM    1  C   UNL     1      -6.150   9.076  66.250  1.00  0.00    -0.063 C  
HETATM    2  O   UNL     1      -5.798   7.703  66.393  1.00  0.00    -0.035 OA 
ENDROOT
BRANCH   2   3
HETATM    3  C   UNL     1      -6.535   6.972  67.281  1.00  0.00    -0.053 A  
HETATM    4  C   UNL     1      -7.516   6.116  66.769  1.00  0.00    -0.087 A  
HETATM    5  C   UNL     1      -8.350   5.369  67.617  1.00  0.00    -0.099 A  
HETATM    6  S   UNL     1      -7.691   5.917  65.018  1.00  0.00    -0.102 S  
HETATM    7  O   UNL     1      -8.906   4.860  64.859  1.00  0.00    -0.150 OA 
HETATM    8  O   UNL     1      -6.499   5.264  64.519  1.00  0.00    -0.033 OA 
HETATM    9  C   UNL     1      -8.194   5.459  68.999  1.00  0.00    -0.094 A  
HETATM   10  O   UNL     1      -8.218   7.145  64.471  1.00  0.00    -0.100 OA 
HETATM   11  H   UNL     1      -6.430   7.154  71.210  1.00  0.00     0.000 HD 
HETATM   12  C   UNL     1      -7.245   6.348  69.516  1.00  0.00    -0.078 A  
HETATM   13  O   UNL     1      -7.074   6.551  70.859  1.00  0.00    -0.066 OA 
HETATM   14  C   UNL     1      -6.419   7.092  68.668  1.00  0.00    -0.036 A  
BRANCH   9  15
HETATM   15  C   UNL     1      -9.042   4.663  69.920  1.00  0.00    -0.106 C  
HETATM   16  O   UNL     1      -8.792   3.463  70.034  1.00  0.00    -0.073 OA 
BRANCH  15  17
HETATM   17  C   UNL     1     -10.191   5.244  70.663  1.00  0.00    -0.327 A  
HETATM   18  C   UNL     1     -10.922   6.274  70.058  1.00  0.00    -0.422 A  
HETATM   19  C   UNL     1     -11.960   6.898  70.750  1.00  0.00    -0.424 A  
HETATM   20  C   UNL     1     -12.275   6.497  72.047  1.00  0.00    -0.343 A  
HETATM   21  C   UNL     1     -11.555   5.467  72.653  1.00  0.00    -0.293 A  
HETATM   22  C   UNL     1     -10.508   4.848  71.970  1.00  0.00    -0.245 A  
ENDBRANCH  15  17
ENDBRANCH   9  15
ENDBRANCH   2   3
TORSDOF 3
ENDMDL
MODEL      180
REMARK 921   NORMALIZED FREE ENERGY PREDICTED BY IDOCK:   -2.71 KCAL/MOL
REMARK 922        TOTAL FREE ENERGY PREDICTED BY IDOCK:   -3.75 KCAL/MOL
REMARK 923 INTER-LIGAND FREE ENERGY PREDICTED BY IDOCK:   -3.09 KCAL/MOL
REMARK 924 INTRA-LIGAND FREE ENERGY PREDICTED BY IDOCK:   -0.65 KCAL/MOL
REMARK 927      BINDING AFFINITY PREDICTED BY RF-SCORE:    0.00 PKD
ROOT
HETATM    1  C   UNL     1      -8.211  12.032  68.124  1.00  0.00    -0.163 C  
HETATM    2  O   UNL     1      -8.501  11.351  66.906  1.00  0.00    -0.145 OA 
ENDROOT
BRANCH   2   3
HETATM    3  C   UNL     1      -8.824  10.027  67.009  1.00  0.00    -0.138 A  
HETATM    4  C   UNL     1      -8.432   9.176  65.970  1.00  0.00    -0.131 A  
HETATM    5  C   UNL     1      -8.768   7.813  65.976  1.00  0.00    -0.184 A  
HETATM    6  S   UNL     1      -7.446   9.801  64.638  1.00  0.00    -0.139 S  
HETATM    7  O   UNL     1      -7.215   8.516  63.681  1.00  0.00    -0.091 OA 
HETATM    8  O   UNL     1      -6.150  10.164  65.170  1.00  0.00    -0.101 OA 
HETATM    9  C   UNL     1      -9.490   7.280  67.042  1.00  0.00    -0.196 A  
HETATM   10  O   UNL     1      -8.262  10.689  63.846  1.00  0.00    -0.112 OA 
HETATM   11  H   UNL     1     -10.991   8.294  69.798  1.00  0.00     0.000 HD 
HETATM   12  C   UNL     1      -9.923   8.137  68.060  1.00  0.00    -0.184 A  
HETATM   13  O   UNL     1     -10.697   7.712  69.107  1.00  0.00    -0.214 OA 
HETATM   14  C   UNL     1      -9.589   9.495  68.049  1.00  0.00    -0.155 A  
BRANCH   9  15
HETATM   15  C   UNL     1      -9.839   5.839  67.089  1.00  0.00    -0.146 C  
HETATM   16  O   UNL     1     -10.812   5.464  66.433  1.00  0.00    -0.284 OA 
BRANCH  15  17
HETATM   17  C   UNL     1      -9.096   4.856  67.920  1.00  0.00    -0.127 A  
HETATM   18  C   UNL     1      -9.769   4.239  68.982  1.00  0.00    -0.209 A  
HETATM   19  C   UNL     1      -9.089   3.367  69.833  1.00  0.00    -0.197 A  
HETATM   20  C   UNL     1      -7.736   3.105  69.626  1.00  0.00    -0.044 A  
HETATM   21  C   UNL     1      -7.061   3.711  68.567  1.00  0.00    -0.051 A  
HETATM   22  C   UNL     1      -7.733   4.593  67.721  1.00  0.00    -0.082 A  
ENDBRANCH  15  17
ENDBRANCH   9  15
ENDBRANCH   2   3
TORSDOF 3
ENDMDL
MODEL      181
REMARK 921   NORMALIZED FREE ENERGY PREDICTED BY IDOCK:   -2.67 KCAL/MOL
REMARK 922        TOTAL FREE ENERGY PREDICTED BY IDOCK:   -3.69 KCAL/MOL
REMARK 923 INTER-LIGAND FREE ENERGY PREDICTED BY IDOCK:   -3.92 KCAL/MOL
REMARK 924 INTRA-LIGAND FREE ENERGY PREDICTED BY IDOCK:    0.23 KCAL/MOL
REMARK 927      BINDING AFFINITY PREDICTED BY RF-SCORE:    0.00 PKD
ROOT
HETATM    1  C   UNL     1      -7.800   3.317  64.881  1.00  0.00    -0.082 C  
HETATM    2  O   UNL     1      -7.437   4.339  65.806  1.00  0.00    -0.079 OA 
ENDROOT
BRANCH   2   3
HETATM    3  C   UNL     1      -8.057   4.310  67.023  1.00  0.00    -0.101 A  
HETATM    4  C   UNL     1      -8.220   5.521  67.704  1.00  0.00    -0.101 A  
HETATM    5  C   UNL     1      -8.801   5.569  68.981  1.00  0.00    -0.108 A  
HETATM    6  S   UNL     1      -7.737   7.041  66.934  1.00  0.00    -0.104 S  
HETATM    7  O   UNL     1      -8.095   8.172  68.035  1.00  0.00    -0.124 OA 
HETATM    8  O   UNL     1      -8.609   7.268  65.801  1.00  0.00    -0.145 OA 
HETATM    9  C   UNL     1      -9.247   4.395  69.586  1.00  0.00    -0.200 A  
HETATM   10  O   UNL     1      -6.296   7.071  66.852  1.00  0.00    -0.048 OA 
HETATM   11  H   UNL     1      -9.250   1.144  69.033  1.00  0.00     0.000 HD 
HETATM   12  C   UNL     1      -9.045   3.177  68.927  1.00  0.00    -0.148 A  
HETATM   13  O   UNL     1      -9.388   1.971  69.479  1.00  0.00    -0.112 OA 
HETATM   14  C   UNL     1      -8.463   3.133  67.657  1.00  0.00    -0.103 A  
BRANCH   9  15
HETATM   15  C   UNL     1      -9.889   4.417  70.924  1.00  0.00    -0.196 C  
HETATM   16  O   UNL     1      -9.883   3.372  71.577  1.00  0.00    -0.169 OA 
BRANCH  15  17
HETATM   17  C   UNL     1     -10.565   5.620  71.475  1.00  0.00    -0.306 A  
HETATM   18  C   UNL     1     -11.440   6.330  70.643  1.00  0.00    -0.397 A  
HETATM   19  C   UNL     1     -12.037   7.507  71.096  1.00  0.00    -0.335 A  
HETATM   20  C   UNL     1     -11.767   7.979  72.379  1.00  0.00    -0.444 A  
HETATM   21  C   UNL     1     -10.901   7.274  73.214  1.00  0.00    -0.404 A  
HETATM   22  C   UNL     1     -10.291   6.103  72.762  1.00  0.00    -0.220 A  
ENDBRANCH  15  17
ENDBRANCH   9  15
ENDBRANCH   2   3
TORSDOF 3
ENDMDL
MODEL      182
REMARK 921   NORMALIZED FREE ENERGY PREDICTED BY IDOCK:   -2.59 KCAL/MOL
REMARK 922        TOTAL FREE ENERGY PREDICTED BY IDOCK:   -3.60 KCAL/MOL
REMARK 923 INTER-LIGAND FREE ENERGY PREDICTED BY IDOCK:   -3.44 KCAL/MOL
REMARK 924 INTRA-LIGAND FREE ENERGY PREDICTED BY IDOCK:   -0.16 KCAL/MOL
REMARK 927      BINDING AFFINITY PREDICTED BY RF-SCORE:    0.00 PKD
ROOT
HETATM    1  C   UNL     1     -10.730   6.941  73.450  1.00  0.00    -0.324 C  
HETATM    2  O   UNL     1      -9.734   7.231  72.474  1.00  0.00    -0.148 OA 
ENDROOT
BRANCH   2   3
HETATM    3  C   UNL     1      -9.582   6.320  71.466  1.00  0.00    -0.155 A  
HETATM    4  C   UNL     1      -9.878   6.732  70.162  1.00  0.00    -0.177 A  
HETATM    5  C   UNL     1      -9.796   5.843  69.078  1.00  0.00    -0.193 A  
HETATM    6  S   UNL     1     -10.315   8.419  69.845  1.00  0.00    -0.213 S  
HETATM    7  O   UNL     1     -10.564   8.468  68.246  1.00  0.00    -0.198 OA 
HETATM    8  O   UNL     1      -9.155   9.242  70.113  1.00  0.00    -0.184 OA 
HETATM    9  C   UNL     1      -9.395   4.525  69.290  1.00  0.00    -0.215 A  
HETATM   10  O   UNL     1     -11.619   8.665  70.413  1.00  0.00    -0.209 OA 
HETATM   11  H   UNL     1      -8.641   2.514  71.791  1.00  0.00     0.000 HD 
HETATM   12  C   UNL     1      -9.142   4.098  70.598  1.00  0.00    -0.111 A  
HETATM   13  O   UNL     1      -8.812   2.804  70.903  1.00  0.00    -0.070 OA 
HETATM   14  C   UNL     1      -9.228   4.985  71.675  1.00  0.00    -0.178 A  
BRANCH   9  15
HETATM   15  C   UNL     1      -9.275   3.569  68.162  1.00  0.00    -0.176 C  
HETATM   16  O   UNL     1      -9.510   2.382  68.391  1.00  0.00    -0.201 OA 
BRANCH  15  17
HETATM   17  C   UNL     1      -8.845   3.979  66.799  1.00  0.00    -0.125 A  
HETATM   18  C   UNL     1      -9.817   4.066  65.794  1.00  0.00    -0.181 A  
HETATM   19  C   UNL     1      -9.447   4.374  64.484  1.00  0.00    -0.131 A  
HETATM   20  C   UNL     1      -8.107   4.598  64.172  1.00  0.00    -0.104 A  
HETATM   21  C   UNL     1      -7.135   4.518  65.170  1.00  0.00    -0.063 A  
HETATM   22  C   UNL     1      -7.499   4.199  66.479  1.00  0.00    -0.084 A  
ENDBRANCH  15  17
ENDBRANCH   9  15
ENDBRANCH   2   3
TORSDOF 3
ENDMDL
MODEL      183
REMARK 921   NORMALIZED FREE ENERGY PREDICTED BY IDOCK:   -2.58 KCAL/MOL
REMARK 922        TOTAL FREE ENERGY PREDICTED BY IDOCK:   -3.59 KCAL/MOL
REMARK 923 INTER-LIGAND FREE ENERGY PREDICTED BY IDOCK:   -2.98 KCAL/MOL
REMARK 924 INTRA-LIGAND FREE ENERGY PREDICTED BY IDOCK:   -0.61 KCAL/MOL
REMARK 927      BINDING AFFINITY PREDICTED BY RF-SCORE:    0.00 PKD
ROOT
HETATM    1  C   UNL     1     -10.345   7.694  73.098  1.00  0.00    -0.352 C  
HETATM    2  O   UNL     1      -9.755   8.442  72.038  1.00  0.00    -0.226 OA 
ENDROOT
BRANCH   2   3
HETATM    3  C   UNL     1      -9.512   7.767  70.875  1.00  0.00    -0.160 A  
HETATM    4  C   UNL     1      -8.178   7.563  70.503  1.00  0.00    -0.118 A  
HETATM    5  C   UNL     1      -7.845   6.923  69.299  1.00  0.00    -0.114 A  
HETATM    6  S   UNL     1      -6.870   8.069  71.585  1.00  0.00    -0.063 S  
HETATM    7  O   UNL     1      -5.521   7.653  70.794  1.00  0.00    -0.026 OA 
HETATM    8  O   UNL     1      -6.929   7.249  72.775  1.00  0.00    -0.067 OA 
HETATM    9  C   UNL     1      -8.854   6.459  68.457  1.00  0.00    -0.119 A  
HETATM   10  O   UNL     1      -6.834   9.512  71.609  1.00  0.00    -0.313 OA 
HETATM   11  H   UNL     1     -12.144   6.506  68.237  1.00  0.00     0.000 HD 
HETATM   12  C   UNL     1     -10.188   6.700  68.804  1.00  0.00    -0.171 A  
HETATM   13  O   UNL     1     -11.238   6.342  68.001  1.00  0.00    -0.323 OA 
HETATM   14  C   UNL     1     -10.516   7.341  70.002  1.00  0.00    -0.234 A  
BRANCH   9  15
HETATM   15  C   UNL     1      -8.534   5.756  67.190  1.00  0.00    -0.107 C  
HETATM   16  O   UNL     1      -8.840   4.566  67.104  1.00  0.00    -0.107 OA 
BRANCH  15  17
HETATM   17  C   UNL     1      -7.830   6.414  66.058  1.00  0.00    -0.103 A  
HETATM   18  C   UNL     1      -8.506   7.410  65.344  1.00  0.00    -0.101 A  
HETATM   19  C   UNL     1      -7.912   8.000  64.228  1.00  0.00    -0.137 A  
HETATM   20  C   UNL     1      -6.639   7.601  63.822  1.00  0.00    -0.054 A  
HETATM   21  C   UNL     1      -5.957   6.614  64.533  1.00  0.00    -0.035 A  
HETATM   22  C   UNL     1      -6.553   6.011  65.642  1.00  0.00    -0.047 A  
ENDBRANCH  15  17
ENDBRANCH   9  15
ENDBRANCH   2   3
TORSDOF 3
ENDMDL
MODEL      184
REMARK 921   NORMALIZED FREE ENERGY PREDICTED BY IDOCK:   -2.53 KCAL/MOL
REMARK 922        TOTAL FREE ENERGY PREDICTED BY IDOCK:   -3.53 KCAL/MOL
REMARK 923 INTER-LIGAND FREE ENERGY PREDICTED BY IDOCK:   -2.85 KCAL/MOL
REMARK 924 INTRA-LIGAND FREE ENERGY PREDICTED BY IDOCK:   -0.69 KCAL/MOL
REMARK 927      BINDING AFFINITY PREDICTED BY RF-SCORE:    0.00 PKD
ROOT
HETATM    1  C   UNL     1      -7.423   2.214  66.061  1.00  0.00    -0.066 C  
HETATM    2  O   UNL     1      -7.221   3.621  66.149  1.00  0.00    -0.065 OA 
ENDROOT
BRANCH   2   3
HETATM    3  C   UNL     1      -7.426   4.193  67.373  1.00  0.00    -0.069 A  
HETATM    4  C   UNL     1      -8.425   5.166  67.482  1.00  0.00    -0.105 A  
HETATM    5  C   UNL     1      -8.664   5.836  68.692  1.00  0.00    -0.108 A  
HETATM    6  S   UNL     1      -9.455   5.537  66.089  1.00  0.00    -0.127 S  
HETATM    7  O   UNL     1     -10.457   6.685  66.634  1.00  0.00    -0.214 OA 
HETATM    8  O   UNL     1     -10.266   4.372  65.807  1.00  0.00    -0.241 OA 
HETATM    9  C   UNL     1      -7.910   5.521  69.821  1.00  0.00    -0.082 A  
HETATM   10  O   UNL     1      -8.652   6.211  65.098  1.00  0.00    -0.132 OA 
HETATM   11  H   UNL     1      -5.347   3.626  70.665  1.00  0.00     0.000 HD 
HETATM   12  C   UNL     1      -6.880   4.581  69.705  1.00  0.00    -0.041 A  
HETATM   13  O   UNL     1      -6.046   4.264  70.744  1.00  0.00    -0.014 OA 
HETATM   14  C   UNL     1      -6.643   3.918  68.497  1.00  0.00    -0.045 A  
BRANCH   9  15
HETATM   15  C   UNL     1      -8.156   6.194  71.121  1.00  0.00    -0.121 C  
HETATM   16  O   UNL     1      -7.486   7.193  71.383  1.00  0.00    -0.078 OA 
BRANCH  15  17
HETATM   17  C   UNL     1      -9.134   5.687  72.119  1.00  0.00    -0.147 A  
HETATM   18  C   UNL     1      -8.646   4.991  73.233  1.00  0.00    -0.112 A  
HETATM   19  C   UNL     1      -9.533   4.434  74.155  1.00  0.00    -0.123 A  
HETATM   20  C   UNL     1     -10.908   4.571  73.972  1.00  0.00    -0.316 A  
HETATM   21  C   UNL     1     -11.400   5.268  72.868  1.00  0.00    -0.368 A  
HETATM   22  C   UNL     1     -10.517   5.816  71.936  1.00  0.00    -0.272 A  
ENDBRANCH  15  17
ENDBRANCH   9  15
ENDBRANCH   2   3
TORSDOF 3
ENDMDL
MODEL      185
REMARK 921   NORMALIZED FREE ENERGY PREDICTED BY IDOCK:   -1.54 KCAL/MOL
REMARK 922        TOTAL FREE ENERGY PREDICTED BY IDOCK:   -2.37 KCAL/MOL
REMARK 923 INTER-LIGAND FREE ENERGY PREDICTED BY IDOCK:   -2.68 KCAL/MOL
REMARK 924 INTRA-LIGAND FREE ENERGY PREDICTED BY IDOCK:    0.31 KCAL/MOL
REMARK 927      BINDING AFFINITY PREDICTED BY RF-SCORE:    0.00 PKD
ROOT
HETATM    1  C   UNL     1      -8.523  18.728  65.379  1.00  0.00     1.290 C  
HETATM    2  O   UNL     1      -9.823  18.200  65.625  1.00  0.00    -0.478 OA 
ENDROOT
BRANCH   2   3
HETATM    3  C   UNL     1      -9.965  17.419  66.738  1.00  0.00    -0.307 A  
HETATM    4  C   UNL     1     -10.007  18.055  67.983  1.00  0.00    -0.343 A  
HETATM    5  C   UNL     1     -10.100  17.321  69.176  1.00  0.00    -0.252 A  
HETATM    6  S   UNL     1      -9.996  19.824  68.074  1.00  0.00    -0.454 S  
HETATM    7  O   UNL     1     -10.061  20.138  69.660  1.00  0.00    -0.170 OA 
HETATM    8  O   UNL     1     -11.232  20.311  67.499  1.00  0.00     0.251 OA 
HETATM    9  C   UNL     1     -10.172  15.930  69.132  1.00  0.00    -0.234 A  
HETATM   10  O   UNL     1      -8.690  20.291  67.675  1.00  0.00    -0.320 OA 
HETATM   11  H   UNL     1     -10.018  13.489  66.921  1.00  0.00     0.000 HD 
HETATM   12  C   UNL     1     -10.085  15.288  67.891  1.00  0.00    -0.233 A  
HETATM   13  O   UNL     1     -10.077  13.924  67.763  1.00  0.00    -0.233 OA 
HETATM   14  C   UNL     1      -9.989  16.022  66.706  1.00  0.00    -0.265 A  
BRANCH   9  15
HETATM   15  C   UNL     1     -10.297  15.128  70.374  1.00  0.00     0.012 C  
HETATM   16  O   UNL     1      -9.285  14.563  70.793  1.00  0.00     1.867 OA 
BRANCH  15  17
HETATM   17  C   UNL     1     -11.585  14.949  71.093  1.00  0.00    -0.347 A  
HETATM   18  C   UNL     1     -12.293  13.756  70.900  1.00  0.00    -0.456 A  
HETATM   19  C   UNL     1     -13.542  13.577  71.496  1.00  0.00    -0.254 A  
HETATM   20  C   UNL     1     -14.088  14.585  72.288  1.00  0.00    -0.594 A  
HETATM   21  C   UNL     1     -13.386  15.773  72.489  1.00  0.00    -0.578 A  
HETATM   22  C   UNL     1     -12.142  15.962  71.885  1.00  0.00    -0.578 A  
ENDBRANCH  15  17
ENDBRANCH   9  15
ENDBRANCH   2   3
TORSDOF 3
ENDMDL
MODEL      186
REMARK 921   NORMALIZED FREE ENERGY PREDICTED BY IDOCK:   -1.24 KCAL/MOL
REMARK 922        TOTAL FREE ENERGY PREDICTED BY IDOCK:   -2.02 KCAL/MOL
REMARK 923 INTER-LIGAND FREE ENERGY PREDICTED BY IDOCK:   -6.09 KCAL/MOL
REMARK 924 INTRA-LIGAND FREE ENERGY PREDICTED BY IDOCK:    4.08 KCAL/MOL
REMARK 927      BINDING AFFINITY PREDICTED BY RF-SCORE:    0.00 PKD
ROOT
HETATM    1  C   UNL     1     -12.720  12.912  65.445  1.00  0.00    -0.246 C  
HETATM    2  O   UNL     1     -12.094  12.973  66.724  1.00  0.00    -0.380 OA 
ENDROOT
BRANCH   2   3
HETATM    3  C   UNL     1     -11.627  14.196  67.117  1.00  0.00    -0.377 A  
HETATM    4  C   UNL     1     -11.286  15.117  66.121  1.00  0.00    -0.271 A  
HETATM    5  C   UNL     1     -10.751  16.375  66.441  1.00  0.00    -0.161 A  
HETATM    6  S   UNL     1     -11.576  14.727  64.418  1.00  0.00    -0.238 S  
HETATM    7  O   UNL     1     -11.057  16.036  63.619  1.00  0.00    -0.002 OA 
HETATM    8  O   UNL     1     -13.006  14.649  64.211  1.00  0.00    -0.508 OA 
HETATM    9  C   UNL     1     -10.570  16.733  67.775  1.00  0.00    -0.341 A  
HETATM   10  O   UNL     1     -10.654  13.687  64.027  1.00  0.00    -0.208 OA 
HETATM   11  H   UNL     1     -10.855  15.406  70.780  1.00  0.00     0.000 HD 
HETATM   12  C   UNL     1     -10.868  15.798  68.773  1.00  0.00    -0.274 A  
HETATM   13  O   UNL     1     -10.653  16.041  70.103  1.00  0.00    -0.306 OA 
HETATM   14  C   UNL     1     -11.397  14.545  68.450  1.00  0.00    -0.311 A  
BRANCH   9  15
HETATM   15  C   UNL     1     -10.031  18.066  68.146  1.00  0.00    -0.353 C  
HETATM   16  O   UNL     1     -10.782  19.036  68.037  1.00  0.00    -0.343 OA 
BRANCH  15  17
HETATM   17  C   UNL     1      -8.630  18.273  68.595  1.00  0.00    -0.301 A  
HETATM   18  C   UNL     1      -8.166  19.586  68.742  1.00  0.00    -0.348 A  
HETATM   19  C   UNL     1      -6.836  19.827  69.088  1.00  0.00    -0.373 A  
HETATM   20  C   UNL     1      -5.964  18.759  69.291  1.00  0.00    -0.257 A  
HETATM   21  C   UNL     1      -6.420  17.448  69.153  1.00  0.00    -0.239 A  
HETATM   22  C   UNL     1      -7.747  17.203  68.794  1.00  0.00    -0.259 A  
ENDBRANCH  15  17
ENDBRANCH   9  15
ENDBRANCH   2   3
TORSDOF 3
ENDMDL
MODEL      187
REMARK 921   NORMALIZED FREE ENERGY PREDICTED BY IDOCK:   -1.15 KCAL/MOL
REMARK 922        TOTAL FREE ENERGY PREDICTED BY IDOCK:   -1.91 KCAL/MOL
REMARK 923 INTER-LIGAND FREE ENERGY PREDICTED BY IDOCK:   -1.39 KCAL/MOL
REMARK 924 INTRA-LIGAND FREE ENERGY PREDICTED BY IDOCK:   -0.52 KCAL/MOL
REMARK 927      BINDING AFFINITY PREDICTED BY RF-SCORE:    0.00 PKD
ROOT
HETATM    1  C   UNL     1      -7.400  17.322  65.846  1.00  0.00    -0.034 C  
HETATM    2  O   UNL     1      -8.819  17.344  65.971  1.00  0.00    -0.498 OA 
ENDROOT
BRANCH   2   3
HETATM    3  C   UNL     1      -9.386  16.325  66.684  1.00  0.00    -0.248 A  
HETATM    4  C   UNL     1     -10.569  15.762  66.193  1.00  0.00    -0.313 A  
HETATM    5  C   UNL     1     -11.240  14.746  66.892  1.00  0.00    -0.347 A  
HETATM    6  S   UNL     1     -11.222  16.293  64.634  1.00  0.00    -0.052 S  
HETATM    7  O   UNL     1     -12.562  15.405  64.445  1.00  0.00    -0.357 OA 
HETATM    8  O   UNL     1     -10.298  15.883  63.598  1.00  0.00     2.120 OA 
HETATM    9  C   UNL     1     -10.717  14.266  68.091  1.00  0.00    -0.249 A  
HETATM   10  O   UNL     1     -11.710  17.643  64.782  1.00  0.00     0.504 OA 
HETATM   11  H   UNL     1      -8.230  14.896  70.163  1.00  0.00     0.000 HD 
HETATM   12  C   UNL     1      -9.558  14.857  68.608  1.00  0.00    -0.222 A  
HETATM   13  O   UNL     1      -9.016  14.495  69.812  1.00  0.00     0.335 OA 
HETATM   14  C   UNL     1      -8.895  15.871  67.910  1.00  0.00    -0.179 A  
BRANCH   9  15
HETATM   15  C   UNL     1     -11.389  13.175  68.840  1.00  0.00    -0.289 C  
HETATM   16  O   UNL     1     -12.418  13.455  69.456  1.00  0.00    -0.175 OA 
BRANCH  15  17
HETATM   17  C   UNL     1     -10.850  11.792  68.908  1.00  0.00    -0.265 A  
HETATM   18  C   UNL     1      -9.746  11.469  68.108  1.00  0.00    -0.192 A  
HETATM   19  C   UNL     1      -9.255  10.163  68.085  1.00  0.00    -0.137 A  
HETATM   20  C   UNL     1      -9.861   9.175  68.859  1.00  0.00    -0.179 A  
HETATM   21  C   UNL     1     -10.957   9.491  69.661  1.00  0.00    -0.233 A  
HETATM   22  C   UNL     1     -11.460  10.793  69.679  1.00  0.00    -0.376 A  
ENDBRANCH  15  17
ENDBRANCH   9  15
ENDBRANCH   2   3
TORSDOF 3
ENDMDL
MODEL      188
REMARK 921   NORMALIZED FREE ENERGY PREDICTED BY IDOCK:    1.36 KCAL/MOL
REMARK 922        TOTAL FREE ENERGY PREDICTED BY IDOCK:    1.03 KCAL/MOL
REMARK 923 INTER-LIGAND FREE ENERGY PREDICTED BY IDOCK:    0.72 KCAL/MOL
REMARK 924 INTRA-LIGAND FREE ENERGY PREDICTED BY IDOCK:    0.32 KCAL/MOL
REMARK 927      BINDING AFFINITY PREDICTED BY RF-SCORE:    0.00 PKD
ROOT
HETATM    1  C   UNL     1     -12.772  16.653  67.058  1.00  0.00     4.360 C  
HETATM    2  O   UNL     1     -11.771  15.762  66.573  1.00  0.00     0.255 OA 
ENDROOT
BRANCH   2   3
HETATM    3  C   UNL     1     -10.472  16.116  66.809  1.00  0.00    -0.294 A  
HETATM    4  C   UNL     1      -9.957  15.899  68.091  1.00  0.00    -0.222 A  
HETATM    5  C   UNL     1      -8.648  16.281  68.428  1.00  0.00    -0.200 A  
HETATM    6  S   UNL     1     -10.942  15.079  69.313  1.00  0.00    -0.277 S  
HETATM    7  O   UNL     1      -9.988  15.026  70.620  1.00  0.00     0.249 OA 
HETATM    8  O   UNL     1     -11.142  13.710  68.885  1.00  0.00    -0.242 OA 
HETATM    9  C   UNL     1      -7.829  16.873  67.468  1.00  0.00    -0.186 A  
HETATM   10  O   UNL     1     -12.017  15.962  69.697  1.00  0.00    -0.335 OA 
HETATM   11  H   UNL     1      -8.001  17.951  64.357  1.00  0.00     0.000 HD 
HETATM   12  C   UNL     1      -8.355  17.133  66.198  1.00  0.00    -0.223 A  
HETATM   13  O   UNL     1      -7.644  17.774  65.219  1.00  0.00    -0.015 OA 
HETATM   14  C   UNL     1      -9.660  16.754  65.867  1.00  0.00    -0.211 A  
BRANCH   9  15
HETATM   15  C   UNL     1      -6.433  17.264  67.786  1.00  0.00    -0.152 C  
HETATM   16  O   UNL     1      -5.538  16.825  67.063  1.00  0.00    -0.145 OA 
BRANCH  15  17
HETATM   17  C   UNL     1      -6.080  18.116  68.952  1.00  0.00    -0.209 A  
HETATM   18  C   UNL     1      -5.591  17.492  70.107  1.00  0.00    -0.249 A  
HETATM   19  C   UNL     1      -5.318  18.245  71.249  1.00  0.00    -0.166 A  
HETATM   20  C   UNL     1      -5.529  19.623  71.244  1.00  0.00    -0.330 A  
HETATM   21  C   UNL     1      -6.010  20.251  70.095  1.00  0.00    -0.386 A  
HETATM   22  C   UNL     1      -6.296  19.501  68.953  1.00  0.00    -0.306 A  
ENDBRANCH  15  17
ENDBRANCH   9  15
ENDBRANCH   2   3
TORSDOF 3
ENDMDL
MODEL      189
REMARK 921   NORMALIZED FREE ENERGY PREDICTED BY IDOCK:    3.80 KCAL/MOL
REMARK 922        TOTAL FREE ENERGY PREDICTED BY IDOCK:    3.91 KCAL/MOL
REMARK 923 INTER-LIGAND FREE ENERGY PREDICTED BY IDOCK:    3.35 KCAL/MOL
REMARK 924 INTRA-LIGAND FREE ENERGY PREDICTED BY IDOCK:    0.56 KCAL/MOL
REMARK 927      BINDING AFFINITY PREDICTED BY RF-SCORE:    0.00 PKD
ROOT
HETATM    1  C   UNL     1     -12.967  16.728  67.006  1.00  0.00     5.789 C  
HETATM    2  O   UNL     1     -12.174  15.610  66.615  1.00  0.00     0.692 OA 
ENDROOT
BRANCH   2   3
HETATM    3  C   UNL     1     -10.845  15.666  66.926  1.00  0.00    -0.282 A  
HETATM    4  C   UNL     1     -10.433  15.107  68.141  1.00  0.00    -0.245 A  
HETATM    5  C   UNL     1      -9.094  15.167  68.557  1.00  0.00    -0.191 A  
HETATM    6  S   UNL     1     -11.602  14.255  69.164  1.00  0.00    -0.327 S  
HETATM    7  O   UNL     1     -10.730  13.769  70.439  1.00  0.00     0.688 OA 
HETATM    8  O   UNL     1     -12.024  13.060  68.465  1.00  0.00    -0.323 OA 
HETATM    9  C   UNL     1      -8.141  15.777  67.743  1.00  0.00    -0.156 A  
HETATM   10  O   UNL     1     -12.518  15.226  69.712  1.00  0.00    -0.275 OA 
HETATM   11  H   UNL     1      -7.981  17.466  64.916  1.00  0.00     0.000 HD 
HETATM   12  C   UNL     1      -8.556  16.377  66.549  1.00  0.00    -0.294 A  
HETATM   13  O   UNL     1      -7.699  17.058  65.726  1.00  0.00    -0.357 OA 
HETATM   14  C   UNL     1      -9.891  16.317  66.140  1.00  0.00    -0.358 A  
BRANCH   9  15
HETATM   15  C   UNL     1      -6.713  15.834  68.144  1.00  0.00    -0.122 C  
HETATM   16  O   UNL     1      -5.931  16.413  67.389  1.00  0.00    -0.139 OA 
BRANCH  15  17
HETATM   17  C   UNL     1      -6.195  15.192  69.380  1.00  0.00    -0.116 A  
HETATM   18  C   UNL     1      -6.302  13.800  69.500  1.00  0.00    -0.118 A  
HETATM   19  C   UNL     1      -5.898  13.164  70.675  1.00  0.00    -0.143 A  
HETATM   20  C   UNL     1      -5.383  13.912  71.732  1.00  0.00    -0.218 A  
HETATM   21  C   UNL     1      -5.269  15.298  71.616  1.00  0.00    -0.042 A  
HETATM   22  C   UNL     1      -5.683  15.940  70.449  1.00  0.00    -0.110 A  
ENDBRANCH  15  17
ENDBRANCH   9  15
ENDBRANCH   2   3
TORSDOF 3
ENDMDL
MODEL      190
REMARK 921   NORMALIZED FREE ENERGY PREDICTED BY IDOCK:    8.20 KCAL/MOL
REMARK 922        TOTAL FREE ENERGY PREDICTED BY IDOCK:    9.08 KCAL/MOL
REMARK 923 INTER-LIGAND FREE ENERGY PREDICTED BY IDOCK:    8.88 KCAL/MOL
REMARK 924 INTRA-LIGAND FREE ENERGY PREDICTED BY IDOCK:    0.19 KCAL/MOL
REMARK 927      BINDING AFFINITY PREDICTED BY RF-SCORE:    0.00 PKD
ROOT
HETATM    1  C   UNL     1      -8.088  18.198  67.043  1.00  0.00    -0.226 C  
HETATM    2  O   UNL     1      -9.264  17.394  67.076  1.00  0.00    -0.235 OA 
ENDROOT
BRANCH   2   3
HETATM    3  C   UNL     1      -9.094  16.078  67.403  1.00  0.00    -0.199 A  
HETATM    4  C   UNL     1      -8.894  15.759  68.751  1.00  0.00    -0.207 A  
HETATM    5  C   UNL     1      -8.662  14.437  69.163  1.00  0.00     0.093 A  
HETATM    6  S   UNL     1      -8.984  17.028  69.983  1.00  0.00     2.103 S  
HETATM    7  O   UNL     1      -8.707  16.248  71.374  1.00  0.00     5.089 OA 
HETATM    8  O   UNL     1     -10.349  17.507  70.036  1.00  0.00     0.215 OA 
HETATM    9  C   UNL     1      -8.648  13.409  68.222  1.00  0.00    -0.169 A  
HETATM   10  O   UNL     1      -7.838  17.892  69.829  1.00  0.00     0.581 OA 
HETATM   11  H   UNL     1      -8.835  13.009  64.954  1.00  0.00     0.000 HD 
HETATM   12  C   UNL     1      -8.802  13.730  66.868  1.00  0.00    -0.188 A  
HETATM   13  O   UNL     1      -8.731  12.792  65.873  1.00  0.00     0.343 OA 
HETATM   14  C   UNL     1      -9.030  15.048  66.462  1.00  0.00    -0.310 A  
BRANCH   9  15
HETATM   15  C   UNL     1      -8.431  11.999  68.629  1.00  0.00    -0.022 C  
HETATM   16  O   UNL     1      -7.305  11.525  68.470  1.00  0.00    -0.090 OA 
BRANCH  15  17
HETATM   17  C   UNL     1      -9.516  11.139  69.171  1.00  0.00    -0.000 A  
HETATM   18  C   UNL     1     -10.315  10.429  68.266  1.00  0.00    -0.198 A  
HETATM   19  C   UNL     1     -11.391   9.669  68.727  1.00  0.00     0.089 A  
HETATM   20  C   UNL     1     -11.673   9.614  70.090  1.00  0.00    -0.143 A  
HETATM   21  C   UNL     1     -10.878  10.314  70.997  1.00  0.00     0.147 A  
HETATM   22  C   UNL     1      -9.807  11.085  70.540  1.00  0.00     2.211 A  
ENDBRANCH  15  17
ENDBRANCH   9  15
ENDBRANCH   2   3
TORSDOF 3
ENDMDL
MODEL      191
REMARK 921   NORMALIZED FREE ENERGY PREDICTED BY IDOCK:   15.41 KCAL/MOL
REMARK 922        TOTAL FREE ENERGY PREDICTED BY IDOCK:   17.55 KCAL/MOL
REMARK 923 INTER-LIGAND FREE ENERGY PREDICTED BY IDOCK:   17.99 KCAL/MOL
REMARK 924 INTRA-LIGAND FREE ENERGY PREDICTED BY IDOCK:   -0.44 KCAL/MOL
REMARK 927      BINDING AFFINITY PREDICTED BY RF-SCORE:    0.00 PKD
ROOT
HETATM    1  C   UNL     1      -9.482  17.676  64.663  1.00  0.00     4.833 C  
HETATM    2  O   UNL     1      -9.779  16.398  65.218  1.00  0.00    -0.433 OA 
ENDROOT
BRANCH   2   3
HETATM    3  C   UNL     1      -9.418  16.199  66.521  1.00  0.00    -0.264 A  
HETATM    4  C   UNL     1      -9.763  14.981  67.117  1.00  0.00    -0.226 A  
HETATM    5  C   UNL     1      -9.473  14.719  68.466  1.00  0.00    -0.214 A  
HETATM    6  S   UNL     1     -10.535  13.711  66.153  1.00  0.00    -0.303 S  
HETATM    7  O   UNL     1     -10.752  12.497  67.202  1.00  0.00    -0.232 OA 
HETATM    8  O   UNL     1      -9.579  13.250  65.170  1.00  0.00     0.012 OA 
HETATM    9  C   UNL     1      -8.811  15.676  69.232  1.00  0.00    -0.264 A  
HETATM   10  O   UNL     1     -11.874  14.139  65.827  1.00  0.00    -0.355 OA 
HETATM   11  H   UNL     1      -7.712  18.773  68.959  1.00  0.00     0.000 HD 
HETATM   12  C   UNL     1      -8.505  16.913  68.653  1.00  0.00    -0.260 A  
HETATM   13  O   UNL     1      -7.920  17.934  69.353  1.00  0.00     0.104 OA 
HETATM   14  C   UNL     1      -8.798  17.171  67.310  1.00  0.00    -0.226 A  
BRANCH   9  15
HETATM   15  C   UNL     1      -8.468  15.419  70.653  1.00  0.00     1.840 C  
HETATM   16  O   UNL     1      -9.074  16.060  71.512  1.00  0.00     4.209 OA 
BRANCH  15  17
HETATM   17  C   UNL     1      -7.406  14.464  71.067  1.00  0.00     1.816 A  
HETATM   18  C   UNL     1      -6.558  13.946  70.080  1.00  0.00     0.010 A  
HETATM   19  C   UNL     1      -5.597  12.990  70.412  1.00  0.00    -0.159 A  
HETATM   20  C   UNL     1      -5.477  12.550  71.729  1.00  0.00     0.240 A  
HETATM   21  C   UNL     1      -6.314  13.067  72.718  1.00  0.00     3.247 A  
HETATM   22  C   UNL     1      -7.285  14.014  72.388  1.00  0.00     4.619 A  
ENDBRANCH  15  17
ENDBRANCH   9  15
ENDBRANCH   2   3
TORSDOF 3
ENDMDL
MODEL      192
REMARK 921   NORMALIZED FREE ENERGY PREDICTED BY IDOCK:   19.78 KCAL/MOL
REMARK 922        TOTAL FREE ENERGY PREDICTED BY IDOCK:   22.69 KCAL/MOL
REMARK 923 INTER-LIGAND FREE ENERGY PREDICTED BY IDOCK:   18.38 KCAL/MOL
REMARK 924 INTRA-LIGAND FREE ENERGY PREDICTED BY IDOCK:    4.31 KCAL/MOL
REMARK 927      BINDING AFFINITY PREDICTED BY RF-SCORE:    0.00 PKD
ROOT
HETATM    1  C   UNL     1     -11.663  10.462  67.258  1.00  0.00     1.068 C  
HETATM    2  O   UNL     1     -11.134  11.667  66.712  1.00  0.00    -0.284 OA 
ENDROOT
BRANCH   2   3
HETATM    3  C   UNL     1     -10.628  12.571  67.603  1.00  0.00    -0.217 A  
HETATM    4  C   UNL     1     -10.963  12.417  68.952  1.00  0.00    -0.223 A  
HETATM    5  C   UNL     1     -10.524  13.332  69.923  1.00  0.00     1.081 A  
HETATM    6  S   UNL     1     -11.914  11.017  69.474  1.00  0.00    -0.331 S  
HETATM    7  O   UNL     1     -12.067  11.218  71.073  1.00  0.00    -0.319 OA 
HETATM    8  O   UNL     1     -11.112   9.829  69.276  1.00  0.00    -0.219 OA 
HETATM    9  C   UNL     1      -9.723  14.409  69.550  1.00  0.00     0.289 A  
HETATM   10  O   UNL     1     -13.258  11.169  68.970  1.00  0.00     0.884 OA 
HETATM   11  H   UNL     1      -8.499  15.784  66.814  1.00  0.00     0.000 HD 
HETATM   12  C   UNL     1      -9.423  14.591  68.195  1.00  0.00    -0.208 A  
HETATM   13  O   UNL     1      -8.702  15.660  67.734  1.00  0.00    -0.167 OA 
HETATM   14  C   UNL     1      -9.864  13.680  67.231  1.00  0.00    -0.241 A  
BRANCH   9  15
HETATM   15  C   UNL     1      -9.223  15.379  70.556  1.00  0.00     1.177 C  
HETATM   16  O   UNL     1      -9.862  16.420  70.713  1.00  0.00     1.341 OA 
BRANCH  15  17
HETATM   17  C   UNL     1      -7.976  15.162  71.335  1.00  0.00     3.504 A  
HETATM   18  C   UNL     1      -6.796  14.877  70.636  1.00  0.00     0.358 A  
HETATM   19  C   UNL     1      -5.620  14.592  71.331  1.00  0.00    -0.085 A  
HETATM   20  C   UNL     1      -5.614  14.594  72.724  1.00  0.00     0.081 A  
HETATM   21  C   UNL     1      -6.784  14.883  73.427  1.00  0.00     2.942 A  
HETATM   22  C   UNL     1      -7.967  15.156  72.737  1.00  0.00     7.944 A  
ENDBRANCH  15  17
ENDBRANCH   9  15
ENDBRANCH   2   3
TORSDOF 3
ENDMDL
