MODEL        1
REMARK 921   NORMALIZED FREE ENERGY PREDICTED BY IDOCK:   -6.63 KCAL/MOL
REMARK 922        TOTAL FREE ENERGY PREDICTED BY IDOCK:  -10.04 KCAL/MOL
REMARK 923 INTER-LIGAND FREE ENERGY PREDICTED BY IDOCK:   -8.95 KCAL/MOL
REMARK 924 INTRA-LIGAND FREE ENERGY PREDICTED BY IDOCK:   -1.08 KCAL/MOL
REMARK 927      BINDING AFFINITY PREDICTED BY RF-SCORE:    0.00 PKD
ROOT
HETATM    1  C   UNL     1     -10.551   7.369  73.339  1.00  0.00    -0.427 C  
HETATM    2  C   UNL     1     -10.741   8.440  72.268  1.00  0.00    -0.347 C  
ENDROOT
BRANCH   2   3
HETATM    3  N   UNL     1     -12.045   8.348  71.593  1.00  0.00    -0.297 NA 
HETATM    4  C   UNL     1     -12.612   6.998  71.660  1.00  0.00    -0.380 C  
HETATM    5  C   UNL     1     -14.071   7.233  71.333  1.00  0.00    -0.456 C  
HETATM    6  C   UNL     1     -14.393   8.524  72.061  1.00  0.00    -0.537 C  
HETATM    7  C   UNL     1     -13.048   9.251  72.218  1.00  0.00    -0.441 C  
BRANCH   7   8
HETATM    8  C   UNL     1     -13.064  10.643  71.545  1.00  0.00    -0.424 C  
BRANCH   8   9
HETATM    9  N   UNL     1     -12.584  10.648  70.168  1.00  0.00    -0.454 N  
HETATM   10  C   UNL     1     -11.911  11.731  69.625  1.00  0.00    -0.312 C  
HETATM   11  H   UNL     1     -12.748   9.827  69.585  1.00  0.00     0.000 HD 
HETATM   12  O   UNL     1     -11.722  12.759  70.263  1.00  0.00    -0.246 OA 
BRANCH  10  13
HETATM   13  C   UNL     1     -11.449  11.583  68.200  1.00  0.00    -0.385 A  
HETATM   14  C   UNL     1     -10.438  10.659  67.844  1.00  0.00    -0.208 A  
HETATM   15  C   UNL     1     -10.030  10.570  66.503  1.00  0.00    -0.266 A  
HETATM   16  C   UNL     1     -12.002  12.416  67.209  1.00  0.00    -0.246 A  
HETATM   17  C   UNL     1     -11.583  12.302  65.881  1.00  0.00    -0.393 A  
HETATM   18  C   UNL     1     -10.597  11.385  65.524  1.00  0.00    -0.328 A  
BRANCH  14  19
HETATM   19  O   UNL     1      -9.915   9.868  68.832  1.00  0.00    -0.167 OA 
HETATM   20  C   UNL     1     -10.044   8.458  68.702  1.00  0.00    -0.193 C  
ENDBRANCH  14  19
BRANCH  17  21
HETATM   21  S   UNL     1     -12.251  13.377  64.643  1.00  0.00    -0.404 S  
HETATM   22  O   UNL     1     -13.283  14.195  65.235  1.00  0.00    -0.760 OA 
HETATM   23  N   UNL     1     -10.958  14.398  64.339  1.00  0.00    -0.618 N  
HETATM   24  O   UNL     1     -12.457  12.622  63.427  1.00  0.00    -0.663 OA 
HETATM   25  H1  UNL     1     -11.343  15.017  63.626  1.00  0.00     0.000 HD 
HETATM   26  H2  UNL     1     -10.028  14.400  64.757  1.00  0.00     0.000 HD 
ENDBRANCH  17  21
ENDBRANCH  10  13
ENDBRANCH   8   9
ENDBRANCH   7   8
ENDBRANCH   2   3
TORSDOF 6
ENDMDL
MODEL        2
REMARK 921   NORMALIZED FREE ENERGY PREDICTED BY IDOCK:   -6.51 KCAL/MOL
REMARK 922        TOTAL FREE ENERGY PREDICTED BY IDOCK:   -9.87 KCAL/MOL
REMARK 923 INTER-LIGAND FREE ENERGY PREDICTED BY IDOCK:   -8.94 KCAL/MOL
REMARK 924 INTRA-LIGAND FREE ENERGY PREDICTED BY IDOCK:   -0.93 KCAL/MOL
REMARK 927      BINDING AFFINITY PREDICTED BY RF-SCORE:    0.00 PKD
ROOT
HETATM    1  C   UNL     1     -10.645   7.193  73.265  1.00  0.00    -0.405 C  
HETATM    2  C   UNL     1     -11.384   6.696  72.026  1.00  0.00    -0.280 C  
ENDROOT
BRANCH   2   3
HETATM    3  N   UNL     1     -12.186   7.745  71.379  1.00  0.00    -0.312 NA 
HETATM    4  C   UNL     1     -13.590   7.711  71.801  1.00  0.00    -0.324 C  
HETATM    5  C   UNL     1     -14.092   9.080  71.397  1.00  0.00    -0.237 C  
HETATM    6  C   UNL     1     -12.934   9.997  71.741  1.00  0.00    -0.560 C  
HETATM    7  C   UNL     1     -11.684   9.103  71.717  1.00  0.00    -0.386 C  
BRANCH   7   8
HETATM    8  C   UNL     1     -10.640   9.601  70.692  1.00  0.00    -0.319 C  
BRANCH   8   9
HETATM    9  N   UNL     1     -11.123  10.659  69.812  1.00  0.00    -0.277 N  
HETATM   10  C   UNL     1     -10.401  11.088  68.710  1.00  0.00    -0.199 C  
HETATM   11  H   UNL     1     -12.022  11.098  70.014  1.00  0.00     0.000 HD 
HETATM   12  O   UNL     1      -9.298  10.629  68.442  1.00  0.00    -0.150 OA 
BRANCH  10  13
HETATM   13  C   UNL     1     -11.037  12.168  67.875  1.00  0.00    -0.295 A  
HETATM   14  C   UNL     1     -11.511  13.367  68.456  1.00  0.00    -0.310 A  
HETATM   15  C   UNL     1     -12.111  14.337  67.636  1.00  0.00    -0.332 A  
HETATM   16  C   UNL     1     -11.205  11.957  66.493  1.00  0.00    -0.383 A  
HETATM   17  C   UNL     1     -11.799  12.942  65.699  1.00  0.00    -0.417 A  
HETATM   18  C   UNL     1     -12.256  14.129  66.265  1.00  0.00    -0.474 A  
BRANCH  14  19
HETATM   19  O   UNL     1     -11.340  13.539  69.804  1.00  0.00    -0.200 OA 
HETATM   20  C   UNL     1     -12.481  13.857  70.591  1.00  0.00    -0.366 C  
ENDBRANCH  14  19
BRANCH  17  21
HETATM   21  S   UNL     1     -12.045  12.659  63.969  1.00  0.00    -0.496 S  
HETATM   22  O   UNL     1     -13.222  11.845  63.786  1.00  0.00    -0.655 OA 
HETATM   23  N   UNL     1     -12.443  14.192  63.422  1.00  0.00    -1.116 N  
HETATM   24  O   UNL     1     -10.773  12.338  63.361  1.00  0.00    -0.446 OA 
HETATM   25  H1  UNL     1     -12.584  14.029  62.425  1.00  0.00     0.000 HD 
HETATM   26  H2  UNL     1     -12.523  15.061  63.949  1.00  0.00     0.000 HD 
ENDBRANCH  17  21
ENDBRANCH  10  13
ENDBRANCH   8   9
ENDBRANCH   7   8
ENDBRANCH   2   3
TORSDOF 6
ENDMDL
MODEL        3
REMARK 921   NORMALIZED FREE ENERGY PREDICTED BY IDOCK:   -6.48 KCAL/MOL
REMARK 922        TOTAL FREE ENERGY PREDICTED BY IDOCK:   -9.83 KCAL/MOL
REMARK 923 INTER-LIGAND FREE ENERGY PREDICTED BY IDOCK:   -9.30 KCAL/MOL
REMARK 924 INTRA-LIGAND FREE ENERGY PREDICTED BY IDOCK:   -0.53 KCAL/MOL
REMARK 927      BINDING AFFINITY PREDICTED BY RF-SCORE:    0.00 PKD
ROOT
HETATM    1  C   UNL     1     -14.187   7.567  71.583  1.00  0.00    -0.592 C  
HETATM    2  C   UNL     1     -13.871   8.780  72.454  1.00  0.00    -0.416 C  
ENDROOT
BRANCH   2   3
HETATM    3  N   UNL     1     -12.457   9.179  72.387  1.00  0.00    -0.325 NA 
HETATM    4  C   UNL     1     -11.550   8.059  72.658  1.00  0.00    -0.387 C  
HETATM    5  C   UNL     1     -10.231   8.559  72.109  1.00  0.00    -0.403 C  
HETATM    6  C   UNL     1     -10.629   9.279  70.834  1.00  0.00    -0.366 C  
HETATM    7  C   UNL     1     -12.097   9.687  71.037  1.00  0.00    -0.337 C  
BRANCH   7   8
HETATM    8  C   UNL     1     -12.288  11.218  70.931  1.00  0.00    -0.388 C  
BRANCH   8   9
HETATM    9  N   UNL     1     -11.817  11.794  69.675  1.00  0.00    -0.324 N  
HETATM   10  C   UNL     1     -11.919  13.148  69.402  1.00  0.00    -0.291 C  
HETATM   11  H   UNL     1     -11.399  11.179  68.977  1.00  0.00     0.000 HD 
HETATM   12  O   UNL     1     -12.449  13.927  70.184  1.00  0.00    -0.333 OA 
BRANCH  10  13
HETATM   13  C   UNL     1     -11.364  13.605  68.079  1.00  0.00    -0.316 A  
HETATM   14  C   UNL     1     -10.392  14.629  68.001  1.00  0.00    -0.235 A  
HETATM   15  C   UNL     1      -9.917  15.030  66.740  1.00  0.00    -0.254 A  
HETATM   16  C   UNL     1     -11.861  13.032  66.892  1.00  0.00    -0.442 A  
HETATM   17  C   UNL     1     -11.366  13.445  65.652  1.00  0.00    -0.298 A  
HETATM   18  C   UNL     1     -10.400  14.444  65.571  1.00  0.00    -0.382 A  
BRANCH  14  19
HETATM   19  O   UNL     1      -9.935  15.172  69.171  1.00  0.00    -0.220 OA 
HETATM   20  C   UNL     1      -9.444  16.506  69.147  1.00  0.00    -0.212 C  
ENDBRANCH  14  19
BRANCH  17  21
HETATM   21  S   UNL     1     -12.019  12.751  64.160  1.00  0.00    -0.467 S  
HETATM   22  O   UNL     1     -13.270  12.093  64.453  1.00  0.00    -0.758 OA 
HETATM   23  N   UNL     1     -12.405  14.124  63.282  1.00  0.00    -1.133 N  
HETATM   24  O   UNL     1     -10.948  12.103  63.436  1.00  0.00    -0.426 OA 
HETATM   25  H1  UNL     1     -12.781  13.725  62.422  1.00  0.00     0.000 HD 
HETATM   26  H2  UNL     1     -12.293  15.104  63.539  1.00  0.00     0.000 HD 
ENDBRANCH  17  21
ENDBRANCH  10  13
ENDBRANCH   8   9
ENDBRANCH   7   8
ENDBRANCH   2   3
TORSDOF 6
ENDMDL
MODEL        4
REMARK 921   NORMALIZED FREE ENERGY PREDICTED BY IDOCK:   -6.36 KCAL/MOL
REMARK 922        TOTAL FREE ENERGY PREDICTED BY IDOCK:   -9.67 KCAL/MOL
REMARK 923 INTER-LIGAND FREE ENERGY PREDICTED BY IDOCK:   -8.89 KCAL/MOL
REMARK 924 INTRA-LIGAND FREE ENERGY PREDICTED BY IDOCK:   -0.78 KCAL/MOL
REMARK 927      BINDING AFFINITY PREDICTED BY RF-SCORE:    0.00 PKD
ROOT
HETATM    1  C   UNL     1      -6.810  20.620  66.525  1.00  0.00    -0.310 C  
HETATM    2  C   UNL     1      -7.258  19.163  66.450  1.00  0.00    -0.241 C  
ENDROOT
BRANCH   2   3
HETATM    3  N   UNL     1      -8.419  18.877  67.308  1.00  0.00    -0.274 NA 
HETATM    4  C   UNL     1      -8.173  19.227  68.710  1.00  0.00    -0.355 C  
HETATM    5  C   UNL     1      -9.571  19.284  69.288  1.00  0.00    -0.253 C  
HETATM    6  C   UNL     1     -10.382  19.941  68.188  1.00  0.00    -0.533 C  
HETATM    7  C   UNL     1      -9.613  19.657  66.888  1.00  0.00    -0.359 C  
BRANCH   7   8
HETATM    8  C   UNL     1     -10.476  18.881  65.867  1.00  0.00    -0.391 C  
BRANCH   8   9
HETATM    9  N   UNL     1     -10.594  17.454  66.146  1.00  0.00    -0.267 N  
HETATM   10  C   UNL     1     -11.068  16.555  65.204  1.00  0.00    -0.129 C  
HETATM   11  H   UNL     1     -10.317  17.106  67.064  1.00  0.00     0.000 HD 
HETATM   12  O   UNL     1     -11.454  16.920  64.100  1.00  0.00    -1.174 OA 
BRANCH  10  13
HETATM   13  C   UNL     1     -11.107  15.110  65.621  1.00  0.00    -0.334 A  
HETATM   14  C   UNL     1     -11.338  14.736  66.966  1.00  0.00    -0.353 A  
HETATM   15  C   UNL     1     -11.349  13.373  67.308  1.00  0.00    -0.348 A  
HETATM   16  C   UNL     1     -10.860  14.110  64.660  1.00  0.00    -0.401 A  
HETATM   17  C   UNL     1     -10.884  12.762  65.026  1.00  0.00    -0.292 A  
HETATM   18  C   UNL     1     -11.123  12.389  66.346  1.00  0.00    -0.343 A  
BRANCH  14  19
HETATM   19  O   UNL     1     -11.566  15.730  67.879  1.00  0.00    -0.283 OA 
HETATM   20  C   UNL     1     -11.773  15.361  69.236  1.00  0.00    -0.349 C  
ENDBRANCH  14  19
BRANCH  17  21
HETATM   21  S   UNL     1     -10.536  11.510  63.824  1.00  0.00    -0.446 S  
HETATM   22  O   UNL     1     -10.353  10.247  64.498  1.00  0.00    -0.255 OA 
HETATM   23  N   UNL     1     -11.994  11.400  63.007  1.00  0.00    -0.867 N  
HETATM   24  O   UNL     1      -9.583  12.029  62.869  1.00  0.00    -0.332 OA 
HETATM   25  H1  UNL     1     -11.794  10.679  62.315  1.00  0.00     0.000 HD 
HETATM   26  H2  UNL     1     -12.858  11.920  63.162  1.00  0.00     0.000 HD 
ENDBRANCH  17  21
ENDBRANCH  10  13
ENDBRANCH   8   9
ENDBRANCH   7   8
ENDBRANCH   2   3
TORSDOF 6
ENDMDL
MODEL        5
REMARK 921   NORMALIZED FREE ENERGY PREDICTED BY IDOCK:   -6.32 KCAL/MOL
REMARK 922        TOTAL FREE ENERGY PREDICTED BY IDOCK:   -9.63 KCAL/MOL
REMARK 923 INTER-LIGAND FREE ENERGY PREDICTED BY IDOCK:   -8.65 KCAL/MOL
REMARK 924 INTRA-LIGAND FREE ENERGY PREDICTED BY IDOCK:   -0.97 KCAL/MOL
REMARK 927      BINDING AFFINITY PREDICTED BY RF-SCORE:    0.00 PKD
ROOT
HETATM    1  C   UNL     1     -14.402   8.197  71.427  1.00  0.00    -0.472 C  
HETATM    2  C   UNL     1     -13.303   8.671  72.373  1.00  0.00    -0.343 C  
ENDROOT
BRANCH   2   3
HETATM    3  N   UNL     1     -12.003   8.037  72.104  1.00  0.00    -0.329 NA 
HETATM    4  C   UNL     1     -12.075   6.574  72.165  1.00  0.00    -0.264 C  
HETATM    5  C   UNL     1     -10.816   6.149  71.441  1.00  0.00    -0.319 C  
HETATM    6  C   UNL     1     -10.723   7.130  70.288  1.00  0.00    -0.258 C  
HETATM    7  C   UNL     1     -11.504   8.372  70.743  1.00  0.00    -0.255 C  
BRANCH   7   8
HETATM    8  C   UNL     1     -10.618   9.639  70.752  1.00  0.00    -0.322 C  
BRANCH   8   9
HETATM    9  N   UNL     1     -11.083  10.700  69.866  1.00  0.00    -0.289 N  
HETATM   10  C   UNL     1     -10.414  11.031  68.699  1.00  0.00    -0.192 C  
HETATM   11  H   UNL     1     -11.927  11.216  70.114  1.00  0.00     0.000 HD 
HETATM   12  O   UNL     1      -9.373  10.476  68.371  1.00  0.00    -0.147 OA 
BRANCH  10  13
HETATM   13  C   UNL     1     -11.026  12.128  67.868  1.00  0.00    -0.272 A  
HETATM   14  C   UNL     1     -11.481  13.331  68.455  1.00  0.00    -0.312 A  
HETATM   15  C   UNL     1     -12.058  14.319  67.639  1.00  0.00    -0.332 A  
HETATM   16  C   UNL     1     -11.191  11.930  66.484  1.00  0.00    -0.383 A  
HETATM   17  C   UNL     1     -11.762  12.931  65.694  1.00  0.00    -0.387 A  
HETATM   18  C   UNL     1     -12.200  14.122  66.266  1.00  0.00    -0.474 A  
BRANCH  14  19
HETATM   19  O   UNL     1     -11.313  13.491  69.805  1.00  0.00    -0.200 OA 
HETATM   20  C   UNL     1     -12.343  14.143  70.537  1.00  0.00    -0.364 C  
ENDBRANCH  14  19
BRANCH  17  21
HETATM   21  S   UNL     1     -12.004  12.664  63.961  1.00  0.00    -0.496 S  
HETATM   22  O   UNL     1     -13.200  11.878  63.766  1.00  0.00    -0.655 OA 
HETATM   23  N   UNL     1     -12.364  14.209  63.421  1.00  0.00    -1.144 N  
HETATM   24  O   UNL     1     -10.737  12.317  63.358  1.00  0.00    -0.446 OA 
HETATM   25  H1  UNL     1     -12.504  14.055  62.423  1.00  0.00     0.000 HD 
HETATM   26  H2  UNL     1     -12.427  15.077  63.953  1.00  0.00     0.000 HD 
ENDBRANCH  17  21
ENDBRANCH  10  13
ENDBRANCH   8   9
ENDBRANCH   7   8
ENDBRANCH   2   3
TORSDOF 6
ENDMDL
MODEL        6
REMARK 921   NORMALIZED FREE ENERGY PREDICTED BY IDOCK:   -6.25 KCAL/MOL
REMARK 922        TOTAL FREE ENERGY PREDICTED BY IDOCK:   -9.53 KCAL/MOL
REMARK 923 INTER-LIGAND FREE ENERGY PREDICTED BY IDOCK:   -8.88 KCAL/MOL
REMARK 924 INTRA-LIGAND FREE ENERGY PREDICTED BY IDOCK:   -0.65 KCAL/MOL
REMARK 927      BINDING AFFINITY PREDICTED BY RF-SCORE:    0.00 PKD
ROOT
HETATM    1  C   UNL     1      -9.960  15.481  66.072  1.00  0.00    -0.356 C  
HETATM    2  C   UNL     1     -11.234  14.813  66.583  1.00  0.00    -0.346 C  
ENDROOT
BRANCH   2   3
HETATM    3  N   UNL     1     -11.763  13.805  65.652  1.00  0.00    -0.335 NA 
HETATM    4  C   UNL     1     -12.191  14.393  64.379  1.00  0.00    -0.458 C  
HETATM    5  C   UNL     1     -12.257  13.190  63.463  1.00  0.00    -0.552 C  
HETATM    6  C   UNL     1     -11.046  12.371  63.865  1.00  0.00    -0.475 C  
HETATM    7  C   UNL     1     -10.738  12.782  65.314  1.00  0.00    -0.294 C  
BRANCH   7   8
HETATM    8  C   UNL     1     -10.790  11.575  66.278  1.00  0.00    -0.282 C  
BRANCH   8   9
HETATM    9  N   UNL     1     -11.504  11.836  67.524  1.00  0.00    -0.305 N  
HETATM   10  C   UNL     1     -10.894  11.712  68.762  1.00  0.00    -0.220 C  
HETATM   11  H   UNL     1     -12.483  12.119  67.482  1.00  0.00     0.000 HD 
HETATM   12  O   UNL     1      -9.734  11.335  68.876  1.00  0.00    -0.196 OA 
BRANCH  10  13
HETATM   13  C   UNL     1     -11.744  12.042  69.960  1.00  0.00    -0.346 A  
HETATM   14  C   UNL     1     -12.369  11.028  70.723  1.00  0.00    -0.398 A  
HETATM   15  C   UNL     1     -13.165  11.388  71.823  1.00  0.00    -0.472 A  
HETATM   16  C   UNL     1     -11.960  13.392  70.298  1.00  0.00    -0.378 A  
HETATM   17  C   UNL     1     -12.751  13.722  71.402  1.00  0.00    -0.367 A  
HETATM   18  C   UNL     1     -13.358  12.726  72.163  1.00  0.00    -0.593 A  
BRANCH  14  19
HETATM   19  O   UNL     1     -12.146   9.725  70.365  1.00  0.00    -0.215 OA 
HETATM   20  C   UNL     1     -12.182   8.733  71.383  1.00  0.00    -0.309 C  
ENDBRANCH  14  19
BRANCH  17  21
HETATM   21  S   UNL     1     -13.052  15.420  71.802  1.00  0.00    -0.478 S  
HETATM   22  O   UNL     1     -14.318  15.820  71.236  1.00  0.00    -0.446 OA 
HETATM   23  N   UNL     1     -13.279  15.348  73.460  1.00  0.00    -0.588 N  
HETATM   24  O   UNL     1     -11.835  16.173  71.599  1.00  0.00    -0.466 OA 
HETATM   25  H1  UNL     1     -13.453  16.326  73.691  1.00  0.00     0.000 HD 
HETATM   26  H2  UNL     1     -13.251  14.537  74.078  1.00  0.00     0.000 HD 
ENDBRANCH  17  21
ENDBRANCH  10  13
ENDBRANCH   8   9
ENDBRANCH   7   8
ENDBRANCH   2   3
TORSDOF 6
ENDMDL
MODEL        7
REMARK 921   NORMALIZED FREE ENERGY PREDICTED BY IDOCK:   -6.18 KCAL/MOL
REMARK 922        TOTAL FREE ENERGY PREDICTED BY IDOCK:   -9.43 KCAL/MOL
REMARK 923 INTER-LIGAND FREE ENERGY PREDICTED BY IDOCK:   -8.45 KCAL/MOL
REMARK 924 INTRA-LIGAND FREE ENERGY PREDICTED BY IDOCK:   -0.97 KCAL/MOL
REMARK 927      BINDING AFFINITY PREDICTED BY RF-SCORE:    0.00 PKD
ROOT
HETATM    1  C   UNL     1     -10.930  15.720  64.914  1.00  0.00    -0.443 C  
HETATM    2  C   UNL     1     -10.854  14.558  65.901  1.00  0.00    -0.308 C  
ENDROOT
BRANCH   2   3
HETATM    3  N   UNL     1     -11.362  13.297  65.338  1.00  0.00    -0.293 NA 
HETATM    4  C   UNL     1     -12.255  13.517  64.196  1.00  0.00    -0.394 C  
HETATM    5  C   UNL     1     -12.282  12.160  63.528  1.00  0.00    -0.670 C  
HETATM    6  C   UNL     1     -10.846  11.683  63.637  1.00  0.00    -0.503 C  
HETATM    7  C   UNL     1     -10.256  12.437  64.840  1.00  0.00    -0.278 C  
BRANCH   7   8
HETATM    8  C   UNL     1      -9.745  11.468  65.932  1.00  0.00    -0.232 C  
BRANCH   8   9
HETATM    9  N   UNL     1     -10.613  11.376  67.101  1.00  0.00    -0.230 N  
HETATM   10  C   UNL     1     -10.109  11.197  68.380  1.00  0.00    -0.184 C  
HETATM   11  H   UNL     1     -11.622  11.444  66.974  1.00  0.00     0.000 HD 
HETATM   12  O   UNL     1      -8.910  11.066  68.589  1.00  0.00    -0.156 OA 
BRANCH  10  13
HETATM   13  C   UNL     1     -11.120  11.148  69.494  1.00  0.00    -0.311 A  
HETATM   14  C   UNL     1     -11.801  12.311  69.924  1.00  0.00    -0.311 A  
HETATM   15  C   UNL     1     -12.725  12.216  70.979  1.00  0.00    -0.322 A  
HETATM   16  C   UNL     1     -11.358   9.926  70.153  1.00  0.00    -0.335 A  
HETATM   17  C   UNL     1     -12.287   9.859  71.194  1.00  0.00    -0.370 A  
HETATM   18  C   UNL     1     -12.968  10.998  71.613  1.00  0.00    -0.561 A  
BRANCH  14  19
HETATM   19  O   UNL     1     -11.543  13.486  69.269  1.00  0.00    -0.278 OA 
HETATM   20  C   UNL     1     -12.071  14.689  69.815  1.00  0.00    -0.324 C  
ENDBRANCH  14  19
BRANCH  17  21
HETATM   21  S   UNL     1     -12.555   8.330  72.046  1.00  0.00    -0.350 S  
HETATM   22  O   UNL     1     -11.426   8.063  72.904  1.00  0.00    -0.411 OA 
HETATM   23  N   UNL     1     -13.833   8.719  73.057  1.00  0.00    -0.879 N  
HETATM   24  O   UNL     1     -13.070   7.356  71.111  1.00  0.00    -0.313 OA 
HETATM   25  H1  UNL     1     -13.988   7.839  73.548  1.00  0.00     0.000 HD 
HETATM   26  H2  UNL     1     -14.327   9.605  73.156  1.00  0.00     0.000 HD 
ENDBRANCH  17  21
ENDBRANCH  10  13
ENDBRANCH   8   9
ENDBRANCH   7   8
ENDBRANCH   2   3
TORSDOF 6
ENDMDL
MODEL        8
REMARK 921   NORMALIZED FREE ENERGY PREDICTED BY IDOCK:   -6.17 KCAL/MOL
REMARK 922        TOTAL FREE ENERGY PREDICTED BY IDOCK:   -9.42 KCAL/MOL
REMARK 923 INTER-LIGAND FREE ENERGY PREDICTED BY IDOCK:   -8.19 KCAL/MOL
REMARK 924 INTRA-LIGAND FREE ENERGY PREDICTED BY IDOCK:   -1.23 KCAL/MOL
REMARK 927      BINDING AFFINITY PREDICTED BY RF-SCORE:    0.00 PKD
ROOT
HETATM    1  C   UNL     1     -13.810   7.661  71.689  1.00  0.00    -0.480 C  
HETATM    2  C   UNL     1     -12.642   6.966  70.995  1.00  0.00    -0.265 C  
ENDROOT
BRANCH   2   3
HETATM    3  N   UNL     1     -11.465   7.837  70.846  1.00  0.00    -0.279 NA 
HETATM    4  C   UNL     1     -10.936   8.283  72.139  1.00  0.00    -0.326 C  
HETATM    5  C   UNL     1      -9.541   8.751  71.784  1.00  0.00    -0.371 C  
HETATM    6  C   UNL     1      -9.068   7.721  70.776  1.00  0.00    -0.149 C  
HETATM    7  C   UNL     1     -10.348   7.133  70.161  1.00  0.00    -0.206 C  
BRANCH   7   8
HETATM    8  C   UNL     1     -10.396   7.334  68.629  1.00  0.00    -0.193 C  
BRANCH   8   9
HETATM    9  N   UNL     1     -10.936   8.624  68.213  1.00  0.00    -0.450 N  
HETATM   10  C   UNL     1     -10.124   9.647  67.750  1.00  0.00    -0.187 C  
HETATM   11  H   UNL     1     -11.943   8.778  68.264  1.00  0.00     0.000 HD 
HETATM   12  O   UNL     1      -8.905   9.536  67.707  1.00  0.00    -0.120 OA 
BRANCH  10  13
HETATM   13  C   UNL     1     -10.822  10.912  67.327  1.00  0.00    -0.342 A  
HETATM   14  C   UNL     1     -11.331  11.827  68.278  1.00  0.00    -0.282 A  
HETATM   15  C   UNL     1     -11.989  12.987  67.833  1.00  0.00    -0.338 A  
HETATM   16  C   UNL     1     -11.013  11.166  65.955  1.00  0.00    -0.189 A  
HETATM   17  C   UNL     1     -11.664  12.330  65.540  1.00  0.00    -0.377 A  
HETATM   18  C   UNL     1     -12.156  13.240  66.472  1.00  0.00    -0.435 A  
BRANCH  14  19
HETATM   19  O   UNL     1     -11.137  11.549  69.605  1.00  0.00    -0.226 OA 
HETATM   20  C   UNL     1     -12.280  11.304  70.415  1.00  0.00    -0.365 C  
ENDBRANCH  14  19
BRANCH  17  21
HETATM   21  S   UNL     1     -11.937  12.628  63.816  1.00  0.00    -0.553 S  
HETATM   22  O   UNL     1     -13.185  12.019  63.424  1.00  0.00    -0.687 OA 
HETATM   23  N   UNL     1     -12.192  14.283  63.788  1.00  0.00    -1.019 N  
HETATM   24  O   UNL     1     -10.701  12.403  63.100  1.00  0.00    -0.352 OA 
HETATM   25  H1  UNL     1     -12.349  14.455  62.795  1.00  0.00     0.000 HD 
HETATM   26  H2  UNL     1     -12.190  14.947  64.563  1.00  0.00     0.000 HD 
ENDBRANCH  17  21
ENDBRANCH  10  13
ENDBRANCH   8   9
ENDBRANCH   7   8
ENDBRANCH   2   3
TORSDOF 6
ENDMDL
MODEL        9
REMARK 921   NORMALIZED FREE ENERGY PREDICTED BY IDOCK:   -6.17 KCAL/MOL
REMARK 922        TOTAL FREE ENERGY PREDICTED BY IDOCK:   -9.41 KCAL/MOL
REMARK 923 INTER-LIGAND FREE ENERGY PREDICTED BY IDOCK:   -8.41 KCAL/MOL
REMARK 924 INTRA-LIGAND FREE ENERGY PREDICTED BY IDOCK:   -1.01 KCAL/MOL
REMARK 927      BINDING AFFINITY PREDICTED BY RF-SCORE:    0.00 PKD
ROOT
HETATM    1  C   UNL     1      -9.897   8.048  73.033  1.00  0.00    -0.352 C  
HETATM    2  C   UNL     1     -10.522   7.470  71.766  1.00  0.00    -0.193 C  
ENDROOT
BRANCH   2   3
HETATM    3  N   UNL     1     -11.671   8.254  71.286  1.00  0.00    -0.279 NA 
HETATM    4  C   UNL     1     -12.846   8.105  72.150  1.00  0.00    -0.281 C  
HETATM    5  C   UNL     1     -13.702   9.288  71.755  1.00  0.00    -0.443 C  
HETATM    6  C   UNL     1     -12.695  10.407  71.568  1.00  0.00    -0.564 C  
HETATM    7  C   UNL     1     -11.363   9.709  71.252  1.00  0.00    -0.388 C  
BRANCH   7   8
HETATM    8  C   UNL     1     -10.796  10.144  69.881  1.00  0.00    -0.299 C  
BRANCH   8   9
HETATM    9  N   UNL     1     -10.773  11.588  69.675  1.00  0.00    -0.456 N  
HETATM   10  C   UNL     1     -11.463  12.195  68.637  1.00  0.00    -0.296 C  
HETATM   11  H   UNL     1     -10.233  12.170  70.314  1.00  0.00     0.000 HD 
HETATM   12  O   UNL     1     -12.094  11.544  67.814  1.00  0.00    -0.626 OA 
BRANCH  10  13
HETATM   13  C   UNL     1     -11.372  13.695  68.564  1.00  0.00    -0.325 A  
HETATM   14  C   UNL     1     -11.830  14.515  69.622  1.00  0.00    -0.318 A  
HETATM   15  C   UNL     1     -11.738  15.912  69.500  1.00  0.00    -0.331 A  
HETATM   16  C   UNL     1     -10.864  14.297  67.396  1.00  0.00    -0.288 A  
HETATM   17  C   UNL     1     -10.778  15.688  67.303  1.00  0.00    -0.305 A  
HETATM   18  C   UNL     1     -11.215  16.498  68.347  1.00  0.00    -0.280 A  
BRANCH  14  19
HETATM   19  O   UNL     1     -12.326  13.901  70.742  1.00  0.00    -0.338 OA 
HETATM   20  C   UNL     1     -13.314  14.586  71.501  1.00  0.00    -0.362 C  
ENDBRANCH  14  19
BRANCH  17  21
HETATM   21  S   UNL     1     -10.175  16.443  65.819  1.00  0.00    -0.322 S  
HETATM   22  O   UNL     1     -10.960  15.978  64.701  1.00  0.00    -0.590 OA 
HETATM   23  N   UNL     1     -10.594  18.047  66.053  1.00  0.00    -0.339 N  
HETATM   24  O   UNL     1      -8.730  16.403  65.826  1.00  0.00    -0.432 OA 
HETATM   25  H1  UNL     1     -10.247  18.482  65.199  1.00  0.00     0.000 HD 
HETATM   26  H2  UNL     1     -11.072  18.478  66.845  1.00  0.00     0.000 HD 
ENDBRANCH  17  21
ENDBRANCH  10  13
ENDBRANCH   8   9
ENDBRANCH   7   8
ENDBRANCH   2   3
TORSDOF 6
ENDMDL
MODEL       10
REMARK 921   NORMALIZED FREE ENERGY PREDICTED BY IDOCK:   -6.10 KCAL/MOL
REMARK 922        TOTAL FREE ENERGY PREDICTED BY IDOCK:   -9.32 KCAL/MOL
REMARK 923 INTER-LIGAND FREE ENERGY PREDICTED BY IDOCK:   -8.58 KCAL/MOL
REMARK 924 INTRA-LIGAND FREE ENERGY PREDICTED BY IDOCK:   -0.74 KCAL/MOL
REMARK 927      BINDING AFFINITY PREDICTED BY RF-SCORE:    0.00 PKD
ROOT
HETATM    1  C   UNL     1      -6.573  20.859  67.868  1.00  0.00    -0.358 C  
HETATM    2  C   UNL     1      -7.363  19.807  68.642  1.00  0.00    -0.307 C  
ENDROOT
BRANCH   2   3
HETATM    3  N   UNL     1      -8.750  19.672  68.170  1.00  0.00    -0.316 NA 
HETATM    4  C   UNL     1      -9.073  20.631  67.110  1.00  0.00    -0.267 C  
HETATM    5  C   UNL     1     -10.319  20.036  66.491  1.00  0.00    -0.572 C  
HETATM    6  C   UNL     1     -10.034  18.547  66.482  1.00  0.00    -0.401 C  
HETATM    7  C   UNL     1      -9.003  18.322  67.600  1.00  0.00    -0.266 C  
BRANCH   7   8
HETATM    8  C   UNL     1      -9.521  17.334  68.671  1.00  0.00    -0.278 C  
BRANCH   8   9
HETATM    9  N   UNL     1      -9.871  16.017  68.150  1.00  0.00    -0.220 N  
HETATM   10  C   UNL     1     -11.141  15.481  68.294  1.00  0.00    -0.322 C  
HETATM   11  H   UNL     1      -9.159  15.473  67.664  1.00  0.00     0.000 HD 
HETATM   12  O   UNL     1     -12.025  16.069  68.904  1.00  0.00    -0.348 OA 
BRANCH  10  13
HETATM   13  C   UNL     1     -11.366  14.125  67.681  1.00  0.00    -0.342 A  
HETATM   14  C   UNL     1     -11.321  12.946  68.461  1.00  0.00    -0.289 A  
HETATM   15  C   UNL     1     -11.522  11.702  67.838  1.00  0.00    -0.381 A  
HETATM   16  C   UNL     1     -11.578  14.026  66.292  1.00  0.00    -0.379 A  
HETATM   17  C   UNL     1     -11.782  12.777  65.700  1.00  0.00    -0.399 A  
HETATM   18  C   UNL     1     -11.751  11.615  66.466  1.00  0.00    -0.034 A  
BRANCH  14  19
HETATM   19  O   UNL     1     -11.105  13.074  69.807  1.00  0.00    -0.026 OA 
HETATM   20  C   UNL     1     -12.224  12.973  70.679  1.00  0.00    -0.307 C  
ENDBRANCH  14  19
BRANCH  17  21
HETATM   21  S   UNL     1     -12.010  12.652  63.948  1.00  0.00    -0.525 S  
HETATM   22  O   UNL     1     -13.209  11.894  63.682  1.00  0.00    -0.675 OA 
HETATM   23  N   UNL     1     -12.353  14.237  63.531  1.00  0.00    -1.122 N  
HETATM   24  O   UNL     1     -10.740  12.343  63.331  1.00  0.00    -0.446 OA 
HETATM   25  H1  UNL     1     -12.484  14.165  62.522  1.00  0.00     0.000 HD 
HETATM   26  H2  UNL     1     -12.414  15.061  64.129  1.00  0.00     0.000 HD 
ENDBRANCH  17  21
ENDBRANCH  10  13
ENDBRANCH   8   9
ENDBRANCH   7   8
ENDBRANCH   2   3
TORSDOF 6
ENDMDL
MODEL       11
REMARK 921   NORMALIZED FREE ENERGY PREDICTED BY IDOCK:   -5.98 KCAL/MOL
REMARK 922        TOTAL FREE ENERGY PREDICTED BY IDOCK:   -9.16 KCAL/MOL
REMARK 923 INTER-LIGAND FREE ENERGY PREDICTED BY IDOCK:   -8.28 KCAL/MOL
REMARK 924 INTRA-LIGAND FREE ENERGY PREDICTED BY IDOCK:   -0.88 KCAL/MOL
REMARK 927      BINDING AFFINITY PREDICTED BY RF-SCORE:    0.00 PKD
ROOT
HETATM    1  C   UNL     1     -10.768  10.276  67.162  1.00  0.00    -0.303 C  
HETATM    2  C   UNL     1     -11.404  11.650  66.973  1.00  0.00    -0.305 C  
ENDROOT
BRANCH   2   3
HETATM    3  N   UNL     1     -11.161  12.213  65.636  1.00  0.00    -0.324 NA 
HETATM    4  C   UNL     1     -10.698  11.201  64.681  1.00  0.00    -0.280 C  
HETATM    5  C   UNL     1     -10.947  11.866  63.345  1.00  0.00    -0.470 C  
HETATM    6  C   UNL     1     -12.278  12.567  63.540  1.00  0.00    -0.652 C  
HETATM    7  C   UNL     1     -12.401  12.796  65.055  1.00  0.00    -0.499 C  
BRANCH   7   8
HETATM    8  C   UNL     1     -12.547  14.296  65.401  1.00  0.00    -0.410 C  
BRANCH   8   9
HETATM    9  N   UNL     1     -11.358  14.889  66.003  1.00  0.00    -0.333 N  
HETATM   10  C   UNL     1     -10.715  15.981  65.443  1.00  0.00    -0.383 C  
HETATM   11  H   UNL     1     -10.987  14.487  66.864  1.00  0.00     0.000 HD 
HETATM   12  O   UNL     1     -11.089  16.479  64.388  1.00  0.00    -0.894 OA 
BRANCH  10  13
HETATM   13  C   UNL     1      -9.518  16.505  66.189  1.00  0.00    -0.347 A  
HETATM   14  C   UNL     1      -8.605  15.632  66.826  1.00  0.00    -0.274 A  
HETATM   15  C   UNL     1      -7.511  16.172  67.524  1.00  0.00    -0.179 A  
HETATM   16  C   UNL     1      -9.329  17.897  66.295  1.00  0.00    -0.213 A  
HETATM   17  C   UNL     1      -8.229  18.407  66.988  1.00  0.00    -0.247 A  
HETATM   18  C   UNL     1      -7.321  17.550  67.607  1.00  0.00    -0.192 A  
BRANCH  14  19
HETATM   19  O   UNL     1      -8.819  14.285  66.712  1.00  0.00    -0.233 OA 
HETATM   20  C   UNL     1      -8.008  13.408  67.484  1.00  0.00    -0.183 C  
ENDBRANCH  14  19
BRANCH  17  21
HETATM   21  S   UNL     1      -8.015  20.156  67.153  1.00  0.00    -0.336 S  
HETATM   22  O   UNL     1      -6.936  20.415  68.075  1.00  0.00    -0.294 OA 
HETATM   23  N   UNL     1      -7.448  20.579  65.634  1.00  0.00    -0.531 N  
HETATM   24  O   UNL     1      -9.315  20.778  67.280  1.00  0.00    -0.397 OA 
HETATM   25  H1  UNL     1      -7.325  21.587  65.729  1.00  0.00     0.000 HD 
HETATM   26  H2  UNL     1      -7.272  19.983  64.825  1.00  0.00     0.000 HD 
ENDBRANCH  17  21
ENDBRANCH  10  13
ENDBRANCH   8   9
ENDBRANCH   7   8
ENDBRANCH   2   3
TORSDOF 6
ENDMDL
MODEL       12
REMARK 921   NORMALIZED FREE ENERGY PREDICTED BY IDOCK:   -5.97 KCAL/MOL
REMARK 922        TOTAL FREE ENERGY PREDICTED BY IDOCK:   -9.15 KCAL/MOL
REMARK 923 INTER-LIGAND FREE ENERGY PREDICTED BY IDOCK:   -8.47 KCAL/MOL
REMARK 924 INTRA-LIGAND FREE ENERGY PREDICTED BY IDOCK:   -0.68 KCAL/MOL
REMARK 927      BINDING AFFINITY PREDICTED BY RF-SCORE:    0.00 PKD
ROOT
HETATM    1  C   UNL     1     -14.347   7.526  71.669  1.00  0.00    -0.621 C  
HETATM    2  C   UNL     1     -14.127   8.946  72.182  1.00  0.00    -0.429 C  
ENDROOT
BRANCH   2   3
HETATM    3  N   UNL     1     -12.705   9.317  72.249  1.00  0.00    -0.379 NA 
HETATM    4  C   UNL     1     -11.831   8.147  72.377  1.00  0.00    -0.388 C  
HETATM    5  C   UNL     1     -10.478   8.697  71.980  1.00  0.00    -0.422 C  
HETATM    6  C   UNL     1     -10.799   9.623  70.822  1.00  0.00    -0.400 C  
HETATM    7  C   UNL     1     -12.268  10.028  71.018  1.00  0.00    -0.365 C  
BRANCH   7   8
HETATM    8  C   UNL     1     -12.430  11.560  71.153  1.00  0.00    -0.337 C  
BRANCH   8   9
HETATM    9  N   UNL     1     -11.963  12.315  69.995  1.00  0.00    -0.374 N  
HETATM   10  C   UNL     1     -12.260  13.657  69.821  1.00  0.00    -0.291 C  
HETATM   11  H   UNL     1     -11.399  11.839  69.290  1.00  0.00     0.000 HD 
HETATM   12  O   UNL     1     -12.967  14.269  70.612  1.00  0.00    -0.338 OA 
BRANCH  10  13
HETATM   13  C   UNL     1     -11.686  14.313  68.594  1.00  0.00    -0.380 A  
HETATM   14  C   UNL     1     -11.586  13.620  67.365  1.00  0.00    -0.356 A  
HETATM   15  C   UNL     1     -11.029  14.272  66.252  1.00  0.00    -0.317 A  
HETATM   16  C   UNL     1     -11.196  15.631  68.686  1.00  0.00    -0.338 A  
HETATM   17  C   UNL     1     -10.653  16.258  67.561  1.00  0.00    -0.310 A  
HETATM   18  C   UNL     1     -10.563  15.583  66.346  1.00  0.00    -0.312 A  
BRANCH  14  19
HETATM   19  O   UNL     1     -12.065  12.339  67.309  1.00  0.00    -0.548 OA 
HETATM   20  C   UNL     1     -11.251  11.343  66.702  1.00  0.00    -0.231 C  
ENDBRANCH  14  19
BRANCH  17  21
HETATM   21  S   UNL     1     -10.001  17.899  67.688  1.00  0.00    -0.340 S  
HETATM   22  O   UNL     1     -10.830  18.796  66.919  1.00  0.00    -0.379 OA 
HETATM   23  N   UNL     1     -10.287  18.260  69.299  1.00  0.00    -0.377 N  
HETATM   24  O   UNL     1      -8.564  17.846  67.540  1.00  0.00    -0.236 OA 
HETATM   25  H1  UNL     1      -9.911  19.205  69.372  1.00  0.00     0.000 HD 
HETATM   26  H2  UNL     1     -10.722  17.684  70.019  1.00  0.00     0.000 HD 
ENDBRANCH  17  21
ENDBRANCH  10  13
ENDBRANCH   8   9
ENDBRANCH   7   8
ENDBRANCH   2   3
TORSDOF 6
ENDMDL
MODEL       13
REMARK 921   NORMALIZED FREE ENERGY PREDICTED BY IDOCK:   -5.95 KCAL/MOL
REMARK 922        TOTAL FREE ENERGY PREDICTED BY IDOCK:   -9.12 KCAL/MOL
REMARK 923 INTER-LIGAND FREE ENERGY PREDICTED BY IDOCK:   -8.10 KCAL/MOL
REMARK 924 INTRA-LIGAND FREE ENERGY PREDICTED BY IDOCK:   -1.02 KCAL/MOL
REMARK 927      BINDING AFFINITY PREDICTED BY RF-SCORE:    0.00 PKD
ROOT
HETATM    1  C   UNL     1     -13.100  10.329  71.681  1.00  0.00    -0.553 C  
HETATM    2  C   UNL     1     -11.673  10.190  71.161  1.00  0.00    -0.366 C  
ENDROOT
BRANCH   2   3
HETATM    3  N   UNL     1     -11.161   8.814  71.255  1.00  0.00    -0.264 NA 
HETATM    4  C   UNL     1     -11.917   8.004  72.215  1.00  0.00    -0.358 C  
HETATM    5  C   UNL     1     -11.541   6.590  71.827  1.00  0.00    -0.359 C  
HETATM    6  C   UNL     1     -11.514   6.635  70.311  1.00  0.00    -0.449 C  
HETATM    7  C   UNL     1     -11.255   8.106  69.950  1.00  0.00    -0.028 C  
BRANCH   7   8
HETATM    8  C   UNL     1      -9.968   8.275  69.111  1.00  0.00    -0.196 C  
BRANCH   8   9
HETATM    9  N   UNL     1     -10.185   8.865  67.795  1.00  0.00    -0.214 N  
HETATM   10  C   UNL     1      -9.937  10.204  67.538  1.00  0.00    -0.191 C  
HETATM   11  H   UNL     1     -10.531   8.274  67.039  1.00  0.00     0.000 HD 
HETATM   12  O   UNL     1      -9.562  10.972  68.415  1.00  0.00    -0.167 OA 
BRANCH  10  13
HETATM   13  C   UNL     1     -10.178  10.668  66.126  1.00  0.00    -0.308 A  
HETATM   14  C   UNL     1      -9.591  10.008  65.022  1.00  0.00    -0.297 A  
HETATM   15  C   UNL     1      -9.835  10.489  63.724  1.00  0.00    -0.363 A  
HETATM   16  C   UNL     1     -10.968  11.813  65.905  1.00  0.00    -0.354 A  
HETATM   17  C   UNL     1     -11.200  12.266  64.604  1.00  0.00    -0.315 A  
HETATM   18  C   UNL     1     -10.634  11.612  63.513  1.00  0.00    -0.496 A  
BRANCH  14  19
HETATM   19  O   UNL     1      -8.822   8.902  65.269  1.00  0.00    -0.191 OA 
HETATM   20  C   UNL     1      -7.442   8.955  64.932  1.00  0.00    -0.098 C  
ENDBRANCH  14  19
BRANCH  17  21
HETATM   21  S   UNL     1     -12.161  13.728  64.331  1.00  0.00    -0.426 S  
HETATM   22  O   UNL     1     -13.064  13.914  65.442  1.00  0.00    -0.752 OA 
HETATM   23  N   UNL     1     -11.002  14.931  64.461  1.00  0.00    -0.638 N  
HETATM   24  O   UNL     1     -12.604  13.748  62.955  1.00  0.00    -0.721 OA 
HETATM   25  H1  UNL     1     -11.556  15.773  64.304  1.00  0.00     0.000 HD 
HETATM   26  H2  UNL     1     -10.004  14.844  64.648  1.00  0.00     0.000 HD 
ENDBRANCH  17  21
ENDBRANCH  10  13
ENDBRANCH   8   9
ENDBRANCH   7   8
ENDBRANCH   2   3
TORSDOF 6
ENDMDL
MODEL       14
REMARK 921   NORMALIZED FREE ENERGY PREDICTED BY IDOCK:   -5.94 KCAL/MOL
REMARK 922        TOTAL FREE ENERGY PREDICTED BY IDOCK:   -9.10 KCAL/MOL
REMARK 923 INTER-LIGAND FREE ENERGY PREDICTED BY IDOCK:   -8.31 KCAL/MOL
REMARK 924 INTRA-LIGAND FREE ENERGY PREDICTED BY IDOCK:   -0.79 KCAL/MOL
REMARK 927      BINDING AFFINITY PREDICTED BY RF-SCORE:    0.00 PKD
ROOT
HETATM    1  C   UNL     1     -12.026  12.753  63.356  1.00  0.00    -0.613 C  
HETATM    2  C   UNL     1     -12.373  13.973  64.205  1.00  0.00    -0.332 C  
ENDROOT
BRANCH   2   3
HETATM    3  N   UNL     1     -11.212  14.513  64.929  1.00  0.00    -0.373 NA 
HETATM    4  C   UNL     1     -11.052  15.956  64.725  1.00  0.00    -0.384 C  
HETATM    5  C   UNL     1     -10.137  16.354  65.863  1.00  0.00    -0.370 C  
HETATM    6  C   UNL     1     -10.644  15.528  67.030  1.00  0.00    -0.311 C  
HETATM    7  C   UNL     1     -11.344  14.314  66.397  1.00  0.00    -0.343 C  
BRANCH   7   8
HETATM    8  C   UNL     1     -10.709  12.981  66.855  1.00  0.00    -0.262 C  
BRANCH   8   9
HETATM    9  N   UNL     1     -11.406  12.336  67.963  1.00  0.00    -0.270 N  
HETATM   10  C   UNL     1     -10.749  11.526  68.875  1.00  0.00    -0.207 C  
HETATM   11  H   UNL     1     -12.409  12.486  68.069  1.00  0.00     0.000 HD 
HETATM   12  O   UNL     1      -9.555  11.276  68.773  1.00  0.00    -0.192 OA 
BRANCH  10  13
HETATM   13  C   UNL     1     -11.590  10.952  69.983  1.00  0.00    -0.424 A  
HETATM   14  C   UNL     1     -12.405  11.775  70.795  1.00  0.00    -0.337 A  
HETATM   15  C   UNL     1     -13.160  11.192  71.827  1.00  0.00    -0.536 A  
HETATM   16  C   UNL     1     -11.527   9.569  70.247  1.00  0.00    -0.256 A  
HETATM   17  C   UNL     1     -12.293   9.015  71.275  1.00  0.00    -0.302 A  
HETATM   18  C   UNL     1     -13.106   9.820  72.068  1.00  0.00    -0.546 A  
BRANCH  14  19
HETATM   19  O   UNL     1     -12.439  13.116  70.518  1.00  0.00    -0.313 OA 
HETATM   20  C   UNL     1     -12.847  14.004  71.551  1.00  0.00    -0.362 C  
ENDBRANCH  14  19
BRANCH  17  21
HETATM   21  S   UNL     1     -12.183   7.284  71.630  1.00  0.00    -0.360 S  
HETATM   22  O   UNL     1     -11.381   7.095  72.816  1.00  0.00    -0.284 OA 
HETATM   23  N   UNL     1     -13.759   6.920  72.065  1.00  0.00    -0.532 N  
HETATM   24  O   UNL     1     -11.933   6.568  70.399  1.00  0.00    -0.397 OA 
HETATM   25  H1  UNL     1     -13.695   5.922  72.269  1.00  0.00     0.000 HD 
HETATM   26  H2  UNL     1     -14.571   7.535  72.112  1.00  0.00     0.000 HD 
ENDBRANCH  17  21
ENDBRANCH  10  13
ENDBRANCH   8   9
ENDBRANCH   7   8
ENDBRANCH   2   3
TORSDOF 6
ENDMDL
MODEL       15
REMARK 921   NORMALIZED FREE ENERGY PREDICTED BY IDOCK:   -5.90 KCAL/MOL
REMARK 922        TOTAL FREE ENERGY PREDICTED BY IDOCK:   -9.06 KCAL/MOL
REMARK 923 INTER-LIGAND FREE ENERGY PREDICTED BY IDOCK:   -8.38 KCAL/MOL
REMARK 924 INTRA-LIGAND FREE ENERGY PREDICTED BY IDOCK:   -0.67 KCAL/MOL
REMARK 927      BINDING AFFINITY PREDICTED BY RF-SCORE:    0.00 PKD
ROOT
HETATM    1  C   UNL     1      -9.936  20.207  67.524  1.00  0.00    -0.571 C  
HETATM    2  C   UNL     1      -9.893  19.482  66.182  1.00  0.00    -0.412 C  
ENDROOT
BRANCH   2   3
HETATM    3  N   UNL     1      -8.730  18.591  66.051  1.00  0.00    -0.497 NA 
HETATM    4  C   UNL     1      -7.461  19.300  66.244  1.00  0.00    -0.271 C  
HETATM    5  C   UNL     1      -6.488  18.172  66.514  1.00  0.00    -0.235 C  
HETATM    6  C   UNL     1      -7.282  17.222  67.390  1.00  0.00    -0.183 C  
HETATM    7  C   UNL     1      -8.758  17.505  67.067  1.00  0.00    -0.240 C  
BRANCH   7   8
HETATM    8  C   UNL     1      -9.484  16.245  66.542  1.00  0.00    -0.264 C  
BRANCH   8   9
HETATM    9  N   UNL     1      -9.995  15.369  67.590  1.00  0.00    -0.225 N  
HETATM   10  C   UNL     1     -11.138  14.605  67.419  1.00  0.00    -0.326 C  
HETATM   11  H   UNL     1      -9.495  15.317  68.477  1.00  0.00     0.000 HD 
HETATM   12  O   UNL     1     -11.803  14.658  66.392  1.00  0.00    -0.365 OA 
BRANCH  10  13
HETATM   13  C   UNL     1     -11.531  13.725  68.575  1.00  0.00    -0.342 A  
HETATM   14  C   UNL     1     -11.292  12.331  68.557  1.00  0.00    -0.286 A  
HETATM   15  C   UNL     1     -11.692  11.550  69.655  1.00  0.00    -0.419 A  
HETATM   16  C   UNL     1     -12.194  14.297  69.679  1.00  0.00    -0.371 A  
HETATM   17  C   UNL     1     -12.574  13.498  70.761  1.00  0.00    -0.309 A  
HETATM   18  C   UNL     1     -12.330  12.128  70.752  1.00  0.00    -0.391 A  
BRANCH  14  19
HETATM   19  O   UNL     1     -10.653  11.803  67.467  1.00  0.00    -0.203 OA 
HETATM   20  C   UNL     1     -10.860  10.429  67.167  1.00  0.00    -0.238 C  
ENDBRANCH  14  19
BRANCH  17  21
HETATM   21  S   UNL     1     -13.442  14.212  72.129  1.00  0.00    -0.502 S  
HETATM   22  O   UNL     1     -12.495  14.876  72.993  1.00  0.00    -0.372 OA 
HETATM   23  N   UNL     1     -14.327  15.423  71.383  1.00  0.00    -0.681 N  
HETATM   24  O   UNL     1     -14.409  13.257  72.621  1.00  0.00    -0.679 OA 
HETATM   25  H1  UNL     1     -14.827  15.834  72.171  1.00  0.00     0.000 HD 
HETATM   26  H2  UNL     1     -14.358  15.681  70.397  1.00  0.00     0.000 HD 
ENDBRANCH  17  21
ENDBRANCH  10  13
ENDBRANCH   8   9
ENDBRANCH   7   8
ENDBRANCH   2   3
TORSDOF 6
ENDMDL
MODEL       16
REMARK 921   NORMALIZED FREE ENERGY PREDICTED BY IDOCK:   -5.88 KCAL/MOL
REMARK 922        TOTAL FREE ENERGY PREDICTED BY IDOCK:   -9.02 KCAL/MOL
REMARK 923 INTER-LIGAND FREE ENERGY PREDICTED BY IDOCK:   -7.87 KCAL/MOL
REMARK 924 INTRA-LIGAND FREE ENERGY PREDICTED BY IDOCK:   -1.16 KCAL/MOL
REMARK 927      BINDING AFFINITY PREDICTED BY RF-SCORE:    0.00 PKD
ROOT
HETATM    1  C   UNL     1      -9.692  20.090  65.987  1.00  0.00    -0.464 C  
HETATM    2  C   UNL     1      -8.203  19.987  66.305  1.00  0.00    -0.292 C  
ENDROOT
BRANCH   2   3
HETATM    3  N   UNL     1      -7.780  18.613  66.618  1.00  0.00    -0.239 NA 
HETATM    4  C   UNL     1      -6.626  18.191  65.818  1.00  0.00    -0.278 C  
HETATM    5  C   UNL     1      -6.105  16.997  66.589  1.00  0.00    -0.231 C  
HETATM    6  C   UNL     1      -6.257  17.418  68.038  1.00  0.00    -0.149 C  
HETATM    7  C   UNL     1      -7.370  18.479  68.041  1.00  0.00    -0.248 C  
BRANCH   7   8
HETATM    8  C   UNL     1      -8.555  18.066  68.944  1.00  0.00    -0.112 C  
BRANCH   8   9
HETATM    9  N   UNL     1      -9.166  16.791  68.582  1.00  0.00    -0.249 N  
HETATM   10  C   UNL     1     -10.428  16.714  68.016  1.00  0.00    -0.320 C  
HETATM   11  H   UNL     1      -8.648  15.930  68.752  1.00  0.00     0.000 HD 
HETATM   12  O   UNL     1     -11.114  17.711  67.828  1.00  0.00    -0.220 OA 
BRANCH  10  13
HETATM   13  C   UNL     1     -10.919  15.334  67.668  1.00  0.00    -0.311 A  
HETATM   14  C   UNL     1     -11.077  14.336  68.657  1.00  0.00    -0.253 A  
HETATM   15  C   UNL     1     -11.523  13.058  68.280  1.00  0.00    -0.347 A  
HETATM   16  C   UNL     1     -11.181  15.017  66.321  1.00  0.00    -0.309 A  
HETATM   17  C   UNL     1     -11.631  13.741  65.973  1.00  0.00    -0.346 A  
HETATM   18  C   UNL     1     -11.799  12.759  66.946  1.00  0.00    -0.440 A  
BRANCH  14  19
HETATM   19  O   UNL     1     -10.807  14.671  69.957  1.00  0.00    -0.178 OA 
HETATM   20  C   UNL     1     -11.894  14.750  70.870  1.00  0.00    -0.322 C  
ENDBRANCH  14  19
BRANCH  17  21
HETATM   21  S   UNL     1     -11.922  13.334  64.275  1.00  0.00    -0.439 S  
HETATM   22  O   UNL     1     -13.092  12.492  64.186  1.00  0.00    -0.751 OA 
HETATM   23  N   UNL     1     -12.361  14.818  63.635  1.00  0.00    -1.067 N  
HETATM   24  O   UNL     1     -10.664  12.988  63.653  1.00  0.00    -0.299 OA 
HETATM   25  H1  UNL     1     -12.529  14.584  62.657  1.00  0.00     0.000 HD 
HETATM   26  H2  UNL     1     -12.440  15.722  64.102  1.00  0.00     0.000 HD 
ENDBRANCH  17  21
ENDBRANCH  10  13
ENDBRANCH   8   9
ENDBRANCH   7   8
ENDBRANCH   2   3
TORSDOF 6
ENDMDL
MODEL       17
REMARK 921   NORMALIZED FREE ENERGY PREDICTED BY IDOCK:   -5.88 KCAL/MOL
REMARK 922        TOTAL FREE ENERGY PREDICTED BY IDOCK:   -9.02 KCAL/MOL
REMARK 923 INTER-LIGAND FREE ENERGY PREDICTED BY IDOCK:   -8.08 KCAL/MOL
REMARK 924 INTRA-LIGAND FREE ENERGY PREDICTED BY IDOCK:   -0.94 KCAL/MOL
REMARK 927      BINDING AFFINITY PREDICTED BY RF-SCORE:    0.00 PKD
ROOT
HETATM    1  C   UNL     1      -7.970   8.386  72.219  1.00  0.00    -0.172 C  
HETATM    2  C   UNL     1      -9.456   8.437  72.563  1.00  0.00    -0.289 C  
ENDROOT
BRANCH   2   3
HETATM    3  N   UNL     1     -10.316   7.994  71.455  1.00  0.00    -0.197 NA 
HETATM    4  C   UNL     1     -10.248   6.545  71.244  1.00  0.00    -0.198 C  
HETATM    5  C   UNL     1     -11.486   6.270  70.418  1.00  0.00    -0.414 C  
HETATM    6  C   UNL     1     -12.534   7.174  71.040  1.00  0.00    -0.359 C  
HETATM    7  C   UNL     1     -11.746   8.309  71.713  1.00  0.00    -0.302 C  
BRANCH   7   8
HETATM    8  C   UNL     1     -12.139   9.695  71.150  1.00  0.00    -0.362 C  
BRANCH   8   9
HETATM    9  N   UNL     1     -11.840   9.871  69.733  1.00  0.00    -0.463 N  
HETATM   10  C   UNL     1     -11.558  11.114  69.189  1.00  0.00    -0.324 C  
HETATM   11  H   UNL     1     -11.839   9.054  69.123  1.00  0.00     0.000 HD 
HETATM   12  O   UNL     1     -11.586  12.136  69.863  1.00  0.00    -0.285 OA 
BRANCH  10  13
HETATM   13  C   UNL     1     -11.239  11.140  67.718  1.00  0.00    -0.359 A  
HETATM   14  C   UNL     1     -10.370  10.190  67.134  1.00  0.00    -0.238 A  
HETATM   15  C   UNL     1     -10.092  10.266  65.758  1.00  0.00    -0.325 A  
HETATM   16  C   UNL     1     -11.781  12.164  66.916  1.00  0.00    -0.374 A  
HETATM   17  C   UNL     1     -11.494  12.213  65.550  1.00  0.00    -0.343 A  
HETATM   18  C   UNL     1     -10.648  11.271  64.968  1.00  0.00    -0.353 A  
BRANCH  14  19
HETATM   19  O   UNL     1      -9.852   9.212  67.940  1.00  0.00    -0.156 OA 
HETATM   20  C   UNL     1      -9.619   7.928  67.375  1.00  0.00    -0.152 C  
ENDBRANCH  14  19
BRANCH  17  21
HETATM   21  S   UNL     1     -12.145  13.522  64.552  1.00  0.00    -0.418 S  
HETATM   22  O   UNL     1     -13.231  14.158  65.258  1.00  0.00    -0.760 OA 
HETATM   23  N   UNL     1     -10.879  14.618  64.551  1.00  0.00    -0.625 N  
HETATM   24  O   UNL     1     -12.269  13.055  63.189  1.00  0.00    -0.607 OA 
HETATM   25  H1  UNL     1     -11.254  15.372  63.976  1.00  0.00     0.000 HD 
HETATM   26  H2  UNL     1      -9.969  14.549  65.006  1.00  0.00     0.000 HD 
ENDBRANCH  17  21
ENDBRANCH  10  13
ENDBRANCH   8   9
ENDBRANCH   7   8
ENDBRANCH   2   3
TORSDOF 6
ENDMDL
MODEL       18
REMARK 921   NORMALIZED FREE ENERGY PREDICTED BY IDOCK:   -5.86 KCAL/MOL
REMARK 922        TOTAL FREE ENERGY PREDICTED BY IDOCK:   -8.99 KCAL/MOL
REMARK 923 INTER-LIGAND FREE ENERGY PREDICTED BY IDOCK:   -8.29 KCAL/MOL
REMARK 924 INTRA-LIGAND FREE ENERGY PREDICTED BY IDOCK:   -0.70 KCAL/MOL
REMARK 927      BINDING AFFINITY PREDICTED BY RF-SCORE:    0.00 PKD
ROOT
HETATM    1  C   UNL     1     -10.347   5.938  72.015  1.00  0.00    -0.250 C  
HETATM    2  C   UNL     1     -11.072   6.139  70.688  1.00  0.00    -0.317 C  
ENDROOT
BRANCH   2   3
HETATM    3  N   UNL     1     -11.929   7.335  70.680  1.00  0.00    -0.262 NA 
HETATM    4  C   UNL     1     -13.095   7.189  71.558  1.00  0.00    -0.375 C  
HETATM    5  C   UNL     1     -13.552   8.620  71.743  1.00  0.00    -0.439 C  
HETATM    6  C   UNL     1     -12.254   9.393  71.873  1.00  0.00    -0.440 C  
HETATM    7  C   UNL     1     -11.195   8.536  71.160  1.00  0.00    -0.267 C  
BRANCH   7   8
HETATM    8  C   UNL     1     -10.523   9.301  69.997  1.00  0.00    -0.226 C  
BRANCH   8   9
HETATM    9  N   UNL     1     -10.751  10.742  70.018  1.00  0.00    -0.465 N  
HETATM   10  C   UNL     1     -11.594  11.367  69.114  1.00  0.00    -0.314 C  
HETATM   11  H   UNL     1     -10.275  11.307  70.721  1.00  0.00     0.000 HD 
HETATM   12  O   UNL     1     -12.159  10.747  68.222  1.00  0.00    -0.496 OA 
BRANCH  10  13
HETATM   13  C   UNL     1     -11.756  12.855  69.273  1.00  0.00    -0.378 A  
HETATM   14  C   UNL     1     -11.390  13.752  68.243  1.00  0.00    -0.285 A  
HETATM   15  C   UNL     1     -11.546  15.134  68.446  1.00  0.00    -0.356 A  
HETATM   16  C   UNL     1     -12.239  13.367  70.494  1.00  0.00    -0.425 A  
HETATM   17  C   UNL     1     -12.391  14.745  70.667  1.00  0.00    -0.337 A  
HETATM   18  C   UNL     1     -12.043  15.630  69.650  1.00  0.00    -0.329 A  
BRANCH  14  19
HETATM   19  O   UNL     1     -10.917  13.225  67.071  1.00  0.00    -0.269 OA 
HETATM   20  C   UNL     1     -11.770  13.243  65.933  1.00  0.00    -0.365 C  
ENDBRANCH  14  19
BRANCH  17  21
HETATM   21  S   UNL     1     -12.961  15.387  72.215  1.00  0.00    -0.431 S  
HETATM   22  O   UNL     1     -14.395  15.541  72.163  1.00  0.00    -0.548 OA 
HETATM   23  N   UNL     1     -12.662  14.106  73.251  1.00  0.00    -0.197 N  
HETATM   24  O   UNL     1     -12.078  16.453  72.634  1.00  0.00    -0.520 OA 
HETATM   25  H1  UNL     1     -12.990  14.476  74.143  1.00  0.00     0.000 HD 
HETATM   26  H2  UNL     1     -12.257  13.193  73.045  1.00  0.00     0.000 HD 
ENDBRANCH  17  21
ENDBRANCH  10  13
ENDBRANCH   8   9
ENDBRANCH   7   8
ENDBRANCH   2   3
TORSDOF 6
ENDMDL
MODEL       19
REMARK 921   NORMALIZED FREE ENERGY PREDICTED BY IDOCK:   -5.85 KCAL/MOL
REMARK 922        TOTAL FREE ENERGY PREDICTED BY IDOCK:   -8.98 KCAL/MOL
REMARK 923 INTER-LIGAND FREE ENERGY PREDICTED BY IDOCK:   -8.13 KCAL/MOL
REMARK 924 INTRA-LIGAND FREE ENERGY PREDICTED BY IDOCK:   -0.85 KCAL/MOL
REMARK 927      BINDING AFFINITY PREDICTED BY RF-SCORE:    0.00 PKD
ROOT
HETATM    1  C   UNL     1     -11.271   6.225  69.796  1.00  0.00    -0.499 C  
HETATM    2  C   UNL     1     -12.253   6.832  70.794  1.00  0.00    -0.297 C  
ENDROOT
BRANCH   2   3
HETATM    3  N   UNL     1     -11.583   7.491  71.926  1.00  0.00    -0.266 NA 
HETATM    4  C   UNL     1     -11.135   6.534  72.941  1.00  0.00    -0.223 C  
HETATM    5  C   UNL     1     -10.125   7.337  73.733  1.00  0.00    -0.375 C  
HETATM    6  C   UNL     1      -9.392   8.130  72.668  1.00  0.00    -0.342 C  
HETATM    7  C   UNL     1     -10.369   8.230  71.487  1.00  0.00    -0.214 C  
BRANCH   7   8
HETATM    8  C   UNL     1     -10.690   9.699  71.127  1.00  0.00    -0.294 C  
BRANCH   8   9
HETATM    9  N   UNL     1     -10.477  10.031  69.723  1.00  0.00    -0.239 N  
HETATM   10  C   UNL     1     -11.475  10.585  68.937  1.00  0.00    -0.226 C  
HETATM   11  H   UNL     1      -9.564   9.850  69.305  1.00  0.00     0.000 HD 
HETATM   12  O   UNL     1     -12.602  10.785  69.371  1.00  0.00    -0.314 OA 
BRANCH  10  13
HETATM   13  C   UNL     1     -11.103  10.902  67.513  1.00  0.00    -0.375 A  
HETATM   14  C   UNL     1     -10.205  10.087  66.785  1.00  0.00    -0.232 A  
HETATM   15  C   UNL     1      -9.878  10.435  65.464  1.00  0.00    -0.332 A  
HETATM   16  C   UNL     1     -11.624  12.064  66.910  1.00  0.00    -0.389 A  
HETATM   17  C   UNL     1     -11.288  12.382  65.592  1.00  0.00    -0.347 A  
HETATM   18  C   UNL     1     -10.414  11.576  64.868  1.00  0.00    -0.345 A  
BRANCH  14  19
HETATM   19  O   UNL     1      -9.709   8.969  67.401  1.00  0.00    -0.153 OA 
HETATM   20  C   UNL     1      -9.371   7.850  66.591  1.00  0.00    -0.193 C  
ENDBRANCH  14  19
BRANCH  17  21
HETATM   21  S   UNL     1     -11.913  13.863  64.849  1.00  0.00    -0.419 S  
HETATM   22  O   UNL     1     -10.860  14.849  64.803  1.00  0.00    -0.394 OA 
HETATM   23  N   UNL     1     -12.169  13.373  63.268  1.00  0.00    -0.920 N  
HETATM   24  O   UNL     1     -13.222  14.145  65.395  1.00  0.00    -0.741 OA 
HETATM   25  H1  UNL     1     -12.529  14.226  62.839  1.00  0.00     0.000 HD 
HETATM   26  H2  UNL     1     -12.007  12.460  62.843  1.00  0.00     0.000 HD 
ENDBRANCH  17  21
ENDBRANCH  10  13
ENDBRANCH   8   9
ENDBRANCH   7   8
ENDBRANCH   2   3
TORSDOF 6
ENDMDL
MODEL       20
REMARK 921   NORMALIZED FREE ENERGY PREDICTED BY IDOCK:   -5.83 KCAL/MOL
REMARK 922        TOTAL FREE ENERGY PREDICTED BY IDOCK:   -8.96 KCAL/MOL
REMARK 923 INTER-LIGAND FREE ENERGY PREDICTED BY IDOCK:   -8.09 KCAL/MOL
REMARK 924 INTRA-LIGAND FREE ENERGY PREDICTED BY IDOCK:   -0.87 KCAL/MOL
REMARK 927      BINDING AFFINITY PREDICTED BY RF-SCORE:    0.00 PKD
ROOT
HETATM    1  C   UNL     1      -9.946   5.284  69.069  1.00  0.00    -0.260 C  
HETATM    2  C   UNL     1     -10.907   6.134  69.894  1.00  0.00    -0.353 C  
ENDROOT
BRANCH   2   3
HETATM    3  N   UNL     1     -10.815   5.863  71.337  1.00  0.00    -0.266 NA 
HETATM    4  C   UNL     1      -9.914   4.747  71.637  1.00  0.00    -0.190 C  
HETATM    5  C   UNL     1      -9.627   4.937  73.111  1.00  0.00    -0.154 C  
HETATM    6  C   UNL     1      -9.489   6.441  73.253  1.00  0.00    -0.148 C  
HETATM    7  C   UNL     1     -10.284   7.037  72.081  1.00  0.00    -0.186 C  
BRANCH   7   8
HETATM    8  C   UNL     1     -11.418   7.968  72.568  1.00  0.00    -0.409 C  
BRANCH   8   9
HETATM    9  N   UNL     1     -11.411   9.291  71.953  1.00  0.00    -0.367 N  
HETATM   10  C   UNL     1     -12.580   9.948  71.606  1.00  0.00    -0.424 C  
HETATM   11  H   UNL     1     -10.517   9.747  71.772  1.00  0.00     0.000 HD 
HETATM   12  O   UNL     1     -13.681   9.433  71.759  1.00  0.00    -0.380 OA 
BRANCH  10  13
HETATM   13  C   UNL     1     -12.422  11.320  71.006  1.00  0.00    -0.503 A  
HETATM   14  C   UNL     1     -11.812  11.507  69.743  1.00  0.00    -0.357 A  
HETATM   15  C   UNL     1     -11.673  12.809  69.233  1.00  0.00    -0.376 A  
HETATM   16  C   UNL     1     -12.847  12.444  71.740  1.00  0.00    -0.350 A  
HETATM   17  C   UNL     1     -12.703  13.727  71.206  1.00  0.00    -0.371 A  
HETATM   18  C   UNL     1     -12.114  13.915  69.959  1.00  0.00    -0.411 A  
BRANCH  14  19
HETATM   19  O   UNL     1     -11.401  10.395  69.057  1.00  0.00    -0.242 OA 
HETATM   20  C   UNL     1     -10.587  10.579  67.906  1.00  0.00    -0.232 C  
ENDBRANCH  14  19
BRANCH  17  21
HETATM   21  S   UNL     1     -13.203  15.141  72.147  1.00  0.00    -0.419 S  
HETATM   22  O   UNL     1     -13.127  14.823  73.553  1.00  0.00    -0.551 OA 
HETATM   23  N   UNL     1     -11.957  16.218  71.840  1.00  0.00    -0.631 N  
HETATM   24  O   UNL     1     -14.384  15.714  71.541  1.00  0.00    -0.507 OA 
HETATM   25  H1  UNL     1     -12.245  17.032  72.382  1.00  0.00     0.000 HD 
HETATM   26  H2  UNL     1     -11.127  16.092  71.262  1.00  0.00     0.000 HD 
ENDBRANCH  17  21
ENDBRANCH  10  13
ENDBRANCH   8   9
ENDBRANCH   7   8
ENDBRANCH   2   3
TORSDOF 6
ENDMDL
MODEL       21
REMARK 921   NORMALIZED FREE ENERGY PREDICTED BY IDOCK:   -5.83 KCAL/MOL
REMARK 922        TOTAL FREE ENERGY PREDICTED BY IDOCK:   -8.95 KCAL/MOL
REMARK 923 INTER-LIGAND FREE ENERGY PREDICTED BY IDOCK:   -8.16 KCAL/MOL
REMARK 924 INTRA-LIGAND FREE ENERGY PREDICTED BY IDOCK:   -0.79 KCAL/MOL
REMARK 927      BINDING AFFINITY PREDICTED BY RF-SCORE:    0.00 PKD
ROOT
HETATM    1  C   UNL     1      -9.768  20.539  67.253  1.00  0.00    -0.600 C  
HETATM    2  C   UNL     1     -10.492  19.197  67.182  1.00  0.00    -0.447 C  
ENDROOT
BRANCH   2   3
HETATM    3  N   UNL     1      -9.586  18.049  67.338  1.00  0.00    -0.268 NA 
HETATM    4  C   UNL     1      -8.217  18.461  67.661  1.00  0.00    -0.254 C  
HETATM    5  C   UNL     1      -7.605  17.188  68.204  1.00  0.00    -0.208 C  
HETATM    6  C   UNL     1      -8.723  16.583  69.031  1.00  0.00    -0.215 C  
HETATM    7  C   UNL     1     -10.023  17.155  68.443  1.00  0.00    -0.310 C  
BRANCH   7   8
HETATM    8  C   UNL     1     -10.967  16.039  67.939  1.00  0.00    -0.327 C  
BRANCH   8   9
HETATM    9  N   UNL     1     -11.395  15.106  68.976  1.00  0.00    -0.276 N  
HETATM   10  C   UNL     1     -11.906  13.853  68.674  1.00  0.00    -0.372 C  
HETATM   11  H   UNL     1     -11.317  15.384  69.954  1.00  0.00     0.000 HD 
HETATM   12  O   UNL     1     -12.063  13.481  67.518  1.00  0.00    -0.357 OA 
BRANCH  10  13
HETATM   13  C   UNL     1     -12.280  12.986  69.846  1.00  0.00    -0.271 A  
HETATM   14  C   UNL     1     -13.012  13.501  70.941  1.00  0.00    -0.154 A  
HETATM   15  C   UNL     1     -13.324  12.655  72.019  1.00  0.00    -0.555 A  
HETATM   16  C   UNL     1     -11.851  11.645  69.873  1.00  0.00    -0.434 A  
HETATM   17  C   UNL     1     -12.180  10.823  70.954  1.00  0.00    -0.384 A  
HETATM   18  C   UNL     1     -12.911  11.323  72.029  1.00  0.00    -0.379 A  
BRANCH  14  19
HETATM   19  O   UNL     1     -13.409  14.811  70.890  1.00  0.00    -0.372 OA 
HETATM   20  C   UNL     1     -14.356  15.264  71.849  1.00  0.00    -0.589 C  
ENDBRANCH  14  19
BRANCH  17  21
HETATM   21  S   UNL     1     -11.606   9.149  71.004  1.00  0.00    -0.324 S  
HETATM   22  O   UNL     1     -10.981   8.902  72.282  1.00  0.00    -0.337 OA 
HETATM   23  N   UNL     1     -13.045   8.291  71.010  1.00  0.00    -0.507 N  
HETATM   24  O   UNL     1     -10.961   8.837  69.748  1.00  0.00    -0.223 OA 
HETATM   25  H1  UNL     1     -12.714   7.327  71.039  1.00  0.00     0.000 HD 
HETATM   26  H2  UNL     1     -14.002   8.642  70.990  1.00  0.00     0.000 HD 
ENDBRANCH  17  21
ENDBRANCH  10  13
ENDBRANCH   8   9
ENDBRANCH   7   8
ENDBRANCH   2   3
TORSDOF 6
ENDMDL
MODEL       22
REMARK 921   NORMALIZED FREE ENERGY PREDICTED BY IDOCK:   -5.82 KCAL/MOL
REMARK 922        TOTAL FREE ENERGY PREDICTED BY IDOCK:   -8.95 KCAL/MOL
REMARK 923 INTER-LIGAND FREE ENERGY PREDICTED BY IDOCK:   -8.17 KCAL/MOL
REMARK 924 INTRA-LIGAND FREE ENERGY PREDICTED BY IDOCK:   -0.78 KCAL/MOL
REMARK 927      BINDING AFFINITY PREDICTED BY RF-SCORE:    0.00 PKD
ROOT
HETATM    1  C   UNL     1     -11.937   8.459  72.403  1.00  0.00    -0.451 C  
HETATM    2  C   UNL     1     -12.436   9.754  71.767  1.00  0.00    -0.398 C  
ENDROOT
BRANCH   2   3
HETATM    3  N   UNL     1     -11.518  10.278  70.743  1.00  0.00    -0.340 NA 
HETATM    4  C   UNL     1     -10.954   9.216  69.906  1.00  0.00    -0.204 C  
HETATM    5  C   UNL     1     -10.441   9.977  68.703  1.00  0.00    -0.228 C  
HETATM    6  C   UNL     1     -11.515  11.021  68.460  1.00  0.00    -0.379 C  
HETATM    7  C   UNL     1     -12.211  11.213  69.817  1.00  0.00    -0.300 C  
BRANCH   7   8
HETATM    8  C   UNL     1     -12.123  12.677  70.307  1.00  0.00    -0.294 C  
BRANCH   8   9
HETATM    9  N   UNL     1     -11.601  13.609  69.314  1.00  0.00    -0.291 N  
HETATM   10  C   UNL     1     -11.880  14.966  69.358  1.00  0.00    -0.324 C  
HETATM   11  H   UNL     1     -11.011  13.252  68.563  1.00  0.00     0.000 HD 
HETATM   12  O   UNL     1     -12.617  15.446  70.210  1.00  0.00    -0.377 OA 
BRANCH  10  13
HETATM   13  C   UNL     1     -11.250  15.812  68.285  1.00  0.00    -0.356 A  
HETATM   14  C   UNL     1     -11.113  15.340  66.958  1.00  0.00    -0.305 A  
HETATM   15  C   UNL     1     -10.503  16.162  65.996  1.00  0.00    -0.349 A  
HETATM   16  C   UNL     1     -10.742  17.082  68.621  1.00  0.00    -0.333 A  
HETATM   17  C   UNL     1     -10.146  17.882  67.643  1.00  0.00    -0.348 A  
HETATM   18  C   UNL     1     -10.021  17.426  66.333  1.00  0.00    -0.322 A  
BRANCH  14  19
HETATM   19  O   UNL     1     -11.609  14.098  66.664  1.00  0.00    -0.349 OA 
HETATM   20  C   UNL     1     -12.508  13.976  65.568  1.00  0.00    -0.509 C  
ENDBRANCH  14  19
BRANCH  17  21
HETATM   21  S   UNL     1      -9.474  19.462  68.076  1.00  0.00    -0.356 S  
HETATM   22  O   UNL     1      -9.797  20.412  67.038  1.00  0.00    -0.439 OA 
HETATM   23  N   UNL     1     -10.406  19.880  69.403  1.00  0.00    -0.575 N  
HETATM   24  O   UNL     1      -8.130  19.279  68.574  1.00  0.00    -0.341 OA 
HETATM   25  H1  UNL     1     -10.019  20.790  69.653  1.00  0.00     0.000 HD 
HETATM   26  H2  UNL     1     -11.163  19.361  69.847  1.00  0.00     0.000 HD 
ENDBRANCH  17  21
ENDBRANCH  10  13
ENDBRANCH   8   9
ENDBRANCH   7   8
ENDBRANCH   2   3
TORSDOF 6
ENDMDL
MODEL       23
REMARK 921   NORMALIZED FREE ENERGY PREDICTED BY IDOCK:   -5.78 KCAL/MOL
REMARK 922        TOTAL FREE ENERGY PREDICTED BY IDOCK:   -8.89 KCAL/MOL
REMARK 923 INTER-LIGAND FREE ENERGY PREDICTED BY IDOCK:   -7.87 KCAL/MOL
REMARK 924 INTRA-LIGAND FREE ENERGY PREDICTED BY IDOCK:   -1.02 KCAL/MOL
REMARK 927      BINDING AFFINITY PREDICTED BY RF-SCORE:    0.00 PKD
ROOT
HETATM    1  C   UNL     1     -12.658  12.152  63.331  1.00  0.00    -0.584 C  
HETATM    2  C   UNL     1     -12.940  12.894  64.635  1.00  0.00    -0.124 C  
ENDROOT
BRANCH   2   3
HETATM    3  N   UNL     1     -11.811  12.844  65.577  1.00  0.00    -0.386 NA 
HETATM    4  C   UNL     1     -10.770  11.904  65.149  1.00  0.00    -0.291 C  
HETATM    5  C   UNL     1      -9.573  12.336  65.968  1.00  0.00    -0.230 C  
HETATM    6  C   UNL     1      -9.664  13.850  65.955  1.00  0.00    -0.237 C  
HETATM    7  C   UNL     1     -11.146  14.169  65.703  1.00  0.00    -0.307 C  
BRANCH   7   8
HETATM    8  C   UNL     1     -11.757  15.010  66.848  1.00  0.00    -0.172 C  
BRANCH   8   9
HETATM    9  N   UNL     1     -12.258  14.221  67.968  1.00  0.00    -0.584 N  
HETATM   10  C   UNL     1     -11.525  14.042  69.130  1.00  0.00    -0.296 C  
HETATM   11  H   UNL     1     -13.178  13.787  67.893  1.00  0.00     0.000 HD 
HETATM   12  O   UNL     1     -10.398  14.504  69.260  1.00  0.00    -0.219 OA 
BRANCH  10  13
HETATM   13  C   UNL     1     -12.180  13.228  70.213  1.00  0.00    -0.391 A  
HETATM   14  C   UNL     1     -12.968  13.836  71.219  1.00  0.00    -0.334 A  
HETATM   15  C   UNL     1     -13.546  13.034  72.217  1.00  0.00    -0.643 A  
HETATM   16  C   UNL     1     -11.964  11.837  70.253  1.00  0.00    -0.429 A  
HETATM   17  C   UNL     1     -12.556  11.062  71.253  1.00  0.00    -0.412 A  
HETATM   18  C   UNL     1     -13.343  11.655  72.238  1.00  0.00    -0.132 A  
BRANCH  14  19
HETATM   19  O   UNL     1     -13.154  15.191  71.158  1.00  0.00    -0.381 OA 
HETATM   20  C   UNL     1     -12.282  16.023  71.913  1.00  0.00    -0.489 C  
ENDBRANCH  14  19
BRANCH  17  21
HETATM   21  S   UNL     1     -12.252   9.320  71.324  1.00  0.00    -0.340 S  
HETATM   22  O   UNL     1     -13.493   8.634  71.592  1.00  0.00    -0.346 OA 
HETATM   23  N   UNL     1     -11.857   8.974  69.733  1.00  0.00    -0.195 N  
HETATM   24  O   UNL     1     -11.050   9.084  72.092  1.00  0.00    -0.350 OA 
HETATM   25  H1  UNL     1     -11.682   7.970  69.773  1.00  0.00     0.000 HD 
HETATM   26  H2  UNL     1     -11.806   9.603  68.932  1.00  0.00     0.000 HD 
ENDBRANCH  17  21
ENDBRANCH  10  13
ENDBRANCH   8   9
ENDBRANCH   7   8
ENDBRANCH   2   3
TORSDOF 6
ENDMDL
MODEL       24
REMARK 921   NORMALIZED FREE ENERGY PREDICTED BY IDOCK:   -5.75 KCAL/MOL
REMARK 922        TOTAL FREE ENERGY PREDICTED BY IDOCK:   -8.85 KCAL/MOL
REMARK 923 INTER-LIGAND FREE ENERGY PREDICTED BY IDOCK:   -7.95 KCAL/MOL
REMARK 924 INTRA-LIGAND FREE ENERGY PREDICTED BY IDOCK:   -0.90 KCAL/MOL
REMARK 927      BINDING AFFINITY PREDICTED BY RF-SCORE:    0.00 PKD
ROOT
HETATM    1  C   UNL     1      -6.955  18.748  68.165  1.00  0.00    -0.261 C  
HETATM    2  C   UNL     1      -8.066  19.606  68.763  1.00  0.00    -0.266 C  
ENDROOT
BRANCH   2   3
HETATM    3  N   UNL     1      -9.337  19.486  68.033  1.00  0.00    -0.325 NA 
HETATM    4  C   UNL     1      -9.308  20.186  66.745  1.00  0.00    -0.386 C  
HETATM    5  C   UNL     1     -10.478  19.574  66.007  1.00  0.00    -0.611 C  
HETATM    6  C   UNL     1     -10.407  18.107  66.385  1.00  0.00    -0.404 C  
HETATM    7  C   UNL     1      -9.659  18.067  67.727  1.00  0.00    -0.278 C  
BRANCH   7   8
HETATM    8  C   UNL     1     -10.511  17.418  68.842  1.00  0.00    -0.312 C  
BRANCH   8   9
HETATM    9  N   UNL     1     -10.667  15.973  68.710  1.00  0.00    -0.265 N  
HETATM   10  C   UNL     1     -11.703  15.285  69.321  1.00  0.00    -0.338 C  
HETATM   11  H   UNL     1      -9.991  15.452  68.151  1.00  0.00     0.000 HD 
HETATM   12  O   UNL     1     -12.519  15.850  70.038  1.00  0.00    -0.296 OA 
BRANCH  10  13
HETATM   13  C   UNL     1     -11.755  13.801  69.074  1.00  0.00    -0.372 A  
HETATM   14  C   UNL     1     -11.621  13.265  67.772  1.00  0.00    -0.342 A  
HETATM   15  C   UNL     1     -11.692  11.873  67.592  1.00  0.00    -0.346 A  
HETATM   16  C   UNL     1     -11.991  12.933  70.157  1.00  0.00    -0.373 A  
HETATM   17  C   UNL     1     -12.050  11.552  69.951  1.00  0.00    -0.316 A  
HETATM   18  C   UNL     1     -11.906  11.019  68.673  1.00  0.00    -0.318 A  
BRANCH  14  19
HETATM   19  O   UNL     1     -11.400  14.135  66.738  1.00  0.00    -0.319 OA 
HETATM   20  C   UNL     1     -10.721  13.651  65.586  1.00  0.00    -0.283 C  
ENDBRANCH  14  19
BRANCH  17  21
HETATM   21  S   UNL     1     -12.385  10.465  71.308  1.00  0.00    -0.409 S  
HETATM   22  O   UNL     1     -13.170  11.169  72.294  1.00  0.00    -0.413 OA 
HETATM   23  N   UNL     1     -13.410   9.342  70.605  1.00  0.00    -0.384 N  
HETATM   24  O   UNL     1     -11.176   9.747  71.643  1.00  0.00    -0.331 OA 
HETATM   25  H1  UNL     1     -13.603   8.716  71.387  1.00  0.00     0.000 HD 
HETATM   26  H2  UNL     1     -13.752   9.296  69.645  1.00  0.00     0.000 HD 
ENDBRANCH  17  21
ENDBRANCH  10  13
ENDBRANCH   8   9
ENDBRANCH   7   8
ENDBRANCH   2   3
TORSDOF 6
ENDMDL
MODEL       25
REMARK 921   NORMALIZED FREE ENERGY PREDICTED BY IDOCK:   -5.73 KCAL/MOL
REMARK 922        TOTAL FREE ENERGY PREDICTED BY IDOCK:   -8.83 KCAL/MOL
REMARK 923 INTER-LIGAND FREE ENERGY PREDICTED BY IDOCK:   -7.81 KCAL/MOL
REMARK 924 INTRA-LIGAND FREE ENERGY PREDICTED BY IDOCK:   -1.02 KCAL/MOL
REMARK 927      BINDING AFFINITY PREDICTED BY RF-SCORE:    0.00 PKD
ROOT
HETATM    1  C   UNL     1      -6.968  20.182  67.794  1.00  0.00    -0.313 C  
HETATM    2  C   UNL     1      -7.629  19.008  68.510  1.00  0.00    -0.329 C  
ENDROOT
BRANCH   2   3
HETATM    3  N   UNL     1      -8.976  18.711  67.999  1.00  0.00    -0.294 NA 
HETATM    4  C   UNL     1      -9.909  19.821  68.213  1.00  0.00    -0.428 C  
HETATM    5  C   UNL     1     -11.034  19.500  67.252  1.00  0.00    -0.460 C  
HETATM    6  C   UNL     1     -10.312  18.982  66.023  1.00  0.00    -0.512 C  
HETATM    7  C   UNL     1      -8.960  18.458  66.533  1.00  0.00    -0.286 C  
BRANCH   7   8
HETATM    8  C   UNL     1      -8.765  16.959  66.211  1.00  0.00    -0.286 C  
BRANCH   8   9
HETATM    9  N   UNL     1      -9.626  16.066  66.978  1.00  0.00    -0.217 N  
HETATM   10  C   UNL     1      -9.134  15.256  67.989  1.00  0.00    -0.176 C  
HETATM   11  H   UNL     1     -10.622  16.035  66.763  1.00  0.00     0.000 HD 
HETATM   12  O   UNL     1      -7.941  15.219  68.263  1.00  0.00    -0.126 OA 
BRANCH  10  13
HETATM   13  C   UNL     1     -10.143  14.408  68.715  1.00  0.00    -0.234 A  
HETATM   14  C   UNL     1     -10.353  13.053  68.368  1.00  0.00    -0.252 A  
HETATM   15  C   UNL     1     -11.318  12.307  69.066  1.00  0.00    -0.333 A  
HETATM   16  C   UNL     1     -10.928  14.990  69.729  1.00  0.00    -0.291 A  
HETATM   17  C   UNL     1     -11.876  14.224  70.412  1.00  0.00    -0.305 A  
HETATM   18  C   UNL     1     -12.077  12.886  70.082  1.00  0.00    -0.373 A  
BRANCH  14  19
HETATM   19  O   UNL     1      -9.580  12.517  67.373  1.00  0.00    -0.186 OA 
HETATM   20  C   UNL     1     -10.197  12.229  66.125  1.00  0.00    -0.239 C  
ENDBRANCH  14  19
BRANCH  17  21
HETATM   21  S   UNL     1     -12.888  14.968  71.659  1.00  0.00    -0.380 S  
HETATM   22  O   UNL     1     -12.289  16.215  72.070  1.00  0.00    -0.469 OA 
HETATM   23  N   UNL     1     -14.264  15.370  70.792  1.00  0.00    -0.811 N  
HETATM   24  O   UNL     1     -13.294  13.950  72.602  1.00  0.00    -0.512 OA 
HETATM   25  H1  UNL     1     -14.847  15.798  71.511  1.00  0.00     0.000 HD 
HETATM   26  H2  UNL     1     -14.466  15.224  69.803  1.00  0.00     0.000 HD 
ENDBRANCH  17  21
ENDBRANCH  10  13
ENDBRANCH   8   9
ENDBRANCH   7   8
ENDBRANCH   2   3
TORSDOF 6
ENDMDL
MODEL       26
REMARK 921   NORMALIZED FREE ENERGY PREDICTED BY IDOCK:   -5.70 KCAL/MOL
REMARK 922        TOTAL FREE ENERGY PREDICTED BY IDOCK:   -8.78 KCAL/MOL
REMARK 923 INTER-LIGAND FREE ENERGY PREDICTED BY IDOCK:   -8.08 KCAL/MOL
REMARK 924 INTRA-LIGAND FREE ENERGY PREDICTED BY IDOCK:   -0.69 KCAL/MOL
REMARK 927      BINDING AFFINITY PREDICTED BY RF-SCORE:    0.00 PKD
ROOT
HETATM    1  C   UNL     1     -12.509  12.117  63.271  1.00  0.00    -0.528 C  
HETATM    2  C   UNL     1     -11.047  12.200  63.701  1.00  0.00    -0.457 C  
ENDROOT
BRANCH   2   3
HETATM    3  N   UNL     1     -10.598  11.005  64.432  1.00  0.00    -0.351 NA 
HETATM    4  C   UNL     1      -9.472  10.338  63.771  1.00  0.00    -0.300 C  
HETATM    5  C   UNL     1      -8.909   9.465  64.871  1.00  0.00    -0.240 C  
HETATM    6  C   UNL     1      -9.008  10.342  66.105  1.00  0.00    -0.175 C  
HETATM    7  C   UNL     1     -10.130  11.347  65.802  1.00  0.00    -0.246 C  
BRANCH   7   8
HETATM    8  C   UNL     1     -11.275  11.261  66.838  1.00  0.00    -0.230 C  
BRANCH   8   9
HETATM    9  N   UNL     1     -11.196  12.255  67.902  1.00  0.00    -0.254 N  
HETATM   10  C   UNL     1     -11.742  13.522  67.769  1.00  0.00    -0.359 C  
HETATM   11  H   UNL     1     -10.723  12.011  68.772  1.00  0.00     0.000 HD 
HETATM   12  O   UNL     1     -12.283  13.886  66.733  1.00  0.00    -0.429 OA 
BRANCH  10  13
HETATM   13  C   UNL     1     -11.609  14.433  68.960  1.00  0.00    -0.330 A  
HETATM   14  C   UNL     1     -10.650  15.472  68.991  1.00  0.00    -0.246 A  
HETATM   15  C   UNL     1     -10.555  16.286  70.132  1.00  0.00    -0.183 A  
HETATM   16  C   UNL     1     -12.427  14.215  70.086  1.00  0.00    -0.391 A  
HETATM   17  C   UNL     1     -12.316  15.044  71.205  1.00  0.00    -0.323 A  
HETATM   18  C   UNL     1     -11.382  16.075  71.235  1.00  0.00    -0.397 A  
BRANCH  14  19
HETATM   19  O   UNL     1      -9.864  15.654  67.884  1.00  0.00    -0.216 OA 
HETATM   20  C   UNL     1      -9.509  16.983  67.524  1.00  0.00    -0.246 C  
ENDBRANCH  14  19
BRANCH  17  21
HETATM   21  S   UNL     1     -13.317  14.744  72.634  1.00  0.00    -0.490 S  
HETATM   22  O   UNL     1     -13.773  13.374  72.612  1.00  0.00    -0.687 OA 
HETATM   23  N   UNL     1     -12.192  14.845  73.871  1.00  0.00    -0.483 N  
HETATM   24  O   UNL     1     -14.216  15.861  72.820  1.00  0.00    -0.523 OA 
HETATM   25  H1  UNL     1     -12.769  14.673  74.694  1.00  0.00     0.000 HD 
HETATM   26  H2  UNL     1     -11.191  15.032  73.816  1.00  0.00     0.000 HD 
ENDBRANCH  17  21
ENDBRANCH  10  13
ENDBRANCH   8   9
ENDBRANCH   7   8
ENDBRANCH   2   3
TORSDOF 6
ENDMDL
MODEL       27
REMARK 921   NORMALIZED FREE ENERGY PREDICTED BY IDOCK:   -5.69 KCAL/MOL
REMARK 922        TOTAL FREE ENERGY PREDICTED BY IDOCK:   -8.77 KCAL/MOL
REMARK 923 INTER-LIGAND FREE ENERGY PREDICTED BY IDOCK:   -7.86 KCAL/MOL
REMARK 924 INTRA-LIGAND FREE ENERGY PREDICTED BY IDOCK:   -0.91 KCAL/MOL
REMARK 927      BINDING AFFINITY PREDICTED BY RF-SCORE:    0.00 PKD
ROOT
HETATM    1  C   UNL     1     -10.947   5.919  72.192  1.00  0.00    -0.317 C  
HETATM    2  C   UNL     1     -10.946   7.395  72.580  1.00  0.00    -0.317 C  
ENDROOT
BRANCH   2   3
HETATM    3  N   UNL     1     -11.693   8.236  71.632  1.00  0.00    -0.276 NA 
HETATM    4  C   UNL     1     -13.021   8.599  72.137  1.00  0.00    -0.387 C  
HETATM    5  C   UNL     1     -13.400   9.774  71.261  1.00  0.00    -0.413 C  
HETATM    6  C   UNL     1     -12.102  10.546  71.125  1.00  0.00    -0.473 C  
HETATM    7  C   UNL     1     -10.986   9.517  71.365  1.00  0.00    -0.345 C  
BRANCH   7   8
HETATM    8  C   UNL     1     -10.035   9.405  70.151  1.00  0.00    -0.229 C  
BRANCH   8   9
HETATM    9  N   UNL     1      -9.962  10.613  69.336  1.00  0.00    -0.363 N  
HETATM   10  C   UNL     1     -10.039  10.575  67.953  1.00  0.00    -0.176 C  
HETATM   11  H   UNL     1      -9.850  11.515  69.799  1.00  0.00     0.000 HD 
HETATM   12  O   UNL     1     -10.131   9.518  67.340  1.00  0.00    -0.181 OA 
BRANCH  10  13
HETATM   13  C   UNL     1      -9.978  11.901  67.245  1.00  0.00    -0.200 A  
HETATM   14  C   UNL     1      -8.925  12.816  67.481  1.00  0.00    -0.192 A  
HETATM   15  C   UNL     1      -8.922  14.049  66.807  1.00  0.00    -0.217 A  
HETATM   16  C   UNL     1     -11.017  12.258  66.363  1.00  0.00    -0.326 A  
HETATM   17  C   UNL     1     -10.985  13.487  65.700  1.00  0.00    -0.289 A  
HETATM   18  C   UNL     1      -9.945  14.386  65.921  1.00  0.00    -0.350 A  
BRANCH  14  19
HETATM   19  O   UNL     1      -7.934  12.444  68.349  1.00  0.00    -0.151 OA 
HETATM   20  C   UNL     1      -6.664  12.097  67.809  1.00  0.00    -0.103 C  
ENDBRANCH  14  19
BRANCH  17  21
HETATM   21  S   UNL     1     -12.312  13.950  64.623  1.00  0.00    -0.358 S  
HETATM   22  O   UNL     1     -13.503  14.167  65.408  1.00  0.00    -0.648 OA 
HETATM   23  N   UNL     1     -11.815  15.459  64.093  1.00  0.00    -0.868 N  
HETATM   24  O   UNL     1     -12.292  13.092  63.459  1.00  0.00    -0.680 OA 
HETATM   25  H1  UNL     1     -12.579  15.726  63.472  1.00  0.00     0.000 HD 
HETATM   26  H2  UNL     1     -10.969  15.977  64.329  1.00  0.00     0.000 HD 
ENDBRANCH  17  21
ENDBRANCH  10  13
ENDBRANCH   8   9
ENDBRANCH   7   8
ENDBRANCH   2   3
TORSDOF 6
ENDMDL
MODEL       28
REMARK 921   NORMALIZED FREE ENERGY PREDICTED BY IDOCK:   -5.69 KCAL/MOL
REMARK 922        TOTAL FREE ENERGY PREDICTED BY IDOCK:   -8.77 KCAL/MOL
REMARK 923 INTER-LIGAND FREE ENERGY PREDICTED BY IDOCK:   -8.11 KCAL/MOL
REMARK 924 INTRA-LIGAND FREE ENERGY PREDICTED BY IDOCK:   -0.66 KCAL/MOL
REMARK 927      BINDING AFFINITY PREDICTED BY RF-SCORE:    0.00 PKD
ROOT
HETATM    1  C   UNL     1     -12.622  12.100  63.393  1.00  0.00    -0.584 C  
HETATM    2  C   UNL     1     -11.145  11.726  63.487  1.00  0.00    -0.422 C  
ENDROOT
BRANCH   2   3
HETATM    3  N   UNL     1     -10.727  11.386  64.856  1.00  0.00    -0.298 NA 
HETATM    4  C   UNL     1      -9.737  10.306  64.883  1.00  0.00    -0.320 C  
HETATM    5  C   UNL     1      -9.141  10.436  66.269  1.00  0.00    -0.180 C  
HETATM    6  C   UNL     1      -9.037  11.935  66.470  1.00  0.00    -0.211 C  
HETATM    7  C   UNL     1     -10.095  12.547  65.538  1.00  0.00    -0.265 C  
BRANCH   7   8
HETATM    8  C   UNL     1     -11.131  13.390  66.317  1.00  0.00    -0.293 C  
BRANCH   8   9
HETATM    9  N   UNL     1     -11.668  12.731  67.502  1.00  0.00    -0.358 N  
HETATM   10  C   UNL     1     -11.312  13.116  68.785  1.00  0.00    -0.291 C  
HETATM   11  H   UNL     1     -12.327  11.961  67.383  1.00  0.00     0.000 HD 
HETATM   12  O   UNL     1     -10.494  14.004  68.988  1.00  0.00    -0.227 OA 
BRANCH  10  13
HETATM   13  C   UNL     1     -11.968  12.365  69.912  1.00  0.00    -0.369 A  
HETATM   14  C   UNL     1     -12.770  13.027  70.871  1.00  0.00    -0.217 A  
HETATM   15  C   UNL     1     -13.348  12.283  71.914  1.00  0.00    -0.431 A  
HETATM   16  C   UNL     1     -11.737  10.982  70.042  1.00  0.00    -0.437 A  
HETATM   17  C   UNL     1     -12.329  10.265  71.085  1.00  0.00    -0.395 A  
HETATM   18  C   UNL     1     -13.130  10.910  72.024  1.00  0.00    -0.462 A  
BRANCH  14  19
HETATM   19  O   UNL     1     -12.970  14.373  70.723  1.00  0.00    -0.349 OA 
HETATM   20  C   UNL     1     -14.017  14.983  71.467  1.00  0.00    -0.501 C  
ENDBRANCH  14  19
BRANCH  17  21
HETATM   21  S   UNL     1     -12.007   8.534  71.268  1.00  0.00    -0.285 S  
HETATM   22  O   UNL     1     -11.589   8.273  72.625  1.00  0.00    -0.399 OA 
HETATM   23  N   UNL     1     -13.541   7.880  71.114  1.00  0.00    -0.576 N  
HETATM   24  O   UNL     1     -11.259   8.072  70.120  1.00  0.00    -0.238 OA 
HETATM   25  H1  UNL     1     -13.356   6.882  71.220  1.00  0.00     0.000 HD 
HETATM   26  H2  UNL     1     -14.429   8.354  70.956  1.00  0.00     0.000 HD 
ENDBRANCH  17  21
ENDBRANCH  10  13
ENDBRANCH   8   9
ENDBRANCH   7   8
ENDBRANCH   2   3
TORSDOF 6
ENDMDL
MODEL       29
REMARK 921   NORMALIZED FREE ENERGY PREDICTED BY IDOCK:   -5.69 KCAL/MOL
REMARK 922        TOTAL FREE ENERGY PREDICTED BY IDOCK:   -8.76 KCAL/MOL
REMARK 923 INTER-LIGAND FREE ENERGY PREDICTED BY IDOCK:   -7.55 KCAL/MOL
REMARK 924 INTRA-LIGAND FREE ENERGY PREDICTED BY IDOCK:   -1.22 KCAL/MOL
REMARK 927      BINDING AFFINITY PREDICTED BY RF-SCORE:    0.00 PKD
ROOT
HETATM    1  C   UNL     1      -7.853  17.474  68.108  1.00  0.00    -0.244 C  
HETATM    2  C   UNL     1      -8.533  16.337  68.866  1.00  0.00    -0.253 C  
ENDROOT
BRANCH   2   3
HETATM    3  N   UNL     1      -9.529  15.623  68.052  1.00  0.00    -0.194 NA 
HETATM    4  C   UNL     1     -10.289  16.527  67.183  1.00  0.00    -0.298 C  
HETATM    5  C   UNL     1     -10.889  15.583  66.164  1.00  0.00    -0.295 C  
HETATM    6  C   UNL     1      -9.771  14.594  65.896  1.00  0.00    -0.341 C  
HETATM    7  C   UNL     1      -8.887  14.626  67.153  1.00  0.00    -0.221 C  
BRANCH   7   8
HETATM    8  C   UNL     1      -8.784  13.235  67.820  1.00  0.00    -0.194 C  
BRANCH   8   9
HETATM    9  N   UNL     1      -9.753  13.010  68.887  1.00  0.00    -0.406 N  
HETATM   10  C   UNL     1     -10.925  12.301  68.679  1.00  0.00    -0.239 C  
HETATM   11  H   UNL     1      -9.562  13.386  69.815  1.00  0.00     0.000 HD 
HETATM   12  O   UNL     1     -11.228  11.862  67.577  1.00  0.00    -0.257 OA 
BRANCH  10  13
HETATM   13  C   UNL     1     -11.818  12.122  69.878  1.00  0.00    -0.392 A  
HETATM   14  C   UNL     1     -12.359  13.232  70.567  1.00  0.00    -0.316 A  
HETATM   15  C   UNL     1     -13.174  13.013  71.691  1.00  0.00    -0.426 A  
HETATM   16  C   UNL     1     -12.079  10.821  70.351  1.00  0.00    -0.443 A  
HETATM   17  C   UNL     1     -12.899  10.631  71.467  1.00  0.00    -0.462 A  
HETATM   18  C   UNL     1     -13.444  11.721  72.141  1.00  0.00    -0.273 A  
BRANCH  14  19
HETATM   19  O   UNL     1     -12.080  14.484  70.088  1.00  0.00    -0.294 OA 
HETATM   20  C   UNL     1     -12.517  15.606  70.845  1.00  0.00    -0.445 C  
ENDBRANCH  14  19
BRANCH  17  21
HETATM   21  S   UNL     1     -13.195   8.998  72.083  1.00  0.00    -0.476 S  
HETATM   22  O   UNL     1     -13.966   9.086  73.300  1.00  0.00    -0.248 OA 
HETATM   23  N   UNL     1     -14.223   8.371  70.919  1.00  0.00    -0.524 N  
HETATM   24  O   UNL     1     -11.973   8.232  71.989  1.00  0.00    -0.305 OA 
HETATM   25  H1  UNL     1     -14.394   7.431  71.273  1.00  0.00     0.000 HD 
HETATM   26  H2  UNL     1     -14.584   8.815  70.074  1.00  0.00     0.000 HD 
ENDBRANCH  17  21
ENDBRANCH  10  13
ENDBRANCH   8   9
ENDBRANCH   7   8
ENDBRANCH   2   3
TORSDOF 6
ENDMDL
MODEL       30
REMARK 921   NORMALIZED FREE ENERGY PREDICTED BY IDOCK:   -5.68 KCAL/MOL
REMARK 922        TOTAL FREE ENERGY PREDICTED BY IDOCK:   -8.76 KCAL/MOL
REMARK 923 INTER-LIGAND FREE ENERGY PREDICTED BY IDOCK:   -7.80 KCAL/MOL
REMARK 924 INTRA-LIGAND FREE ENERGY PREDICTED BY IDOCK:   -0.97 KCAL/MOL
REMARK 927      BINDING AFFINITY PREDICTED BY RF-SCORE:    0.00 PKD
ROOT
HETATM    1  C   UNL     1      -9.734  17.783  66.722  1.00  0.00    -0.309 C  
HETATM    2  C   UNL     1      -9.505  16.289  66.931  1.00  0.00    -0.230 C  
ENDROOT
BRANCH   2   3
HETATM    3  N   UNL     1      -9.879  15.837  68.281  1.00  0.00    -0.211 NA 
HETATM    4  C   UNL     1     -10.501  16.903  69.072  1.00  0.00    -0.341 C  
HETATM    5  C   UNL     1     -11.185  16.136  70.183  1.00  0.00    -0.374 C  
HETATM    6  C   UNL     1     -11.744  14.915  69.478  1.00  0.00    -0.353 C  
HETATM    7  C   UNL     1     -10.867  14.727  68.230  1.00  0.00    -0.249 C  
BRANCH   7   8
HETATM    8  C   UNL     1     -10.176  13.343  68.215  1.00  0.00    -0.250 C  
BRANCH   8   9
HETATM    9  N   UNL     1     -10.663  12.421  69.236  1.00  0.00    -0.445 N  
HETATM   10  C   UNL     1     -11.507  11.365  68.932  1.00  0.00    -0.298 C  
HETATM   11  H   UNL     1     -10.373  12.558  70.204  1.00  0.00     0.000 HD 
HETATM   12  O   UNL     1     -11.923  11.177  67.795  1.00  0.00    -0.630 OA 
BRANCH  10  13
HETATM   13  C   UNL     1     -11.905  10.478  70.081  1.00  0.00    -0.404 A  
HETATM   14  C   UNL     1     -12.750  10.945  71.115  1.00  0.00    -0.429 A  
HETATM   15  C   UNL     1     -13.080  10.082  72.175  1.00  0.00    -0.482 A  
HETATM   16  C   UNL     1     -11.386   9.171  70.151  1.00  0.00    -0.164 A  
HETATM   17  C   UNL     1     -11.736   8.332  71.212  1.00  0.00    -0.283 A  
HETATM   18  C   UNL     1     -12.577   8.783  72.226  1.00  0.00    -0.460 A  
BRANCH  14  19
HETATM   19  O   UNL     1     -13.232  12.223  71.023  1.00  0.00    -0.042 OA 
HETATM   20  C   UNL     1     -13.642  12.874  72.219  1.00  0.00    -0.515 C  
ENDBRANCH  14  19
BRANCH  17  21
HETATM   21  S   UNL     1     -11.052   6.702  71.319  1.00  0.00    -0.280 S  
HETATM   22  O   UNL     1      -9.709   6.788  71.842  1.00  0.00    -0.157 OA 
HETATM   23  N   UNL     1     -11.985   6.015  72.528  1.00  0.00    -0.517 N  
HETATM   24  O   UNL     1     -11.372   5.979  70.108  1.00  0.00    -0.372 OA 
HETATM   25  H1  UNL     1     -11.591   5.076  72.589  1.00  0.00     0.000 HD 
HETATM   26  H2  UNL     1     -12.749   6.427  73.063  1.00  0.00     0.000 HD 
ENDBRANCH  17  21
ENDBRANCH  10  13
ENDBRANCH   8   9
ENDBRANCH   7   8
ENDBRANCH   2   3
TORSDOF 6
ENDMDL
MODEL       31
REMARK 921   NORMALIZED FREE ENERGY PREDICTED BY IDOCK:   -5.68 KCAL/MOL
REMARK 922        TOTAL FREE ENERGY PREDICTED BY IDOCK:   -8.76 KCAL/MOL
REMARK 923 INTER-LIGAND FREE ENERGY PREDICTED BY IDOCK:   -8.36 KCAL/MOL
REMARK 924 INTRA-LIGAND FREE ENERGY PREDICTED BY IDOCK:   -0.40 KCAL/MOL
REMARK 927      BINDING AFFINITY PREDICTED BY RF-SCORE:    0.00 PKD
ROOT
HETATM    1  C   UNL     1      -8.618   9.345  69.594  1.00  0.00    -0.171 C  
HETATM    2  C   UNL     1      -9.890   8.822  68.932  1.00  0.00    -0.178 C  
ENDROOT
BRANCH   2   3
HETATM    3  N   UNL     1     -10.903   8.386  69.905  1.00  0.00    -0.233 NA 
HETATM    4  C   UNL     1     -10.665   7.020  70.383  1.00  0.00    -0.234 C  
HETATM    5  C   UNL     1     -11.502   6.958  71.642  1.00  0.00    -0.312 C  
HETATM    6  C   UNL     1     -11.296   8.322  72.272  1.00  0.00    -0.446 C  
HETATM    7  C   UNL     1     -10.909   9.253  71.113  1.00  0.00    -0.337 C  
BRANCH   7   8
HETATM    8  C   UNL     1     -11.898  10.433  70.968  1.00  0.00    -0.361 C  
BRANCH   8   9
HETATM    9  N   UNL     1     -11.580  11.350  69.878  1.00  0.00    -0.351 N  
HETATM   10  C   UNL     1     -12.061  12.649  69.844  1.00  0.00    -0.252 C  
HETATM   11  H   UNL     1     -10.984  11.024  69.117  1.00  0.00     0.000 HD 
HETATM   12  O   UNL     1     -12.814  13.081  70.707  1.00  0.00    -0.197 OA 
BRANCH  10  13
HETATM   13  C   UNL     1     -11.626  13.490  68.674  1.00  0.00    -0.365 A  
HETATM   14  C   UNL     1     -10.948  14.717  68.859  1.00  0.00    -0.254 A  
HETATM   15  C   UNL     1     -10.577  15.474  67.734  1.00  0.00    -0.281 A  
HETATM   16  C   UNL     1     -11.944  13.067  67.369  1.00  0.00    -0.372 A  
HETATM   17  C   UNL     1     -11.558  13.835  66.268  1.00  0.00    -0.350 A  
HETATM   18  C   UNL     1     -10.879  15.038  66.445  1.00  0.00    -0.326 A  
BRANCH  14  19
HETATM   19  O   UNL     1     -10.660  15.105  70.140  1.00  0.00    -0.261 OA 
HETATM   20  C   UNL     1     -11.407  16.177  70.702  1.00  0.00    -0.370 C  
ENDBRANCH  14  19
BRANCH  17  21
HETATM   21  S   UNL     1     -11.992  13.322  64.630  1.00  0.00    -0.419 S  
HETATM   22  O   UNL     1     -13.159  12.474  64.695  1.00  0.00    -0.845 OA 
HETATM   23  N   UNL     1     -12.496  14.762  63.939  1.00  0.00    -1.049 N  
HETATM   24  O   UNL     1     -10.790  12.940  63.923  1.00  0.00    -0.394 OA 
HETATM   25  H1  UNL     1     -12.746  14.467  62.996  1.00  0.00     0.000 HD 
HETATM   26  H2  UNL     1     -12.540  15.693  64.354  1.00  0.00     0.000 HD 
ENDBRANCH  17  21
ENDBRANCH  10  13
ENDBRANCH   8   9
ENDBRANCH   7   8
ENDBRANCH   2   3
TORSDOF 6
ENDMDL
MODEL       32
REMARK 921   NORMALIZED FREE ENERGY PREDICTED BY IDOCK:   -5.68 KCAL/MOL
REMARK 922        TOTAL FREE ENERGY PREDICTED BY IDOCK:   -8.75 KCAL/MOL
REMARK 923 INTER-LIGAND FREE ENERGY PREDICTED BY IDOCK:   -7.87 KCAL/MOL
REMARK 924 INTRA-LIGAND FREE ENERGY PREDICTED BY IDOCK:   -0.88 KCAL/MOL
REMARK 927      BINDING AFFINITY PREDICTED BY RF-SCORE:    0.00 PKD
ROOT
HETATM    1  C   UNL     1      -9.898  10.597  63.607  1.00  0.00    -0.392 C  
HETATM    2  C   UNL     1     -10.300  11.050  65.008  1.00  0.00    -0.295 C  
ENDROOT
BRANCH   2   3
HETATM    3  N   UNL     1     -10.726  12.457  65.053  1.00  0.00    -0.284 NA 
HETATM    4  C   UNL     1     -11.181  12.943  63.746  1.00  0.00    -0.402 C  
HETATM    5  C   UNL     1     -11.963  14.188  64.108  1.00  0.00    -0.421 C  
HETATM    6  C   UNL     1     -12.698  13.789  65.373  1.00  0.00    -0.513 C  
HETATM    7  C   UNL     1     -11.866  12.652  65.988  1.00  0.00    -0.436 C  
BRANCH   7   8
HETATM    8  C   UNL     1     -11.385  12.999  67.416  1.00  0.00    -0.305 C  
BRANCH   8   9
HETATM    9  N   UNL     1     -11.816  12.053  68.439  1.00  0.00    -0.329 N  
HETATM   10  C   UNL     1     -10.913  11.329  69.201  1.00  0.00    -0.240 C  
HETATM   11  H   UNL     1     -12.814  11.919  68.598  1.00  0.00     0.000 HD 
HETATM   12  O   UNL     1      -9.704  11.416  69.025  1.00  0.00    -0.138 OA 
BRANCH  10  13
HETATM   13  C   UNL     1     -11.501  10.411  70.239  1.00  0.00    -0.406 A  
HETATM   14  C   UNL     1     -12.442  10.877  71.187  1.00  0.00    -0.405 A  
HETATM   15  C   UNL     1     -12.950   9.984  72.146  1.00  0.00    -0.460 A  
HETATM   16  C   UNL     1     -11.069   9.072  70.296  1.00  0.00    -0.263 A  
HETATM   17  C   UNL     1     -11.595   8.204  71.255  1.00  0.00    -0.273 A  
HETATM   18  C   UNL     1     -12.531   8.655  72.183  1.00  0.00    -0.453 A  
BRANCH  14  19
HETATM   19  O   UNL     1     -12.837  12.185  71.111  1.00  0.00    -0.326 OA 
HETATM   20  C   UNL     1     -13.499  12.754  72.235  1.00  0.00    -0.490 C  
ENDBRANCH  14  19
BRANCH  17  21
HETATM   21  S   UNL     1     -11.022   6.532  71.349  1.00  0.00    -0.269 S  
HETATM   22  O   UNL     1     -11.349   5.850  70.120  1.00  0.00    -0.338 OA 
HETATM   23  N   UNL     1      -9.359   6.737  71.345  1.00  0.00    -0.157 N  
HETATM   24  O   UNL     1     -11.354   5.995  72.650  1.00  0.00    -0.276 OA 
HETATM   25  H1  UNL     1      -9.029   5.773  71.400  1.00  0.00     0.000 HD 
HETATM   26  H2  UNL     1      -8.818   7.600  71.300  1.00  0.00     0.000 HD 
ENDBRANCH  17  21
ENDBRANCH  10  13
ENDBRANCH   8   9
ENDBRANCH   7   8
ENDBRANCH   2   3
TORSDOF 6
ENDMDL
MODEL       33
REMARK 921   NORMALIZED FREE ENERGY PREDICTED BY IDOCK:   -5.67 KCAL/MOL
REMARK 922        TOTAL FREE ENERGY PREDICTED BY IDOCK:   -8.74 KCAL/MOL
REMARK 923 INTER-LIGAND FREE ENERGY PREDICTED BY IDOCK:   -8.25 KCAL/MOL
REMARK 924 INTRA-LIGAND FREE ENERGY PREDICTED BY IDOCK:   -0.49 KCAL/MOL
REMARK 927      BINDING AFFINITY PREDICTED BY RF-SCORE:    0.00 PKD
ROOT
HETATM    1  C   UNL     1      -8.770   7.902  68.253  1.00  0.00    -0.130 C  
HETATM    2  C   UNL     1      -9.941   8.776  68.694  1.00  0.00    -0.182 C  
ENDROOT
BRANCH   2   3
HETATM    3  N   UNL     1     -10.582   8.293  69.927  1.00  0.00    -0.231 NA 
HETATM    4  C   UNL     1      -9.870   7.153  70.514  1.00  0.00    -0.179 C  
HETATM    5  C   UNL     1     -10.401   7.124  71.931  1.00  0.00    -0.212 C  
HETATM    6  C   UNL     1     -10.488   8.591  72.307  1.00  0.00    -0.402 C  
HETATM    7  C   UNL     1     -10.615   9.347  70.975  1.00  0.00    -0.330 C  
BRANCH   7   8
HETATM    8  C   UNL     1     -11.914  10.183  70.909  1.00  0.00    -0.365 C  
BRANCH   8   9
HETATM    9  N   UNL     1     -11.741  11.511  70.330  1.00  0.00    -0.465 N  
HETATM   10  C   UNL     1     -11.996  11.771  68.992  1.00  0.00    -0.280 C  
HETATM   11  H   UNL     1     -11.423  12.273  70.928  1.00  0.00     0.000 HD 
HETATM   12  O   UNL     1     -12.338  10.887  68.217  1.00  0.00    -0.400 OA 
BRANCH  10  13
HETATM   13  C   UNL     1     -11.803  13.193  68.541  1.00  0.00    -0.377 A  
HETATM   14  C   UNL     1     -11.837  14.270  69.458  1.00  0.00    -0.329 A  
HETATM   15  C   UNL     1     -11.667  15.582  68.985  1.00  0.00    -0.392 A  
HETATM   16  C   UNL     1     -11.631  13.461  67.169  1.00  0.00    -0.399 A  
HETATM   17  C   UNL     1     -11.457  14.775  66.726  1.00  0.00    -0.338 A  
HETATM   18  C   UNL     1     -11.478  15.836  67.627  1.00  0.00    -0.119 A  
BRANCH  14  19
HETATM   19  O   UNL     1     -12.013  13.978  70.784  1.00  0.00    -0.324 OA 
HETATM   20  C   UNL     1     -11.823  15.021  71.732  1.00  0.00    -0.388 C  
ENDBRANCH  14  19
BRANCH  17  21
HETATM   21  S   UNL     1     -11.280  15.113  64.997  1.00  0.00    -0.395 S  
HETATM   22  O   UNL     1     -10.631  16.391  64.830  1.00  0.00    -0.677 OA 
HETATM   23  N   UNL     1     -10.164  13.954  64.532  1.00  0.00    -0.678 N  
HETATM   24  O   UNL     1     -12.513  14.771  64.324  1.00  0.00    -0.661 OA 
HETATM   25  H1  UNL     1     -10.062  14.148  63.536  1.00  0.00     0.000 HD 
HETATM   26  H2  UNL     1      -9.706  13.239  65.097  1.00  0.00     0.000 HD 
ENDBRANCH  17  21
ENDBRANCH  10  13
ENDBRANCH   8   9
ENDBRANCH   7   8
ENDBRANCH   2   3
TORSDOF 6
ENDMDL
MODEL       34
REMARK 921   NORMALIZED FREE ENERGY PREDICTED BY IDOCK:   -5.63 KCAL/MOL
REMARK 922        TOTAL FREE ENERGY PREDICTED BY IDOCK:   -8.68 KCAL/MOL
REMARK 923 INTER-LIGAND FREE ENERGY PREDICTED BY IDOCK:   -8.07 KCAL/MOL
REMARK 924 INTRA-LIGAND FREE ENERGY PREDICTED BY IDOCK:   -0.61 KCAL/MOL
REMARK 927      BINDING AFFINITY PREDICTED BY RF-SCORE:    0.00 PKD
ROOT
HETATM    1  C   UNL     1     -10.088   5.937  74.219  1.00  0.00    -0.292 C  
HETATM    2  C   UNL     1     -10.187   7.341  73.629  1.00  0.00    -0.346 C  
ENDROOT
BRANCH   2   3
HETATM    3  N   UNL     1     -10.041   7.358  72.165  1.00  0.00    -0.186 NA 
HETATM    4  C   UNL     1      -8.703   6.941  71.735  1.00  0.00    -0.120 C  
HETATM    5  C   UNL     1      -8.913   6.603  70.274  1.00  0.00    -0.152 C  
HETATM    6  C   UNL     1     -10.262   5.911  70.262  1.00  0.00    -0.279 C  
HETATM    7  C   UNL     1     -10.997   6.425  71.510  1.00  0.00    -0.263 C  
BRANCH   7   8
HETATM    8  C   UNL     1     -12.326   7.127  71.149  1.00  0.00    -0.364 C  
BRANCH   8   9
HETATM    9  N   UNL     1     -12.168   8.494  70.665  1.00  0.00    -0.490 N  
HETATM   10  C   UNL     1     -12.812   9.566  71.262  1.00  0.00    -0.333 C  
HETATM   11  H   UNL     1     -11.565   8.667  69.861  1.00  0.00     0.000 HD 
HETATM   12  O   UNL     1     -13.581   9.414  72.203  1.00  0.00    -0.425 OA 
BRANCH  10  13
HETATM   13  C   UNL     1     -12.533  10.923  70.675  1.00  0.00    -0.460 A  
HETATM   14  C   UNL     1     -11.873  11.067  69.432  1.00  0.00    -0.335 A  
HETATM   15  C   UNL     1     -11.622  12.357  68.933  1.00  0.00    -0.364 A  
HETATM   16  C   UNL     1     -12.894  12.074  71.402  1.00  0.00    -0.391 A  
HETATM   17  C   UNL     1     -12.638  13.344  70.879  1.00  0.00    -0.327 A  
HETATM   18  C   UNL     1     -12.000  13.491  69.650  1.00  0.00    -0.397 A  
BRANCH  14  19
HETATM   19  O   UNL     1     -11.527   9.930  68.752  1.00  0.00    -0.068 OA 
HETATM   20  C   UNL     1     -10.785  10.067  67.547  1.00  0.00    -0.281 C  
ENDBRANCH  14  19
BRANCH  17  21
HETATM   21  S   UNL     1     -13.058  14.789  71.812  1.00  0.00    -0.366 S  
HETATM   22  O   UNL     1     -11.957  15.721  71.761  1.00  0.00    -0.377 OA 
HETATM   23  N   UNL     1     -14.282  15.456  70.883  1.00  0.00    -0.857 N  
HETATM   24  O   UNL     1     -13.677  14.382  73.054  1.00  0.00    -0.596 OA 
HETATM   25  H1  UNL     1     -14.524  16.288  71.420  1.00  0.00     0.000 HD 
HETATM   26  H2  UNL     1     -14.682  15.118  70.008  1.00  0.00     0.000 HD 
ENDBRANCH  17  21
ENDBRANCH  10  13
ENDBRANCH   8   9
ENDBRANCH   7   8
ENDBRANCH   2   3
TORSDOF 6
ENDMDL
MODEL       35
REMARK 921   NORMALIZED FREE ENERGY PREDICTED BY IDOCK:   -5.62 KCAL/MOL
REMARK 922        TOTAL FREE ENERGY PREDICTED BY IDOCK:   -8.68 KCAL/MOL
REMARK 923 INTER-LIGAND FREE ENERGY PREDICTED BY IDOCK:   -7.90 KCAL/MOL
REMARK 924 INTRA-LIGAND FREE ENERGY PREDICTED BY IDOCK:   -0.78 KCAL/MOL
REMARK 927      BINDING AFFINITY PREDICTED BY RF-SCORE:    0.00 PKD
ROOT
HETATM    1  C   UNL     1     -10.752  15.689  70.112  1.00  0.00    -0.355 C  
HETATM    2  C   UNL     1      -9.819  16.385  69.124  1.00  0.00    -0.272 C  
ENDROOT
BRANCH   2   3
HETATM    3  N   UNL     1     -10.537  17.224  68.153  1.00  0.00    -0.379 NA 
HETATM    4  C   UNL     1     -10.362  18.656  68.417  1.00  0.00    -0.311 C  
HETATM    5  C   UNL     1     -10.773  19.289  67.105  1.00  0.00    -0.584 C  
HETATM    6  C   UNL     1     -10.192  18.354  66.063  1.00  0.00    -0.354 C  
HETATM    7  C   UNL     1     -10.049  16.995  66.767  1.00  0.00    -0.300 C  
BRANCH   7   8
HETATM    8  C   UNL     1     -10.856  15.888  66.050  1.00  0.00    -0.225 C  
BRANCH   8   9
HETATM    9  N   UNL     1     -10.739  14.570  66.665  1.00  0.00    -0.300 N  
HETATM   10  C   UNL     1     -11.798  13.677  66.701  1.00  0.00    -0.409 C  
HETATM   11  H   UNL     1      -9.849  14.296  67.081  1.00  0.00     0.000 HD 
HETATM   12  O   UNL     1     -12.902  13.966  66.255  1.00  0.00    -0.320 OA 
BRANCH  10  13
HETATM   13  C   UNL     1     -11.524  12.343  67.341  1.00  0.00    -0.418 A  
HETATM   14  C   UNL     1     -10.869  11.306  66.636  1.00  0.00    -0.273 A  
HETATM   15  C   UNL     1     -10.650  10.073  67.273  1.00  0.00    -0.319 A  
HETATM   16  C   UNL     1     -11.972  12.107  68.656  1.00  0.00    -0.290 A  
HETATM   17  C   UNL     1     -11.735  10.873  69.268  1.00  0.00    -0.324 A  
HETATM   18  C   UNL     1     -11.080   9.855  68.582  1.00  0.00    -0.182 A  
BRANCH  14  19
HETATM   19  O   UNL     1     -10.452  11.563  65.358  1.00  0.00    -0.263 OA 
HETATM   20  C   UNL     1     -10.027  10.468  64.556  1.00  0.00    -0.345 C  
ENDBRANCH  14  19
BRANCH  17  21
HETATM   21  S   UNL     1     -12.334  10.566  70.905  1.00  0.00    -0.427 S  
HETATM   22  O   UNL     1     -12.873  11.790  71.448  1.00  0.00    -0.404 OA 
HETATM   23  N   UNL     1     -13.644   9.564  70.611  1.00  0.00    -0.496 N  
HETATM   24  O   UNL     1     -11.366   9.759  71.614  1.00  0.00    -0.349 OA 
HETATM   25  H1  UNL     1     -13.989   9.387  71.554  1.00  0.00     0.000 HD 
HETATM   26  H2  UNL     1     -14.003   9.220  69.721  1.00  0.00     0.000 HD 
ENDBRANCH  17  21
ENDBRANCH  10  13
ENDBRANCH   8   9
ENDBRANCH   7   8
ENDBRANCH   2   3
TORSDOF 6
ENDMDL
MODEL       36
REMARK 921   NORMALIZED FREE ENERGY PREDICTED BY IDOCK:   -5.61 KCAL/MOL
REMARK 922        TOTAL FREE ENERGY PREDICTED BY IDOCK:   -8.66 KCAL/MOL
REMARK 923 INTER-LIGAND FREE ENERGY PREDICTED BY IDOCK:   -7.88 KCAL/MOL
REMARK 924 INTRA-LIGAND FREE ENERGY PREDICTED BY IDOCK:   -0.78 KCAL/MOL
REMARK 927      BINDING AFFINITY PREDICTED BY RF-SCORE:    0.00 PKD
ROOT
HETATM    1  C   UNL     1     -10.018  20.043  67.654  1.00  0.00    -0.566 C  
HETATM    2  C   UNL     1     -10.249  19.411  66.284  1.00  0.00    -0.478 C  
ENDROOT
BRANCH   2   3
HETATM    3  N   UNL     1      -9.409  18.227  66.052  1.00  0.00    -0.512 NA 
HETATM    4  C   UNL     1      -7.978  18.536  66.133  1.00  0.00    -0.187 C  
HETATM    5  C   UNL     1      -7.352  17.170  66.316  1.00  0.00    -0.326 C  
HETATM    6  C   UNL     1      -8.310  16.466  67.258  1.00  0.00    -0.200 C  
HETATM    7  C   UNL     1      -9.663  17.169  67.066  1.00  0.00    -0.265 C  
BRANCH   7   8
HETATM    8  C   UNL     1     -10.763  16.185  66.606  1.00  0.00    -0.226 C  
BRANCH   8   9
HETATM    9  N   UNL     1     -10.639  14.845  67.168  1.00  0.00    -0.279 N  
HETATM   10  C   UNL     1     -11.607  13.872  66.975  1.00  0.00    -0.369 C  
HETATM   11  H   UNL     1      -9.813  14.615  67.721  1.00  0.00     0.000 HD 
HETATM   12  O   UNL     1     -12.639  14.102  66.357  1.00  0.00    -0.427 OA 
BRANCH  10  13
HETATM   13  C   UNL     1     -11.332  12.526  67.589  1.00  0.00    -0.362 A  
HETATM   14  C   UNL     1     -10.627  11.523  66.883  1.00  0.00    -0.247 A  
HETATM   15  C   UNL     1     -10.409  10.277  67.494  1.00  0.00    -0.276 A  
HETATM   16  C   UNL     1     -11.829  12.243  68.876  1.00  0.00    -0.355 A  
HETATM   17  C   UNL     1     -11.592  10.998  69.463  1.00  0.00    -0.313 A  
HETATM   18  C   UNL     1     -10.888  10.012  68.777  1.00  0.00    -0.252 A  
BRANCH  14  19
HETATM   19  O   UNL     1     -10.163  11.825  65.630  1.00  0.00    -0.228 OA 
HETATM   20  C   UNL     1     -10.257  10.828  64.621  1.00  0.00    -0.350 C  
ENDBRANCH  14  19
BRANCH  17  21
HETATM   21  S   UNL     1     -12.250  10.632  71.065  1.00  0.00    -0.397 S  
HETATM   22  O   UNL     1     -12.845  11.826  71.615  1.00  0.00    -0.383 OA 
HETATM   23  N   UNL     1     -13.519   9.604  70.690  1.00  0.00    -0.580 N  
HETATM   24  O   UNL     1     -11.292   9.832  71.795  1.00  0.00    -0.298 OA 
HETATM   25  H1  UNL     1     -13.898   9.393  71.612  1.00  0.00     0.000 HD 
HETATM   26  H2  UNL     1     -13.831   9.275  69.776  1.00  0.00     0.000 HD 
ENDBRANCH  17  21
ENDBRANCH  10  13
ENDBRANCH   8   9
ENDBRANCH   7   8
ENDBRANCH   2   3
TORSDOF 6
ENDMDL
MODEL       37
REMARK 921   NORMALIZED FREE ENERGY PREDICTED BY IDOCK:   -5.61 KCAL/MOL
REMARK 922        TOTAL FREE ENERGY PREDICTED BY IDOCK:   -8.66 KCAL/MOL
REMARK 923 INTER-LIGAND FREE ENERGY PREDICTED BY IDOCK:   -8.15 KCAL/MOL
REMARK 924 INTRA-LIGAND FREE ENERGY PREDICTED BY IDOCK:   -0.50 KCAL/MOL
REMARK 927      BINDING AFFINITY PREDICTED BY RF-SCORE:    0.00 PKD
ROOT
HETATM    1  C   UNL     1     -10.904  10.264  67.437  1.00  0.00    -0.336 C  
HETATM    2  C   UNL     1     -11.511  11.626  67.114  1.00  0.00    -0.271 C  
ENDROOT
BRANCH   2   3
HETATM    3  N   UNL     1     -11.166  12.101  65.765  1.00  0.00    -0.327 NA 
HETATM    4  C   UNL     1     -10.558  11.049  64.944  1.00  0.00    -0.258 C  
HETATM    5  C   UNL     1     -10.706  11.595  63.540  1.00  0.00    -0.495 C  
HETATM    6  C   UNL     1     -12.084  12.228  63.551  1.00  0.00    -0.649 C  
HETATM    7  C   UNL     1     -12.369  12.563  65.023  1.00  0.00    -0.453 C  
BRANCH   7   8
HETATM    8  C   UNL     1     -12.628  14.073  65.231  1.00  0.00    -0.470 C  
BRANCH   8   9
HETATM    9  N   UNL     1     -11.542  14.777  65.906  1.00  0.00    -0.326 N  
HETATM   10  C   UNL     1     -10.897  15.860  65.330  1.00  0.00    -0.387 C  
HETATM   11  H   UNL     1     -11.249  14.463  66.831  1.00  0.00     0.000 HD 
HETATM   12  O   UNL     1     -11.177  16.255  64.205  1.00  0.00    -0.770 OA 
BRANCH  10  13
HETATM   13  C   UNL     1      -9.816  16.507  66.153  1.00  0.00    -0.355 A  
HETATM   14  C   UNL     1      -9.677  17.913  66.215  1.00  0.00    -0.269 A  
HETATM   15  C   UNL     1      -8.641  18.468  66.986  1.00  0.00    -0.273 A  
HETATM   16  C   UNL     1      -8.894  15.691  66.839  1.00  0.00    -0.279 A  
HETATM   17  C   UNL     1      -7.878  16.270  67.604  1.00  0.00    -0.145 A  
HETATM   18  C   UNL     1      -7.745  17.654  67.677  1.00  0.00    -0.211 A  
BRANCH  14  19
HETATM   19  O   UNL     1     -10.584  18.679  65.532  1.00  0.00    -0.608 OA 
HETATM   20  C   UNL     1     -10.650  20.068  65.831  1.00  0.00    -0.354 C  
ENDBRANCH  14  19
BRANCH  17  21
HETATM   21  S   UNL     1      -6.697  15.243  68.432  1.00  0.00    -0.121 S  
HETATM   22  O   UNL     1      -6.199  15.940  69.594  1.00  0.00    -0.158 OA 
HETATM   23  N   UNL     1      -7.663  14.001  69.007  1.00  0.00    -0.296 N  
HETATM   24  O   UNL     1      -5.823  14.645  67.449  1.00  0.00    -0.342 OA 
HETATM   25  H1  UNL     1      -6.983  13.410  69.485  1.00  0.00     0.000 HD 
HETATM   26  H2  UNL     1      -8.669  13.870  68.906  1.00  0.00     0.000 HD 
ENDBRANCH  17  21
ENDBRANCH  10  13
ENDBRANCH   8   9
ENDBRANCH   7   8
ENDBRANCH   2   3
TORSDOF 6
ENDMDL
MODEL       38
REMARK 921   NORMALIZED FREE ENERGY PREDICTED BY IDOCK:   -5.60 KCAL/MOL
REMARK 922        TOTAL FREE ENERGY PREDICTED BY IDOCK:   -8.64 KCAL/MOL
REMARK 923 INTER-LIGAND FREE ENERGY PREDICTED BY IDOCK:   -7.77 KCAL/MOL
REMARK 924 INTRA-LIGAND FREE ENERGY PREDICTED BY IDOCK:   -0.87 KCAL/MOL
REMARK 927      BINDING AFFINITY PREDICTED BY RF-SCORE:    0.00 PKD
ROOT
HETATM    1  C   UNL     1      -9.905  20.455  67.444  1.00  0.00    -0.587 C  
HETATM    2  C   UNL     1     -10.367  19.582  66.280  1.00  0.00    -0.506 C  
ENDROOT
BRANCH   2   3
HETATM    3  N   UNL     1      -9.421  18.500  65.966  1.00  0.00    -0.494 NA 
HETATM    4  C   UNL     1      -8.024  18.925  66.104  1.00  0.00    -0.235 C  
HETATM    5  C   UNL     1      -7.283  17.608  66.184  1.00  0.00    -0.352 C  
HETATM    6  C   UNL     1      -8.187  16.744  67.042  1.00  0.00    -0.224 C  
HETATM    7  C   UNL     1      -9.594  17.341  66.882  1.00  0.00    -0.268 C  
BRANCH   7   8
HETATM    8  C   UNL     1     -10.597  16.308  66.317  1.00  0.00    -0.255 C  
BRANCH   8   9
HETATM    9  N   UNL     1     -10.637  15.049  67.053  1.00  0.00    -0.287 N  
HETATM   10  C   UNL     1     -11.499  14.021  66.708  1.00  0.00    -0.363 C  
HETATM   11  H   UNL     1     -10.011  14.922  67.848  1.00  0.00     0.000 HD 
HETATM   12  O   UNL     1     -12.303  14.133  65.791  1.00  0.00    -0.438 OA 
BRANCH  10  13
HETATM   13  C   UNL     1     -11.410  12.769  67.539  1.00  0.00    -0.361 A  
HETATM   14  C   UNL     1     -11.871  12.737  68.876  1.00  0.00    -0.308 A  
HETATM   15  C   UNL     1     -11.751  11.548  69.616  1.00  0.00    -0.419 A  
HETATM   16  C   UNL     1     -10.812  11.620  66.987  1.00  0.00    -0.311 A  
HETATM   17  C   UNL     1     -10.712  10.448  67.742  1.00  0.00    -0.279 A  
HETATM   18  C   UNL     1     -11.175  10.408  69.055  1.00  0.00    -0.289 A  
BRANCH  14  19
HETATM   19  O   UNL     1     -12.440  13.872  69.387  1.00  0.00    -0.273 OA 
HETATM   20  C   UNL     1     -12.429  14.054  70.798  1.00  0.00    -0.372 C  
ENDBRANCH  14  19
BRANCH  17  21
HETATM   21  S   UNL     1      -9.925   9.017  67.060  1.00  0.00    -0.254 S  
HETATM   22  O   UNL     1      -8.738   8.721  67.827  1.00  0.00    -0.134 OA 
HETATM   23  N   UNL     1     -11.030   7.811  67.420  1.00  0.00    -0.531 N  
HETATM   24  O   UNL     1      -9.913   9.130  65.619  1.00  0.00    -0.232 OA 
HETATM   25  H1  UNL     1     -10.577   6.986  67.027  1.00  0.00     0.000 HD 
HETATM   26  H2  UNL     1     -11.924   7.883  67.906  1.00  0.00     0.000 HD 
ENDBRANCH  17  21
ENDBRANCH  10  13
ENDBRANCH   8   9
ENDBRANCH   7   8
ENDBRANCH   2   3
TORSDOF 6
ENDMDL
MODEL       39
REMARK 921   NORMALIZED FREE ENERGY PREDICTED BY IDOCK:   -5.59 KCAL/MOL
REMARK 922        TOTAL FREE ENERGY PREDICTED BY IDOCK:   -8.63 KCAL/MOL
REMARK 923 INTER-LIGAND FREE ENERGY PREDICTED BY IDOCK:   -7.81 KCAL/MOL
REMARK 924 INTRA-LIGAND FREE ENERGY PREDICTED BY IDOCK:   -0.82 KCAL/MOL
REMARK 927      BINDING AFFINITY PREDICTED BY RF-SCORE:    0.00 PKD
ROOT
HETATM    1  C   UNL     1     -10.377   8.970  67.004  1.00  0.00    -0.339 C  
HETATM    2  C   UNL     1     -10.396  10.475  66.756  1.00  0.00    -0.245 C  
ENDROOT
BRANCH   2   3
HETATM    3  N   UNL     1      -9.588  10.873  65.593  1.00  0.00    -0.212 NA 
HETATM    4  C   UNL     1      -8.565   9.877  65.259  1.00  0.00    -0.156 C  
HETATM    5  C   UNL     1      -8.189  10.249  63.841  1.00  0.00    -0.152 C  
HETATM    6  C   UNL     1      -9.517  10.615  63.207  1.00  0.00    -0.360 C  
HETATM    7  C   UNL     1     -10.426  11.032  64.374  1.00  0.00    -0.354 C  
BRANCH   7   8
HETATM    8  C   UNL     1     -10.939  12.482  64.216  1.00  0.00    -0.360 C  
BRANCH   8   9
HETATM    9  N   UNL     1     -10.759  13.313  65.401  1.00  0.00    -0.290 N  
HETATM   10  C   UNL     1     -11.810  14.003  65.984  1.00  0.00    -0.388 C  
HETATM   11  H   UNL     1      -9.830  13.389  65.815  1.00  0.00     0.000 HD 
HETATM   12  O   UNL     1     -12.938  13.984  65.507  1.00  0.00    -0.681 OA 
BRANCH  10  13
HETATM   13  C   UNL     1     -11.483  14.797  67.220  1.00  0.00    -0.378 A  
HETATM   14  C   UNL     1     -10.577  15.882  67.181  1.00  0.00    -0.316 A  
HETATM   15  C   UNL     1     -10.293  16.583  68.366  1.00  0.00    -0.294 A  
HETATM   16  C   UNL     1     -12.056  14.419  68.450  1.00  0.00    -0.278 A  
HETATM   17  C   UNL     1     -11.761  15.137  69.612  1.00  0.00    -0.327 A  
HETATM   18  C   UNL     1     -10.879  16.214  69.576  1.00  0.00    -0.329 A  
BRANCH  14  19
HETATM   19  O   UNL     1     -10.031  16.220  65.972  1.00  0.00    -0.305 OA 
HETATM   20  C   UNL     1      -8.727  16.786  65.959  1.00  0.00    -0.183 C  
ENDBRANCH  14  19
BRANCH  17  21
HETATM   21  S   UNL     1     -12.451  14.638  71.164  1.00  0.00    -0.360 S  
HETATM   22  O   UNL     1     -11.638  15.164  72.233  1.00  0.00    -0.414 OA 
HETATM   23  N   UNL     1     -13.887  15.500  71.196  1.00  0.00    -0.762 N  
HETATM   24  O   UNL     1     -12.826  13.244  71.083  1.00  0.00    -0.334 OA 
HETATM   25  H1  UNL     1     -14.285  15.212  72.090  1.00  0.00     0.000 HD 
HETATM   26  H2  UNL     1     -14.265  16.145  70.503  1.00  0.00     0.000 HD 
ENDBRANCH  17  21
ENDBRANCH  10  13
ENDBRANCH   8   9
ENDBRANCH   7   8
ENDBRANCH   2   3
TORSDOF 6
ENDMDL
MODEL       40
REMARK 921   NORMALIZED FREE ENERGY PREDICTED BY IDOCK:   -5.57 KCAL/MOL
REMARK 922        TOTAL FREE ENERGY PREDICTED BY IDOCK:   -8.61 KCAL/MOL
REMARK 923 INTER-LIGAND FREE ENERGY PREDICTED BY IDOCK:   -7.92 KCAL/MOL
REMARK 924 INTRA-LIGAND FREE ENERGY PREDICTED BY IDOCK:   -0.69 KCAL/MOL
REMARK 927      BINDING AFFINITY PREDICTED BY RF-SCORE:    0.00 PKD
ROOT
HETATM    1  C   UNL     1      -9.851   8.238  66.690  1.00  0.00    -0.337 C  
HETATM    2  C   UNL     1      -9.831   9.347  67.738  1.00  0.00    -0.170 C  
ENDROOT
BRANCH   2   3
HETATM    3  N   UNL     1     -10.734   9.080  68.869  1.00  0.00    -0.172 NA 
HETATM    4  C   UNL     1     -10.262   7.976  69.709  1.00  0.00    -0.206 C  
HETATM    5  C   UNL     1     -11.045   8.173  70.989  1.00  0.00    -0.281 C  
HETATM    6  C   UNL     1     -11.050   9.679  71.172  1.00  0.00    -0.444 C  
HETATM    7  C   UNL     1     -10.852  10.262  69.764  1.00  0.00    -0.287 C  
BRANCH   7   8
HETATM    8  C   UNL     1     -12.025  11.181  69.351  1.00  0.00    -0.349 C  
BRANCH   8   9
HETATM    9  N   UNL     1     -11.698  12.128  68.290  1.00  0.00    -0.331 N  
HETATM   10  C   UNL     1     -11.898  13.492  68.433  1.00  0.00    -0.373 C  
HETATM   11  H   UNL     1     -11.309  11.775  67.416  1.00  0.00     0.000 HD 
HETATM   12  O   UNL     1     -12.401  13.968  69.442  1.00  0.00    -0.333 OA 
BRANCH  10  13
HETATM   13  C   UNL     1     -11.488  14.351  67.267  1.00  0.00    -0.377 A  
HETATM   14  C   UNL     1     -11.779  13.976  65.935  1.00  0.00    -0.366 A  
HETATM   15  C   UNL     1     -11.360  14.805  64.880  1.00  0.00    -0.411 A  
HETATM   16  C   UNL     1     -10.756  15.530  67.508  1.00  0.00    -0.300 A  
HETATM   17  C   UNL     1     -10.358  16.340  66.441  1.00  0.00    -0.314 A  
HETATM   18  C   UNL     1     -10.653  15.981  65.129  1.00  0.00    -0.394 A  
BRANCH  14  19
HETATM   19  O   UNL     1     -12.485  12.820  65.733  1.00  0.00    -0.579 OA 
HETATM   20  C   UNL     1     -12.625  12.343  64.400  1.00  0.00    -0.399 C  
ENDBRANCH  14  19
BRANCH  17  21
HETATM   21  S   UNL     1      -9.405  17.801  66.743  1.00  0.00    -0.289 S  
HETATM   22  O   UNL     1      -8.408  17.936  65.708  1.00  0.00    -0.521 OA 
HETATM   23  N   UNL     1     -10.532  19.010  66.471  1.00  0.00    -0.422 N  
HETATM   24  O   UNL     1      -9.082  17.868  68.151  1.00  0.00    -0.264 OA 
HETATM   25  H1  UNL     1      -9.984  19.852  66.645  1.00  0.00     0.000 HD 
HETATM   26  H2  UNL     1     -11.512  18.926  66.202  1.00  0.00     0.000 HD 
ENDBRANCH  17  21
ENDBRANCH  10  13
ENDBRANCH   8   9
ENDBRANCH   7   8
ENDBRANCH   2   3
TORSDOF 6
ENDMDL
MODEL       41
REMARK 921   NORMALIZED FREE ENERGY PREDICTED BY IDOCK:   -5.57 KCAL/MOL
REMARK 922        TOTAL FREE ENERGY PREDICTED BY IDOCK:   -8.60 KCAL/MOL
REMARK 923 INTER-LIGAND FREE ENERGY PREDICTED BY IDOCK:   -7.67 KCAL/MOL
REMARK 924 INTRA-LIGAND FREE ENERGY PREDICTED BY IDOCK:   -0.94 KCAL/MOL
REMARK 927      BINDING AFFINITY PREDICTED BY RF-SCORE:    0.00 PKD
ROOT
HETATM    1  C   UNL     1     -10.656  19.459  67.570  1.00  0.00    -0.591 C  
HETATM    2  C   UNL     1     -10.668  18.980  66.121  1.00  0.00    -0.323 C  
ENDROOT
BRANCH   2   3
HETATM    3  N   UNL     1      -9.563  18.059  65.814  1.00  0.00    -0.464 NA 
HETATM    4  C   UNL     1      -8.276  18.545  66.323  1.00  0.00    -0.225 C  
HETATM    5  C   UNL     1      -7.419  17.297  66.306  1.00  0.00    -0.354 C  
HETATM    6  C   UNL     1      -8.368  16.210  66.772  1.00  0.00    -0.299 C  
HETATM    7  C   UNL     1      -9.777  16.723  66.433  1.00  0.00    -0.290 C  
BRANCH   7   8
HETATM    8  C   UNL     1     -10.527  15.763  65.482  1.00  0.00    -0.403 C  
BRANCH   8   9
HETATM    9  N   UNL     1     -10.237  14.351  65.708  1.00  0.00    -0.320 N  
HETATM   10  C   UNL     1     -11.236  13.426  65.967  1.00  0.00    -0.296 C  
HETATM   11  H   UNL     1      -9.268  14.034  65.674  1.00  0.00     0.000 HD 
HETATM   12  O   UNL     1     -12.412  13.756  66.062  1.00  0.00    -0.454 OA 
BRANCH  10  13
HETATM   13  C   UNL     1     -10.793  12.000  66.151  1.00  0.00    -0.325 A  
HETATM   14  C   UNL     1     -10.379  11.209  65.053  1.00  0.00    -0.301 A  
HETATM   15  C   UNL     1      -9.989   9.877  65.275  1.00  0.00    -0.320 A  
HETATM   16  C   UNL     1     -10.837  11.427  67.436  1.00  0.00    -0.301 A  
HETATM   17  C   UNL     1     -10.437  10.102  67.630  1.00  0.00    -0.245 A  
HETATM   18  C   UNL     1     -10.017   9.324  66.554  1.00  0.00    -0.344 A  
BRANCH  14  19
HETATM   19  O   UNL     1     -10.354  11.791  63.815  1.00  0.00    -0.329 OA 
HETATM   20  C   UNL     1      -9.400  11.321  62.870  1.00  0.00    -0.352 C  
ENDBRANCH  14  19
BRANCH  17  21
HETATM   21  S   UNL     1     -10.530   9.373  69.240  1.00  0.00    -0.222 S  
HETATM   22  O   UNL     1      -9.473   9.910  70.063  1.00  0.00    -0.231 OA 
HETATM   23  N   UNL     1     -11.959  10.018  69.829  1.00  0.00    -0.475 N  
HETATM   24  O   UNL     1     -10.763   7.953  69.099  1.00  0.00    -0.204 OA 
HETATM   25  H1  UNL     1     -12.013   9.598  70.757  1.00  0.00     0.000 HD 
HETATM   26  H2  UNL     1     -12.607  10.663  69.377  1.00  0.00     0.000 HD 
ENDBRANCH  17  21
ENDBRANCH  10  13
ENDBRANCH   8   9
ENDBRANCH   7   8
ENDBRANCH   2   3
TORSDOF 6
ENDMDL
MODEL       42
REMARK 921   NORMALIZED FREE ENERGY PREDICTED BY IDOCK:   -5.56 KCAL/MOL
REMARK 922        TOTAL FREE ENERGY PREDICTED BY IDOCK:   -8.60 KCAL/MOL
REMARK 923 INTER-LIGAND FREE ENERGY PREDICTED BY IDOCK:   -8.11 KCAL/MOL
REMARK 924 INTRA-LIGAND FREE ENERGY PREDICTED BY IDOCK:   -0.49 KCAL/MOL
REMARK 927      BINDING AFFINITY PREDICTED BY RF-SCORE:    0.00 PKD
ROOT
HETATM    1  C   UNL     1     -11.288   6.589  70.659  1.00  0.00    -0.409 C  
HETATM    2  C   UNL     1     -10.421   7.079  71.815  1.00  0.00    -0.202 C  
ENDROOT
BRANCH   2   3
HETATM    3  N   UNL     1      -9.693   8.317  71.499  1.00  0.00    -0.176 NA 
HETATM    4  C   UNL     1      -8.314   8.059  71.075  1.00  0.00    -0.116 C  
HETATM    5  C   UNL     1      -7.927   9.354  70.394  1.00  0.00    -0.190 C  
HETATM    6  C   UNL     1      -9.182   9.745  69.638  1.00  0.00    -0.239 C  
HETATM    7  C   UNL     1     -10.338   9.060  70.383  1.00  0.00    -0.212 C  
BRANCH   7   8
HETATM    8  C   UNL     1     -11.377  10.083  70.899  1.00  0.00    -0.361 C  
BRANCH   8   9
HETATM    9  N   UNL     1     -11.296  11.391  70.259  1.00  0.00    -0.498 N  
HETATM   10  C   UNL     1     -11.844  11.636  69.010  1.00  0.00    -0.328 C  
HETATM   11  H   UNL     1     -10.820  12.150  70.747  1.00  0.00     0.000 HD 
HETATM   12  O   UNL     1     -12.389  10.753  68.360  1.00  0.00    -0.396 OA 
BRANCH  10  13
HETATM   13  C   UNL     1     -11.709  13.041  68.487  1.00  0.00    -0.377 A  
HETATM   14  C   UNL     1     -11.735  14.157  69.356  1.00  0.00    -0.313 A  
HETATM   15  C   UNL     1     -11.621  15.450  68.817  1.00  0.00    -0.382 A  
HETATM   16  C   UNL     1     -11.604  13.250  67.098  1.00  0.00    -0.402 A  
HETATM   17  C   UNL     1     -11.485  14.546  66.589  1.00  0.00    -0.366 A  
HETATM   18  C   UNL     1     -11.498  15.647  67.442  1.00  0.00    -0.086 A  
BRANCH  14  19
HETATM   19  O   UNL     1     -11.846  13.923  70.700  1.00  0.00    -0.296 OA 
HETATM   20  C   UNL     1     -12.879  14.589  71.415  1.00  0.00    -0.336 C  
ENDBRANCH  14  19
BRANCH  17  21
HETATM   21  S   UNL     1     -11.392  14.808  64.841  1.00  0.00    -0.411 S  
HETATM   22  O   UNL     1     -10.828  16.112  64.589  1.00  0.00    -0.650 OA 
HETATM   23  N   UNL     1     -10.226  13.695  64.387  1.00  0.00    -0.682 N  
HETATM   24  O   UNL     1     -12.626  14.362  64.233  1.00  0.00    -0.676 OA 
HETATM   25  H1  UNL     1     -10.172  13.845  63.380  1.00  0.00     0.000 HD 
HETATM   26  H2  UNL     1      -9.705  13.037  64.967  1.00  0.00     0.000 HD 
ENDBRANCH  17  21
ENDBRANCH  10  13
ENDBRANCH   8   9
ENDBRANCH   7   8
ENDBRANCH   2   3
TORSDOF 6
ENDMDL
MODEL       43
REMARK 921   NORMALIZED FREE ENERGY PREDICTED BY IDOCK:   -5.53 KCAL/MOL
REMARK 922        TOTAL FREE ENERGY PREDICTED BY IDOCK:   -8.55 KCAL/MOL
REMARK 923 INTER-LIGAND FREE ENERGY PREDICTED BY IDOCK:   -7.63 KCAL/MOL
REMARK 924 INTRA-LIGAND FREE ENERGY PREDICTED BY IDOCK:   -0.92 KCAL/MOL
REMARK 927      BINDING AFFINITY PREDICTED BY RF-SCORE:    0.00 PKD
ROOT
HETATM    1  C   UNL     1     -11.076   6.590  70.136  1.00  0.00    -0.410 C  
HETATM    2  C   UNL     1     -10.576   7.945  70.631  1.00  0.00    -0.219 C  
ENDROOT
BRANCH   2   3
HETATM    3  N   UNL     1     -11.552   9.026  70.422  1.00  0.00    -0.180 NA 
HETATM    4  C   UNL     1     -12.102   9.530  71.684  1.00  0.00    -0.398 C  
HETATM    5  C   UNL     1     -12.690  10.865  71.281  1.00  0.00    -0.542 C  
HETATM    6  C   UNL     1     -11.671  11.420  70.304  1.00  0.00    -0.397 C  
HETATM    7  C   UNL     1     -10.934  10.195  69.741  1.00  0.00    -0.280 C  
BRANCH   7   8
HETATM    8  C   UNL     1     -11.066  10.099  68.204  1.00  0.00    -0.230 C  
BRANCH   8   9
HETATM    9  N   UNL     1     -11.264  11.383  67.540  1.00  0.00    -0.279 N  
HETATM   10  C   UNL     1     -10.238  12.036  66.876  1.00  0.00    -0.208 C  
HETATM   11  H   UNL     1     -12.188  11.815  67.566  1.00  0.00     0.000 HD 
HETATM   12  O   UNL     1      -9.099  11.587  66.848  1.00  0.00    -0.169 OA 
BRANCH  10  13
HETATM   13  C   UNL     1     -10.595  13.339  66.213  1.00  0.00    -0.294 A  
HETATM   14  C   UNL     1     -11.561  13.401  65.182  1.00  0.00    -0.308 A  
HETATM   15  C   UNL     1     -11.848  14.640  64.583  1.00  0.00    -0.459 A  
HETATM   16  C   UNL     1      -9.917  14.513  66.595  1.00  0.00    -0.276 A  
HETATM   17  C   UNL     1     -10.227  15.732  65.988  1.00  0.00    -0.333 A  
HETATM   18  C   UNL     1     -11.186  15.800  64.982  1.00  0.00    -0.314 A  
BRANCH  14  19
HETATM   19  O   UNL     1     -12.198  12.242  64.827  1.00  0.00    -0.413 OA 
HETATM   20  C   UNL     1     -12.535  12.053  63.458  1.00  0.00    -0.540 C  
ENDBRANCH  14  19
BRANCH  17  21
HETATM   21  S   UNL     1      -9.347  17.199  66.443  1.00  0.00    -0.247 S  
HETATM   22  O   UNL     1      -8.189  17.338  65.592  1.00  0.00    -0.467 OA 
HETATM   23  N   UNL     1     -10.417  18.401  65.981  1.00  0.00    -0.428 N  
HETATM   24  O   UNL     1      -9.266  17.270  67.885  1.00  0.00    -0.239 OA 
HETATM   25  H1  UNL     1      -9.910  19.247  66.243  1.00  0.00     0.000 HD 
HETATM   26  H2  UNL     1     -11.337  18.312  65.550  1.00  0.00     0.000 HD 
ENDBRANCH  17  21
ENDBRANCH  10  13
ENDBRANCH   8   9
ENDBRANCH   7   8
ENDBRANCH   2   3
TORSDOF 6
ENDMDL
MODEL       44
REMARK 921   NORMALIZED FREE ENERGY PREDICTED BY IDOCK:   -5.50 KCAL/MOL
REMARK 922        TOTAL FREE ENERGY PREDICTED BY IDOCK:   -8.51 KCAL/MOL
REMARK 923 INTER-LIGAND FREE ENERGY PREDICTED BY IDOCK:   -7.34 KCAL/MOL
REMARK 924 INTRA-LIGAND FREE ENERGY PREDICTED BY IDOCK:   -1.17 KCAL/MOL
REMARK 927      BINDING AFFINITY PREDICTED BY RF-SCORE:    0.00 PKD
ROOT
HETATM    1  C   UNL     1      -6.557  10.855  69.227  1.00  0.00    -0.079 C  
HETATM    2  C   UNL     1      -7.247   9.494  69.270  1.00  0.00    -0.063 C  
ENDROOT
BRANCH   2   3
HETATM    3  N   UNL     1      -8.535   9.484  68.558  1.00  0.00    -0.118 NA 
HETATM    4  C   UNL     1      -8.455   8.783  67.273  1.00  0.00    -0.111 C  
HETATM    5  C   UNL     1      -9.908   8.506  66.954  1.00  0.00    -0.310 C  
HETATM    6  C   UNL     1     -10.500   8.130  68.298  1.00  0.00    -0.210 C  
HETATM    7  C   UNL     1      -9.588   8.788  69.346  1.00  0.00    -0.163 C  
BRANCH   7   8
HETATM    8  C   UNL     1     -10.367   9.767  70.254  1.00  0.00    -0.291 C  
BRANCH   8   9
HETATM    9  N   UNL     1     -10.484  11.118  69.715  1.00  0.00    -0.437 N  
HETATM   10  C   UNL     1     -11.644  11.572  69.109  1.00  0.00    -0.316 C  
HETATM   11  H   UNL     1      -9.685  11.749  69.786  1.00  0.00     0.000 HD 
HETATM   12  O   UNL     1     -12.619  10.847  68.956  1.00  0.00    -0.350 OA 
BRANCH  10  13
HETATM   13  C   UNL     1     -11.630  12.997  68.626  1.00  0.00    -0.354 A  
HETATM   14  C   UNL     1     -11.809  14.081  69.517  1.00  0.00    -0.325 A  
HETATM   15  C   UNL     1     -11.804  15.393  69.015  1.00  0.00    -0.357 A  
HETATM   16  C   UNL     1     -11.483  13.254  67.249  1.00  0.00    -0.378 A  
HETATM   17  C   UNL     1     -11.474  14.569  66.776  1.00  0.00    -0.367 A  
HETATM   18  C   UNL     1     -11.638  15.639  67.652  1.00  0.00    -0.089 A  
BRANCH  14  19
HETATM   19  O   UNL     1     -11.957  13.799  70.849  1.00  0.00    -0.312 OA 
HETATM   20  C   UNL     1     -12.092  14.886  71.755  1.00  0.00    -0.360 C  
ENDBRANCH  14  19
BRANCH  17  21
HETATM   21  S   UNL     1     -11.329  14.888  65.041  1.00  0.00    -0.401 S  
HETATM   22  O   UNL     1     -10.709  16.178  64.849  1.00  0.00    -0.612 OA 
HETATM   23  N   UNL     1     -10.195  13.747  64.575  1.00  0.00    -0.675 N  
HETATM   24  O   UNL     1     -12.563  14.513  64.390  1.00  0.00    -0.665 OA 
HETATM   25  H1  UNL     1     -10.111  13.931  63.575  1.00  0.00     0.000 HD 
HETATM   26  H2  UNL     1      -9.714  13.050  65.142  1.00  0.00     0.000 HD 
ENDBRANCH  17  21
ENDBRANCH  10  13
ENDBRANCH   8   9
ENDBRANCH   7   8
ENDBRANCH   2   3
TORSDOF 6
ENDMDL
MODEL       45
REMARK 921   NORMALIZED FREE ENERGY PREDICTED BY IDOCK:   -5.49 KCAL/MOL
REMARK 922        TOTAL FREE ENERGY PREDICTED BY IDOCK:   -8.50 KCAL/MOL
REMARK 923 INTER-LIGAND FREE ENERGY PREDICTED BY IDOCK:   -7.48 KCAL/MOL
REMARK 924 INTRA-LIGAND FREE ENERGY PREDICTED BY IDOCK:   -1.02 KCAL/MOL
REMARK 927      BINDING AFFINITY PREDICTED BY RF-SCORE:    0.00 PKD
ROOT
HETATM    1  C   UNL     1     -11.177  15.969  70.002  1.00  0.00    -0.362 C  
HETATM    2  C   UNL     1     -10.017  16.487  69.157  1.00  0.00    -0.275 C  
ENDROOT
BRANCH   2   3
HETATM    3  N   UNL     1     -10.415  17.564  68.238  1.00  0.00    -0.379 NA 
HETATM    4  C   UNL     1     -10.093  18.893  68.767  1.00  0.00    -0.355 C  
HETATM    5  C   UNL     1     -10.158  19.767  67.533  1.00  0.00    -0.554 C  
HETATM    6  C   UNL     1      -9.528  18.905  66.455  1.00  0.00    -0.361 C  
HETATM    7  C   UNL     1      -9.712  17.456  66.932  1.00  0.00    -0.286 C  
BRANCH   7   8
HETATM    8  C   UNL     1     -10.517  16.614  65.915  1.00  0.00    -0.313 C  
BRANCH   8   9
HETATM    9  N   UNL     1     -10.219  15.186  65.952  1.00  0.00    -0.301 N  
HETATM   10  C   UNL     1     -11.128  14.255  66.430  1.00  0.00    -0.325 C  
HETATM   11  H   UNL     1      -9.312  14.862  65.616  1.00  0.00     0.000 HD 
HETATM   12  O   UNL     1     -12.214  14.589  66.886  1.00  0.00    -0.375 OA 
BRANCH  10  13
HETATM   13  C   UNL     1     -10.695  12.815  66.381  1.00  0.00    -0.282 A  
HETATM   14  C   UNL     1     -10.509  12.142  65.151  1.00  0.00    -0.281 A  
HETATM   15  C   UNL     1     -10.119  10.791  65.159  1.00  0.00    -0.363 A  
HETATM   16  C   UNL     1     -10.518  12.109  67.588  1.00  0.00    -0.225 A  
HETATM   17  C   UNL     1     -10.124  10.769  67.567  1.00  0.00    -0.186 A  
HETATM   18  C   UNL     1      -9.927  10.106  66.358  1.00  0.00    -0.295 A  
BRANCH  14  19
HETATM   19  O   UNL     1     -10.696  12.852  63.996  1.00  0.00    -0.393 OA 
HETATM   20  C   UNL     1     -11.994  12.859  63.414  1.00  0.00    -0.537 C  
ENDBRANCH  14  19
BRANCH  17  21
HETATM   21  S   UNL     1      -9.940   9.874  69.083  1.00  0.00    -0.212 S  
HETATM   22  O   UNL     1      -8.617  10.107  69.611  1.00  0.00    -0.176 OA 
HETATM   23  N   UNL     1     -11.000  10.687  70.094  1.00  0.00    -0.429 N  
HETATM   24  O   UNL     1     -10.489   8.547  68.914  1.00  0.00    -0.215 OA 
HETATM   25  H1  UNL     1     -10.894  10.171  70.968  1.00  0.00     0.000 HD 
HETATM   26  H2  UNL     1     -11.596  11.488  69.889  1.00  0.00     0.000 HD 
ENDBRANCH  17  21
ENDBRANCH  10  13
ENDBRANCH   8   9
ENDBRANCH   7   8
ENDBRANCH   2   3
TORSDOF 6
ENDMDL
MODEL       46
REMARK 921   NORMALIZED FREE ENERGY PREDICTED BY IDOCK:   -5.43 KCAL/MOL
REMARK 922        TOTAL FREE ENERGY PREDICTED BY IDOCK:   -8.42 KCAL/MOL
REMARK 923 INTER-LIGAND FREE ENERGY PREDICTED BY IDOCK:   -7.40 KCAL/MOL
REMARK 924 INTRA-LIGAND FREE ENERGY PREDICTED BY IDOCK:   -1.01 KCAL/MOL
REMARK 927      BINDING AFFINITY PREDICTED BY RF-SCORE:    0.00 PKD
ROOT
HETATM    1  C   UNL     1     -12.154  14.186  64.252  1.00  0.00    -0.471 C  
HETATM    2  C   UNL     1     -12.502  13.954  65.719  1.00  0.00    -0.495 C  
ENDROOT
BRANCH   2   3
HETATM    3  N   UNL     1     -11.318  13.694  66.554  1.00  0.00    -0.311 NA 
HETATM    4  C   UNL     1     -10.066  13.969  65.843  1.00  0.00    -0.321 C  
HETATM    5  C   UNL     1      -9.061  14.076  66.970  1.00  0.00    -0.256 C  
HETATM    6  C   UNL     1      -9.820  14.823  68.051  1.00  0.00    -0.218 C  
HETATM    7  C   UNL     1     -11.306  14.554  67.767  1.00  0.00    -0.317 C  
BRANCH   7   8
HETATM    8  C   UNL     1     -12.006  13.870  68.963  1.00  0.00    -0.364 C  
BRANCH   8   9
HETATM    9  N   UNL     1     -11.249  12.769  69.550  1.00  0.00    -0.464 N  
HETATM   10  C   UNL     1     -11.439  11.453  69.160  1.00  0.00    -0.299 C  
HETATM   11  H   UNL     1     -10.557  12.975  70.271  1.00  0.00     0.000 HD 
HETATM   12  O   UNL     1     -12.284  11.142  68.330  1.00  0.00    -0.610 OA 
BRANCH  10  13
HETATM   13  C   UNL     1     -10.566  10.427  69.830  1.00  0.00    -0.302 A  
HETATM   14  C   UNL     1      -9.188  10.319  69.529  1.00  0.00    -0.170 A  
HETATM   15  C   UNL     1      -8.419   9.334  70.171  1.00  0.00    -0.206 A  
HETATM   16  C   UNL     1     -11.146   9.522  70.741  1.00  0.00    -0.390 A  
HETATM   17  C   UNL     1     -10.357   8.556  71.370  1.00  0.00    -0.239 A  
HETATM   18  C   UNL     1      -8.997   8.455  71.086  1.00  0.00    -0.207 A  
BRANCH  14  19
HETATM   19  O   UNL     1      -8.656  11.208  68.633  1.00  0.00    -0.151 OA 
HETATM   20  C   UNL     1      -7.670  10.735  67.724  1.00  0.00    -0.104 C  
ENDBRANCH  14  19
BRANCH  17  21
HETATM   21  S   UNL     1     -11.095   7.396  72.486  1.00  0.00    -0.329 S  
HETATM   22  O   UNL     1     -10.432   7.484  73.765  1.00  0.00    -0.317 OA 
HETATM   23  N   UNL     1     -12.622   8.049  72.702  1.00  0.00    -0.586 N  
HETATM   24  O   UNL     1     -11.291   6.141  71.795  1.00  0.00    -0.275 OA 
HETATM   25  H1  UNL     1     -13.047   7.381  73.344  1.00  0.00     0.000 HD 
HETATM   26  H2  UNL     1     -13.023   8.894  72.296  1.00  0.00     0.000 HD 
ENDBRANCH  17  21
ENDBRANCH  10  13
ENDBRANCH   8   9
ENDBRANCH   7   8
ENDBRANCH   2   3
TORSDOF 6
ENDMDL
MODEL       47
REMARK 921   NORMALIZED FREE ENERGY PREDICTED BY IDOCK:   -5.43 KCAL/MOL
REMARK 922        TOTAL FREE ENERGY PREDICTED BY IDOCK:   -8.41 KCAL/MOL
REMARK 923 INTER-LIGAND FREE ENERGY PREDICTED BY IDOCK:   -7.59 KCAL/MOL
REMARK 924 INTRA-LIGAND FREE ENERGY PREDICTED BY IDOCK:   -0.82 KCAL/MOL
REMARK 927      BINDING AFFINITY PREDICTED BY RF-SCORE:    0.00 PKD
ROOT
HETATM    1  C   UNL     1      -9.962  19.468  68.544  1.00  0.00    -0.538 C  
HETATM    2  C   UNL     1      -9.879  17.944  68.550  1.00  0.00    -0.367 C  
ENDROOT
BRANCH   2   3
HETATM    3  N   UNL     1     -10.683  17.324  67.485  1.00  0.00    -0.321 NA 
HETATM    4  C   UNL     1     -10.262  17.756  66.148  1.00  0.00    -0.339 C  
HETATM    5  C   UNL     1     -10.875  16.703  65.250  1.00  0.00    -0.194 C  
HETATM    6  C   UNL     1     -10.677  15.416  66.028  1.00  0.00    -0.326 C  
HETATM    7  C   UNL     1     -10.560  15.842  67.500  1.00  0.00    -0.315 C  
BRANCH   7   8
HETATM    8  C   UNL     1     -11.649  15.185  68.379  1.00  0.00    -0.337 C  
BRANCH   8   9
HETATM    9  N   UNL     1     -11.232  13.942  69.018  1.00  0.00    -0.263 N  
HETATM   10  C   UNL     1     -11.570  12.700  68.505  1.00  0.00    -0.323 C  
HETATM   11  H   UNL     1     -10.674  13.988  69.870  1.00  0.00     0.000 HD 
HETATM   12  O   UNL     1     -12.274  12.582  67.509  1.00  0.00    -0.418 OA 
BRANCH  10  13
HETATM   13  C   UNL     1     -11.046  11.504  69.253  1.00  0.00    -0.305 A  
HETATM   14  C   UNL     1      -9.738  11.013  69.036  1.00  0.00    -0.134 A  
HETATM   15  C   UNL     1      -9.300   9.883  69.749  1.00  0.00    -0.248 A  
HETATM   16  C   UNL     1     -11.895  10.831  70.154  1.00  0.00    -0.427 A  
HETATM   17  C   UNL     1     -11.432   9.715  70.855  1.00  0.00    -0.353 A  
HETATM   18  C   UNL     1     -10.141   9.235  70.653  1.00  0.00    -0.339 A  
BRANCH  14  19
HETATM   19  O   UNL     1      -8.939  11.683  68.149  1.00  0.00    -0.168 OA 
HETATM   20  C   UNL     1      -7.601  11.971  68.534  1.00  0.00    -0.126 C  
ENDBRANCH  14  19
BRANCH  17  21
HETATM   21  S   UNL     1     -12.513   8.848  71.957  1.00  0.00    -0.405 S  
HETATM   22  O   UNL     1     -13.579   9.732  72.364  1.00  0.00    -0.407 OA 
HETATM   23  N   UNL     1     -13.206   7.713  70.939  1.00  0.00    -0.564 N  
HETATM   24  O   UNL     1     -11.716   8.101  72.904  1.00  0.00    -0.373 OA 
HETATM   25  H1  UNL     1     -13.829   7.213  71.574  1.00  0.00     0.000 HD 
HETATM   26  H2  UNL     1     -13.047   7.560  69.943  1.00  0.00     0.000 HD 
ENDBRANCH  17  21
ENDBRANCH  10  13
ENDBRANCH   8   9
ENDBRANCH   7   8
ENDBRANCH   2   3
TORSDOF 6
ENDMDL
MODEL       48
REMARK 921   NORMALIZED FREE ENERGY PREDICTED BY IDOCK:   -5.41 KCAL/MOL
REMARK 922        TOTAL FREE ENERGY PREDICTED BY IDOCK:   -8.39 KCAL/MOL
REMARK 923 INTER-LIGAND FREE ENERGY PREDICTED BY IDOCK:   -7.42 KCAL/MOL
REMARK 924 INTRA-LIGAND FREE ENERGY PREDICTED BY IDOCK:   -0.97 KCAL/MOL
REMARK 927      BINDING AFFINITY PREDICTED BY RF-SCORE:    0.00 PKD
ROOT
HETATM    1  C   UNL     1      -9.251   8.402  66.279  1.00  0.00    -0.263 C  
HETATM    2  C   UNL     1     -10.374   9.066  67.071  1.00  0.00    -0.269 C  
ENDROOT
BRANCH   2   3
HETATM    3  N   UNL     1     -10.462   8.580  68.456  1.00  0.00    -0.196 NA 
HETATM    4  C   UNL     1      -9.625   7.398  68.685  1.00  0.00    -0.146 C  
HETATM    5  C   UNL     1      -9.514   7.356  70.194  1.00  0.00    -0.165 C  
HETATM    6  C   UNL     1      -9.364   8.816  70.578  1.00  0.00    -0.219 C  
HETATM    7  C   UNL     1     -10.001   9.609  69.426  1.00  0.00    -0.197 C  
BRANCH   7   8
HETATM    8  C   UNL     1     -11.166  10.500  69.915  1.00  0.00    -0.307 C  
BRANCH   8   9
HETATM    9  N   UNL     1     -10.937  11.931  69.744  1.00  0.00    -0.462 N  
HETATM   10  C   UNL     1     -11.466  12.639  68.677  1.00  0.00    -0.308 C  
HETATM   11  H   UNL     1     -10.369  12.426  70.432  1.00  0.00     0.000 HD 
HETATM   12  O   UNL     1     -12.119  12.091  67.798  1.00  0.00    -0.537 OA 
BRANCH  10  13
HETATM   13  C   UNL     1     -11.172  14.115  68.645  1.00  0.00    -0.291 A  
HETATM   14  C   UNL     1     -11.326  14.923  69.796  1.00  0.00    -0.283 A  
HETATM   15  C   UNL     1     -11.053  16.299  69.711  1.00  0.00    -0.337 A  
HETATM   16  C   UNL     1     -10.780  14.711  67.431  1.00  0.00    -0.280 A  
HETATM   17  C   UNL     1     -10.508  16.080  67.375  1.00  0.00    -0.308 A  
HETATM   18  C   UNL     1     -10.647  16.878  68.509  1.00  0.00    -0.367 A  
BRANCH  14  19
HETATM   19  O   UNL     1     -11.715  14.316  70.960  1.00  0.00    -0.276 OA 
HETATM   20  C   UNL     1     -12.998  14.633  71.486  1.00  0.00    -0.339 C  
ENDBRANCH  14  19
BRANCH  17  21
HETATM   21  S   UNL     1     -10.054  16.834  65.839  1.00  0.00    -0.264 S  
HETATM   22  O   UNL     1     -10.907  16.324  64.793  1.00  0.00    -0.671 OA 
HETATM   23  N   UNL     1     -10.514  18.426  66.087  1.00  0.00    -0.428 N  
HETATM   24  O   UNL     1      -8.612  16.848  65.732  1.00  0.00    -0.505 OA 
HETATM   25  H1  UNL     1     -10.252  18.860  65.202  1.00  0.00     0.000 HD 
HETATM   26  H2  UNL     1     -10.944  18.850  66.909  1.00  0.00     0.000 HD 
ENDBRANCH  17  21
ENDBRANCH  10  13
ENDBRANCH   8   9
ENDBRANCH   7   8
ENDBRANCH   2   3
TORSDOF 6
ENDMDL
MODEL       49
REMARK 921   NORMALIZED FREE ENERGY PREDICTED BY IDOCK:   -5.41 KCAL/MOL
REMARK 922        TOTAL FREE ENERGY PREDICTED BY IDOCK:   -8.39 KCAL/MOL
REMARK 923 INTER-LIGAND FREE ENERGY PREDICTED BY IDOCK:   -8.08 KCAL/MOL
REMARK 924 INTRA-LIGAND FREE ENERGY PREDICTED BY IDOCK:   -0.31 KCAL/MOL
REMARK 927      BINDING AFFINITY PREDICTED BY RF-SCORE:    0.00 PKD
ROOT
HETATM    1  C   UNL     1      -9.301  10.339  69.119  1.00  0.00    -0.214 C  
HETATM    2  C   UNL     1      -9.580   9.589  70.419  1.00  0.00    -0.269 C  
ENDROOT
BRANCH   2   3
HETATM    3  N   UNL     1     -10.856   8.857  70.394  1.00  0.00    -0.230 NA 
HETATM    4  C   UNL     1     -10.668   7.418  70.189  1.00  0.00    -0.242 C  
HETATM    5  C   UNL     1     -11.993   6.841  70.639  1.00  0.00    -0.418 C  
HETATM    6  C   UNL     1     -12.343   7.672  71.859  1.00  0.00    -0.337 C  
HETATM    7  C   UNL     1     -11.592   9.000  71.679  1.00  0.00    -0.356 C  
BRANCH   7   8
HETATM    8  C   UNL     1     -12.557  10.209  71.656  1.00  0.00    -0.434 C  
BRANCH   8   9
HETATM    9  N   UNL     1     -12.131  11.297  70.782  1.00  0.00    -0.364 N  
HETATM   10  C   UNL     1     -12.612  12.588  70.927  1.00  0.00    -0.241 C  
HETATM   11  H   UNL     1     -11.459  11.100  70.041  1.00  0.00     0.000 HD 
HETATM   12  O   UNL     1     -13.452  12.874  71.770  1.00  0.00    -0.395 OA 
BRANCH  10  13
HETATM   13  C   UNL     1     -12.063  13.614  69.972  1.00  0.00    -0.417 A  
HETATM   14  C   UNL     1     -11.512  14.832  70.435  1.00  0.00    -0.252 A  
HETATM   15  C   UNL     1     -11.026  15.765  69.502  1.00  0.00    -0.295 A  
HETATM   16  C   UNL     1     -12.143  13.376  68.586  1.00  0.00    -0.281 A  
HETATM   17  C   UNL     1     -11.646  14.317  67.681  1.00  0.00    -0.368 A  
HETATM   18  C   UNL     1     -11.092  15.512  68.133  1.00  0.00    -0.325 A  
BRANCH  14  19
HETATM   19  O   UNL     1     -11.455  15.039  71.787  1.00  0.00    -0.381 OA 
HETATM   20  C   UNL     1     -12.097  16.192  72.318  1.00  0.00    -0.531 C  
ENDBRANCH  14  19
BRANCH  17  21
HETATM   21  S   UNL     1     -11.783  14.032  65.939  1.00  0.00    -0.381 S  
HETATM   22  O   UNL     1     -13.174  14.089  65.560  1.00  0.00    -0.710 OA 
HETATM   23  N   UNL     1     -11.066  15.408  65.308  1.00  0.00    -0.367 N  
HETATM   24  O   UNL     1     -10.921  12.930  65.575  1.00  0.00    -0.271 OA 
HETATM   25  H1  UNL     1     -11.145  15.244  64.304  1.00  0.00     0.000 HD 
HETATM   26  H2  UNL     1     -10.657  16.202  65.798  1.00  0.00     0.000 HD 
ENDBRANCH  17  21
ENDBRANCH  10  13
ENDBRANCH   8   9
ENDBRANCH   7   8
ENDBRANCH   2   3
TORSDOF 6
ENDMDL
MODEL       50
REMARK 921   NORMALIZED FREE ENERGY PREDICTED BY IDOCK:   -5.39 KCAL/MOL
REMARK 922        TOTAL FREE ENERGY PREDICTED BY IDOCK:   -8.37 KCAL/MOL
REMARK 923 INTER-LIGAND FREE ENERGY PREDICTED BY IDOCK:   -7.42 KCAL/MOL
REMARK 924 INTRA-LIGAND FREE ENERGY PREDICTED BY IDOCK:   -0.95 KCAL/MOL
REMARK 927      BINDING AFFINITY PREDICTED BY RF-SCORE:    0.00 PKD
ROOT
HETATM    1  C   UNL     1     -12.592  12.023  63.429  1.00  0.00    -0.592 C  
HETATM    2  C   UNL     1     -11.067  12.043  63.497  1.00  0.00    -0.443 C  
ENDROOT
BRANCH   2   3
HETATM    3  N   UNL     1     -10.530  11.154  64.540  1.00  0.00    -0.338 NA 
HETATM    4  C   UNL     1      -9.595  10.163  63.999  1.00  0.00    -0.257 C  
HETATM    5  C   UNL     1      -8.857   9.693  65.234  1.00  0.00    -0.204 C  
HETATM    6  C   UNL     1      -8.661  10.966  66.034  1.00  0.00    -0.179 C  
HETATM    7  C   UNL     1      -9.776  11.917  65.571  1.00  0.00    -0.215 C  
BRANCH   7   8
HETATM    8  C   UNL     1     -10.686  12.352  66.743  1.00  0.00    -0.234 C  
BRANCH   8   9
HETATM    9  N   UNL     1     -10.397  13.685  67.261  1.00  0.00    -0.248 N  
HETATM   10  C   UNL     1     -11.060  14.812  66.804  1.00  0.00    -0.338 C  
HETATM   11  H   UNL     1      -9.684  13.790  67.982  1.00  0.00     0.000 HD 
HETATM   12  O   UNL     1     -11.895  14.753  65.910  1.00  0.00    -0.314 OA 
BRANCH  10  13
HETATM   13  C   UNL     1     -10.679  16.117  67.450  1.00  0.00    -0.291 A  
HETATM   14  C   UNL     1     -10.689  16.276  68.856  1.00  0.00    -0.300 A  
HETATM   15  C   UNL     1     -10.340  17.519  69.410  1.00  0.00    -0.067 A  
HETATM   16  C   UNL     1     -10.351  17.218  66.635  1.00  0.00    -0.305 A  
HETATM   17  C   UNL     1     -10.001  18.441  67.212  1.00  0.00    -0.335 A  
HETATM   18  C   UNL     1      -9.998  18.597  68.596  1.00  0.00    -0.431 A  
BRANCH  14  19
HETATM   19  O   UNL     1     -11.020  15.190  69.622  1.00  0.00    -0.255 OA 
HETATM   20  C   UNL     1     -12.236  15.232  70.357  1.00  0.00    -0.363 C  
ENDBRANCH  14  19
BRANCH  17  21
HETATM   21  S   UNL     1      -9.627  19.833  66.184  1.00  0.00    -0.358 S  
HETATM   22  O   UNL     1     -10.774  20.134  65.362  1.00  0.00    -0.337 OA 
HETATM   23  N   UNL     1      -9.516  21.071  67.308  1.00  0.00    -0.626 N  
HETATM   24  O   UNL     1      -8.298  19.670  65.639  1.00  0.00    -0.385 OA 
HETATM   25  H1  UNL     1      -9.300  21.873  66.716  1.00  0.00     0.000 HD 
HETATM   26  H2  UNL     1      -9.633  21.032  68.320  1.00  0.00     0.000 HD 
ENDBRANCH  17  21
ENDBRANCH  10  13
ENDBRANCH   8   9
ENDBRANCH   7   8
ENDBRANCH   2   3
TORSDOF 6
ENDMDL
MODEL       51
REMARK 921   NORMALIZED FREE ENERGY PREDICTED BY IDOCK:   -5.36 KCAL/MOL
REMARK 922        TOTAL FREE ENERGY PREDICTED BY IDOCK:   -8.32 KCAL/MOL
REMARK 923 INTER-LIGAND FREE ENERGY PREDICTED BY IDOCK:   -7.38 KCAL/MOL
REMARK 924 INTRA-LIGAND FREE ENERGY PREDICTED BY IDOCK:   -0.94 KCAL/MOL
REMARK 927      BINDING AFFINITY PREDICTED BY RF-SCORE:    0.00 PKD
ROOT
HETATM    1  C   UNL     1      -9.380   3.195  70.519  1.00  0.00    -0.227 C  
HETATM    2  C   UNL     1      -9.157   4.674  70.215  1.00  0.00    -0.109 C  
ENDROOT
BRANCH   2   3
HETATM    3  N   UNL     1     -10.386   5.475  70.337  1.00  0.00    -0.255 NA 
HETATM    4  C   UNL     1     -10.866   5.548  71.721  1.00  0.00    -0.211 C  
HETATM    5  C   UNL     1     -11.811   6.730  71.683  1.00  0.00    -0.370 C  
HETATM    6  C   UNL     1     -11.099   7.723  70.784  1.00  0.00    -0.265 C  
HETATM    7  C   UNL     1     -10.169   6.879  69.898  1.00  0.00    -0.199 C  
BRANCH   7   8
HETATM    8  C   UNL     1     -10.480   7.065  68.395  1.00  0.00    -0.201 C  
BRANCH   8   9
HETATM    9  N   UNL     1     -10.933   8.406  68.040  1.00  0.00    -0.464 N  
HETATM   10  C   UNL     1     -10.057   9.389  67.609  1.00  0.00    -0.211 C  
HETATM   11  H   UNL     1     -11.926   8.626  68.111  1.00  0.00     0.000 HD 
HETATM   12  O   UNL     1      -8.850   9.195  67.545  1.00  0.00    -0.119 OA 
BRANCH  10  13
HETATM   13  C   UNL     1     -10.670  10.716  67.249  1.00  0.00    -0.338 A  
HETATM   14  C   UNL     1     -11.207  11.573  68.238  1.00  0.00    -0.261 A  
HETATM   15  C   UNL     1     -11.782  12.795  67.849  1.00  0.00    -0.408 A  
HETATM   16  C   UNL     1     -10.751  11.090  65.894  1.00  0.00    -0.226 A  
HETATM   17  C   UNL     1     -11.322  12.313  65.535  1.00  0.00    -0.349 A  
HETATM   18  C   UNL     1     -11.841  13.166  66.506  1.00  0.00    -0.456 A  
BRANCH  14  19
HETATM   19  O   UNL     1     -11.119  11.179  69.546  1.00  0.00    -0.243 OA 
HETATM   20  C   UNL     1     -12.304  11.192  70.332  1.00  0.00    -0.344 C  
ENDBRANCH  14  19
BRANCH  17  21
HETATM   21  S   UNL     1     -11.459  12.764  63.829  1.00  0.00    -0.483 S  
HETATM   22  O   UNL     1     -10.198  12.513  63.172  1.00  0.00    -0.292 OA 
HETATM   23  N   UNL     1     -12.527  11.609  63.252  1.00  0.00    -0.900 N  
HETATM   24  O   UNL     1     -12.150  14.030  63.731  1.00  0.00    -0.447 OA 
HETATM   25  H1  UNL     1     -12.606  11.868  62.269  1.00  0.00     0.000 HD 
HETATM   26  H2  UNL     1     -12.981  10.846  63.754  1.00  0.00     0.000 HD 
ENDBRANCH  17  21
ENDBRANCH  10  13
ENDBRANCH   8   9
ENDBRANCH   7   8
ENDBRANCH   2   3
TORSDOF 6
ENDMDL
MODEL       52
REMARK 921   NORMALIZED FREE ENERGY PREDICTED BY IDOCK:   -5.35 KCAL/MOL
REMARK 922        TOTAL FREE ENERGY PREDICTED BY IDOCK:   -8.31 KCAL/MOL
REMARK 923 INTER-LIGAND FREE ENERGY PREDICTED BY IDOCK:   -7.47 KCAL/MOL
REMARK 924 INTRA-LIGAND FREE ENERGY PREDICTED BY IDOCK:   -0.84 KCAL/MOL
REMARK 927      BINDING AFFINITY PREDICTED BY RF-SCORE:    0.00 PKD
ROOT
HETATM    1  C   UNL     1     -11.924  14.712  64.789  1.00  0.00    -0.439 C  
HETATM    2  C   UNL     1     -12.777  13.606  65.403  1.00  0.00    -0.453 C  
ENDROOT
BRANCH   2   3
HETATM    3  N   UNL     1     -12.097  12.301  65.417  1.00  0.00    -0.518 NA 
HETATM    4  C   UNL     1     -11.504  11.969  64.118  1.00  0.00    -0.383 C  
HETATM    5  C   UNL     1     -10.520  10.875  64.471  1.00  0.00    -0.393 C  
HETATM    6  C   UNL     1      -9.926  11.344  65.786  1.00  0.00    -0.271 C  
HETATM    7  C   UNL     1     -10.982  12.278  66.400  1.00  0.00    -0.287 C  
BRANCH   7   8
HETATM    8  C   UNL     1     -11.450  11.782  67.788  1.00  0.00    -0.311 C  
BRANCH   8   9
HETATM    9  N   UNL     1     -11.425  10.332  67.944  1.00  0.00    -0.460 N  
HETATM   10  C   UNL     1     -10.497   9.694  68.752  1.00  0.00    -0.215 C  
HETATM   11  H   UNL     1     -12.113   9.769  67.443  1.00  0.00     0.000 HD 
HETATM   12  O   UNL     1      -9.622  10.313  69.344  1.00  0.00    -0.213 OA 
BRANCH  10  13
HETATM   13  C   UNL     1     -10.610   8.195  68.841  1.00  0.00    -0.161 A  
HETATM   14  C   UNL     1     -11.016   7.555  70.035  1.00  0.00    -0.240 A  
HETATM   15  C   UNL     1     -11.090   6.152  70.072  1.00  0.00    -0.462 A  
HETATM   16  C   UNL     1     -10.255   7.413  67.725  1.00  0.00    -0.250 A  
HETATM   17  C   UNL     1     -10.345   6.020  67.786  1.00  0.00    -0.204 A  
HETATM   18  C   UNL     1     -10.756   5.386  68.956  1.00  0.00    -0.144 A  
BRANCH  14  19
HETATM   19  O   UNL     1     -11.347   8.342  71.105  1.00  0.00    -0.255 OA 
HETATM   20  C   UNL     1     -12.715   8.416  71.488  1.00  0.00    -0.308 C  
ENDBRANCH  14  19
BRANCH  17  21
HETATM   21  S   UNL     1      -9.862   5.037  66.395  1.00  0.00    -0.224 S  
HETATM   22  O   UNL     1      -9.510   3.714  66.852  1.00  0.00    -0.191 OA 
HETATM   23  N   UNL     1     -11.309   4.879  65.566  1.00  0.00    -0.942 N  
HETATM   24  O   UNL     1      -8.998   5.822  65.543  1.00  0.00    -0.151 OA 
HETATM   25  H1  UNL     1     -11.031   4.313  64.764  1.00  0.00     0.000 HD 
HETATM   26  H2  UNL     1     -12.228   5.252  65.801  1.00  0.00     0.000 HD 
ENDBRANCH  17  21
ENDBRANCH  10  13
ENDBRANCH   8   9
ENDBRANCH   7   8
ENDBRANCH   2   3
TORSDOF 6
ENDMDL
MODEL       53
REMARK 921   NORMALIZED FREE ENERGY PREDICTED BY IDOCK:   -5.32 KCAL/MOL
REMARK 922        TOTAL FREE ENERGY PREDICTED BY IDOCK:   -8.27 KCAL/MOL
REMARK 923 INTER-LIGAND FREE ENERGY PREDICTED BY IDOCK:   -7.47 KCAL/MOL
REMARK 924 INTRA-LIGAND FREE ENERGY PREDICTED BY IDOCK:   -0.80 KCAL/MOL
REMARK 927      BINDING AFFINITY PREDICTED BY RF-SCORE:    0.00 PKD
ROOT
HETATM    1  C   UNL     1     -10.850  15.818  64.968  1.00  0.00    -0.461 C  
HETATM    2  C   UNL     1     -12.218  15.435  64.410  1.00  0.00    -0.151 C  
ENDROOT
BRANCH   2   3
HETATM    3  N   UNL     1     -12.477  13.988  64.474  1.00  0.00    -0.646 NA 
HETATM    4  C   UNL     1     -12.285  13.331  63.178  1.00  0.00    -0.145 C  
HETATM    5  C   UNL     1     -12.156  11.872  63.561  1.00  0.00    -0.575 C  
HETATM    6  C   UNL     1     -11.327  11.911  64.830  1.00  0.00    -0.337 C  
HETATM    7  C   UNL     1     -11.555  13.310  65.424  1.00  0.00    -0.321 C  
BRANCH   7   8
HETATM    8  C   UNL     1     -12.150  13.240  66.850  1.00  0.00    -0.332 C  
BRANCH   8   9
HETATM    9  N   UNL     1     -11.661  12.120  67.647  1.00  0.00    -0.337 N  
HETATM   10  C   UNL     1     -11.392  12.241  69.001  1.00  0.00    -0.280 C  
HETATM   11  H   UNL     1     -11.513  11.218  67.193  1.00  0.00     0.000 HD 
HETATM   12  O   UNL     1     -11.510  13.308  69.590  1.00  0.00    -0.258 OA 
BRANCH  10  13
HETATM   13  C   UNL     1     -10.922  10.994  69.701  1.00  0.00    -0.286 A  
HETATM   14  C   UNL     1      -9.590  10.535  69.576  1.00  0.00    -0.098 A  
HETATM   15  C   UNL     1      -9.203   9.357  70.237  1.00  0.00    -0.285 A  
HETATM   16  C   UNL     1     -11.842  10.243  70.458  1.00  0.00    -0.419 A  
HETATM   17  C   UNL     1     -11.429   9.079  71.111  1.00  0.00    -0.308 A  
HETATM   18  C   UNL     1     -10.116   8.630  71.000  1.00  0.00    -0.273 A  
BRANCH  14  19
HETATM   19  O   UNL     1      -8.721  11.283  68.826  1.00  0.00    -0.157 OA 
HETATM   20  C   UNL     1      -8.301  10.766  67.570  1.00  0.00    -0.115 C  
ENDBRANCH  14  19
BRANCH  17  21
HETATM   21  S   UNL     1     -12.596   8.116  72.030  1.00  0.00    -0.320 S  
HETATM   22  O   UNL     1     -13.034   7.005  71.219  1.00  0.00    -0.378 OA 
HETATM   23  N   UNL     1     -11.633   7.466  73.237  1.00  0.00    -0.521 N  
HETATM   24  O   UNL     1     -13.521   9.007  72.694  1.00  0.00    -0.463 OA 
HETATM   25  H1  UNL     1     -12.305   6.912  73.767  1.00  0.00     0.000 HD 
HETATM   26  H2  UNL     1     -10.635   7.593  73.400  1.00  0.00     0.000 HD 
ENDBRANCH  17  21
ENDBRANCH  10  13
ENDBRANCH   8   9
ENDBRANCH   7   8
ENDBRANCH   2   3
TORSDOF 6
ENDMDL
MODEL       54
REMARK 921   NORMALIZED FREE ENERGY PREDICTED BY IDOCK:   -5.31 KCAL/MOL
REMARK 922        TOTAL FREE ENERGY PREDICTED BY IDOCK:   -8.26 KCAL/MOL
REMARK 923 INTER-LIGAND FREE ENERGY PREDICTED BY IDOCK:   -7.28 KCAL/MOL
REMARK 924 INTRA-LIGAND FREE ENERGY PREDICTED BY IDOCK:   -0.97 KCAL/MOL
REMARK 927      BINDING AFFINITY PREDICTED BY RF-SCORE:    0.00 PKD
ROOT
HETATM    1  C   UNL     1      -9.628  18.837  67.026  1.00  0.00    -0.329 C  
HETATM    2  C   UNL     1     -10.136  17.435  66.702  1.00  0.00    -0.317 C  
ENDROOT
BRANCH   2   3
HETATM    3  N   UNL     1     -10.197  16.561  67.884  1.00  0.00    -0.264 NA 
HETATM    4  C   UNL     1     -10.344  17.320  69.129  1.00  0.00    -0.290 C  
HETATM    5  C   UNL     1     -10.827  16.268  70.105  1.00  0.00    -0.299 C  
HETATM    6  C   UNL     1     -11.794  15.440  69.282  1.00  0.00    -0.365 C  
HETATM    7  C   UNL     1     -11.361  15.637  67.820  1.00  0.00    -0.261 C  
BRANCH   7   8
HETATM    8  C   UNL     1     -10.993  14.297  67.142  1.00  0.00    -0.302 C  
BRANCH   8   9
HETATM    9  N   UNL     1     -10.627  13.236  68.075  1.00  0.00    -0.234 N  
HETATM   10  C   UNL     1     -11.231  11.989  68.046  1.00  0.00    -0.258 C  
HETATM   11  H   UNL     1      -9.903  13.418  68.770  1.00  0.00     0.000 HD 
HETATM   12  O   UNL     1     -12.135  11.728  67.263  1.00  0.00    -0.595 OA 
BRANCH  10  13
HETATM   13  C   UNL     1     -10.732  10.984  69.049  1.00  0.00    -0.258 A  
HETATM   14  C   UNL     1      -9.381  10.568  69.066  1.00  0.00    -0.196 A  
HETATM   15  C   UNL     1      -8.967   9.614  70.013  1.00  0.00    -0.266 A  
HETATM   16  C   UNL     1     -11.643  10.410  69.957  1.00  0.00    -0.378 A  
HETATM   17  C   UNL     1     -11.204   9.469  70.892  1.00  0.00    -0.341 A  
HETATM   18  C   UNL     1      -9.872   9.066  70.921  1.00  0.00    -0.330 A  
BRANCH  14  19
HETATM   19  O   UNL     1      -8.521  11.138  68.166  1.00  0.00    -0.126 OA 
HETATM   20  C   UNL     1      -8.102  10.360  67.052  1.00  0.00    -0.116 C  
ENDBRANCH  14  19
BRANCH  17  21
HETATM   21  S   UNL     1     -12.357   8.721  72.007  1.00  0.00    -0.392 S  
HETATM   22  O   UNL     1     -13.396   9.672  72.321  1.00  0.00    -0.438 OA 
HETATM   23  N   UNL     1     -13.066   7.553  71.038  1.00  0.00    -0.583 N  
HETATM   24  O   UNL     1     -11.626   8.002  73.026  1.00  0.00    -0.346 OA 
HETATM   25  H1  UNL     1     -13.731   7.122  71.680  1.00  0.00     0.000 HD 
HETATM   26  H2  UNL     1     -12.882   7.331  70.060  1.00  0.00     0.000 HD 
ENDBRANCH  17  21
ENDBRANCH  10  13
ENDBRANCH   8   9
ENDBRANCH   7   8
ENDBRANCH   2   3
TORSDOF 6
ENDMDL
MODEL       55
REMARK 921   NORMALIZED FREE ENERGY PREDICTED BY IDOCK:   -5.31 KCAL/MOL
REMARK 922        TOTAL FREE ENERGY PREDICTED BY IDOCK:   -8.25 KCAL/MOL
REMARK 923 INTER-LIGAND FREE ENERGY PREDICTED BY IDOCK:   -7.35 KCAL/MOL
REMARK 924 INTRA-LIGAND FREE ENERGY PREDICTED BY IDOCK:   -0.90 KCAL/MOL
REMARK 927      BINDING AFFINITY PREDICTED BY RF-SCORE:    0.00 PKD
ROOT
HETATM    1  C   UNL     1     -10.777  18.430  67.215  1.00  0.00    -0.389 C  
HETATM    2  C   UNL     1     -10.264  17.063  67.661  1.00  0.00    -0.317 C  
ENDROOT
BRANCH   2   3
HETATM    3  N   UNL     1     -10.783  15.961  66.836  1.00  0.00    -0.315 NA 
HETATM    4  C   UNL     1     -10.347  16.058  65.440  1.00  0.00    -0.359 C  
HETATM    5  C   UNL     1     -10.594  14.659  64.917  1.00  0.00    -0.446 C  
HETATM    6  C   UNL     1     -10.170  13.770  66.070  1.00  0.00    -0.315 C  
HETATM    7  C   UNL     1     -10.308  14.640  67.329  1.00  0.00    -0.256 C  
BRANCH   7   8
HETATM    8  C   UNL     1     -11.289  14.022  68.352  1.00  0.00    -0.291 C  
BRANCH   8   9
HETATM    9  N   UNL     1     -10.750  12.880  69.082  1.00  0.00    -0.439 N  
HETATM   10  C   UNL     1     -11.219  11.591  68.884  1.00  0.00    -0.247 C  
HETATM   11  H   UNL     1     -10.004  13.034  69.760  1.00  0.00     0.000 HD 
HETATM   12  O   UNL     1     -12.142  11.351  68.115  1.00  0.00    -0.623 OA 
BRANCH  10  13
HETATM   13  C   UNL     1     -10.550  10.507  69.685  1.00  0.00    -0.281 A  
HETATM   14  C   UNL     1      -9.155  10.287  69.607  1.00  0.00    -0.125 A  
HETATM   15  C   UNL     1      -8.579   9.252  70.364  1.00  0.00    -0.250 A  
HETATM   16  C   UNL     1     -11.338   9.665  70.494  1.00  0.00    -0.360 A  
HETATM   17  C   UNL     1     -10.739   8.648  71.241  1.00  0.00    -0.254 A  
HETATM   18  C   UNL     1      -9.364   8.435  71.177  1.00  0.00    -0.223 A  
BRANCH  14  19
HETATM   19  O   UNL     1      -8.417  11.117  68.807  1.00  0.00    -0.156 OA 
HETATM   20  C   UNL     1      -7.995  10.629  67.540  1.00  0.00    -0.110 C  
ENDBRANCH  14  19
BRANCH  17  21
HETATM   21  S   UNL     1     -11.736   7.565  72.226  1.00  0.00    -0.292 S  
HETATM   22  O   UNL     1     -11.034   7.262  73.451  1.00  0.00    -0.358 OA 
HETATM   23  N   UNL     1     -13.013   8.563  72.650  1.00  0.00    -0.625 N  
HETATM   24  O   UNL     1     -12.296   6.540  71.375  1.00  0.00    -0.324 OA 
HETATM   25  H1  UNL     1     -13.587   7.940  73.217  1.00  0.00     0.000 HD 
HETATM   26  H2  UNL     1     -13.174   9.539  72.404  1.00  0.00     0.000 HD 
ENDBRANCH  17  21
ENDBRANCH  10  13
ENDBRANCH   8   9
ENDBRANCH   7   8
ENDBRANCH   2   3
TORSDOF 6
ENDMDL
MODEL       56
REMARK 921   NORMALIZED FREE ENERGY PREDICTED BY IDOCK:   -5.30 KCAL/MOL
REMARK 922        TOTAL FREE ENERGY PREDICTED BY IDOCK:   -8.25 KCAL/MOL
REMARK 923 INTER-LIGAND FREE ENERGY PREDICTED BY IDOCK:   -7.41 KCAL/MOL
REMARK 924 INTRA-LIGAND FREE ENERGY PREDICTED BY IDOCK:   -0.84 KCAL/MOL
REMARK 927      BINDING AFFINITY PREDICTED BY RF-SCORE:    0.00 PKD
ROOT
HETATM    1  C   UNL     1     -10.872  19.213  67.374  1.00  0.00    -0.533 C  
HETATM    2  C   UNL     1      -9.672  18.864  68.250  1.00  0.00    -0.361 C  
ENDROOT
BRANCH   2   3
HETATM    3  N   UNL     1      -8.622  18.137  67.520  1.00  0.00    -0.247 NA 
HETATM    4  C   UNL     1      -8.130  18.886  66.360  1.00  0.00    -0.292 C  
HETATM    5  C   UNL     1      -6.816  18.201  66.055  1.00  0.00    -0.318 C  
HETATM    6  C   UNL     1      -6.233  17.925  67.427  1.00  0.00    -0.167 C  
HETATM    7  C   UNL     1      -7.437  17.878  68.381  1.00  0.00    -0.272 C  
BRANCH   7   8
HETATM    8  C   UNL     1      -7.543  16.519  69.110  1.00  0.00    -0.210 C  
BRANCH   8   9
HETATM    9  N   UNL     1      -8.411  15.551  68.447  1.00  0.00    -0.158 N  
HETATM   10  C   UNL     1      -7.935  14.665  67.495  1.00  0.00    -0.190 C  
HETATM   11  H   UNL     1      -9.401  15.527  68.694  1.00  0.00     0.000 HD 
HETATM   12  O   UNL     1      -6.767  14.677  67.128  1.00  0.00    -0.233 OA 
BRANCH  10  13
HETATM   13  C   UNL     1      -8.940  13.704  66.917  1.00  0.00    -0.229 A  
HETATM   14  C   UNL     1      -8.846  12.312  67.147  1.00  0.00    -0.194 A  
HETATM   15  C   UNL     1      -9.800  11.455  66.572  1.00  0.00    -0.237 A  
HETATM   16  C   UNL     1      -9.968  14.200  66.091  1.00  0.00    -0.328 A  
HETATM   17  C   UNL     1     -10.907  13.326  65.538  1.00  0.00    -0.284 A  
HETATM   18  C   UNL     1     -10.826  11.956  65.772  1.00  0.00    -0.341 A  
BRANCH  14  19
HETATM   19  O   UNL     1      -7.832  11.860  67.948  1.00  0.00    -0.121 OA 
HETATM   20  C   UNL     1      -7.795  10.475  68.268  1.00  0.00    -0.111 C  
ENDBRANCH  14  19
BRANCH  17  21
HETATM   21  S   UNL     1     -12.175  13.946  64.468  1.00  0.00    -0.396 S  
HETATM   22  O   UNL     1     -13.360  14.212  65.247  1.00  0.00    -0.715 OA 
HETATM   23  N   UNL     1     -11.555  15.439  64.029  1.00  0.00    -0.808 N  
HETATM   24  O   UNL     1     -12.198  13.153  63.260  1.00  0.00    -0.660 OA 
HETATM   25  H1  UNL     1     -12.285  15.796  63.413  1.00  0.00     0.000 HD 
HETATM   26  H2  UNL     1     -10.677  15.877  64.305  1.00  0.00     0.000 HD 
ENDBRANCH  17  21
ENDBRANCH  10  13
ENDBRANCH   8   9
ENDBRANCH   7   8
ENDBRANCH   2   3
TORSDOF 6
ENDMDL
MODEL       57
REMARK 921   NORMALIZED FREE ENERGY PREDICTED BY IDOCK:   -5.30 KCAL/MOL
REMARK 922        TOTAL FREE ENERGY PREDICTED BY IDOCK:   -8.24 KCAL/MOL
REMARK 923 INTER-LIGAND FREE ENERGY PREDICTED BY IDOCK:   -7.09 KCAL/MOL
REMARK 924 INTRA-LIGAND FREE ENERGY PREDICTED BY IDOCK:   -1.15 KCAL/MOL
REMARK 927      BINDING AFFINITY PREDICTED BY RF-SCORE:    0.00 PKD
ROOT
HETATM    1  C   UNL     1     -10.554  19.253  67.434  1.00  0.00    -0.594 C  
HETATM    2  C   UNL     1     -10.420  18.089  66.456  1.00  0.00    -0.334 C  
ENDROOT
BRANCH   2   3
HETATM    3  N   UNL     1      -9.793  16.903  67.060  1.00  0.00    -0.262 NA 
HETATM    4  C   UNL     1      -8.369  17.109  67.342  1.00  0.00    -0.190 C  
HETATM    5  C   UNL     1      -8.061  16.002  68.327  1.00  0.00    -0.150 C  
HETATM    6  C   UNL     1      -9.292  15.963  69.211  1.00  0.00    -0.259 C  
HETATM    7  C   UNL     1     -10.427  16.553  68.359  1.00  0.00    -0.307 C  
BRANCH   7   8
HETATM    8  C   UNL     1     -11.592  15.553  68.179  1.00  0.00    -0.304 C  
BRANCH   8   9
HETATM    9  N   UNL     1     -11.168  14.187  67.891  1.00  0.00    -0.268 N  
HETATM   10  C   UNL     1     -11.614  13.497  66.775  1.00  0.00    -0.363 C  
HETATM   11  H   UNL     1     -10.523  13.725  68.532  1.00  0.00     0.000 HD 
HETATM   12  O   UNL     1     -12.422  13.984  65.995  1.00  0.00    -0.468 OA 
BRANCH  10  13
HETATM   13  C   UNL     1     -11.070  12.106  66.591  1.00  0.00    -0.353 A  
HETATM   14  C   UNL     1     -11.400  11.060  67.483  1.00  0.00    -0.257 A  
HETATM   15  C   UNL     1     -10.854   9.781  67.277  1.00  0.00    -0.247 A  
HETATM   16  C   UNL     1     -10.174  11.853  65.533  1.00  0.00    -0.290 A  
HETATM   17  C   UNL     1      -9.651  10.571  65.347  1.00  0.00    -0.237 A  
HETATM   18  C   UNL     1      -9.984   9.535  66.216  1.00  0.00    -0.344 A  
BRANCH  14  19
HETATM   19  O   UNL     1     -12.267  11.338  68.506  1.00  0.00    -0.588 OA 
HETATM   20  C   UNL     1     -11.872  11.005  69.831  1.00  0.00    -0.353 C  
ENDBRANCH  14  19
BRANCH  17  21
HETATM   21  S   UNL     1      -8.496  10.265  64.040  1.00  0.00    -0.171 S  
HETATM   22  O   UNL     1      -8.916   9.098  63.303  1.00  0.00    -0.152 OA 
HETATM   23  N   UNL     1      -8.758  11.578  63.033  1.00  0.00    -0.492 N  
HETATM   24  O   UNL     1      -7.154  10.420  64.555  1.00  0.00    -0.109 OA 
HETATM   25  H1  UNL     1      -8.093  11.402  62.281  1.00  0.00     0.000 HD 
HETATM   26  H2  UNL     1      -9.413  12.352  63.144  1.00  0.00     0.000 HD 
ENDBRANCH  17  21
ENDBRANCH  10  13
ENDBRANCH   8   9
ENDBRANCH   7   8
ENDBRANCH   2   3
TORSDOF 6
ENDMDL
MODEL       58
REMARK 921   NORMALIZED FREE ENERGY PREDICTED BY IDOCK:   -5.29 KCAL/MOL
REMARK 922        TOTAL FREE ENERGY PREDICTED BY IDOCK:   -8.23 KCAL/MOL
REMARK 923 INTER-LIGAND FREE ENERGY PREDICTED BY IDOCK:   -7.24 KCAL/MOL
REMARK 924 INTRA-LIGAND FREE ENERGY PREDICTED BY IDOCK:   -0.99 KCAL/MOL
REMARK 927      BINDING AFFINITY PREDICTED BY RF-SCORE:    0.00 PKD
ROOT
HETATM    1  C   UNL     1     -10.438  12.915  64.268  1.00  0.00    -0.430 C  
HETATM    2  C   UNL     1     -10.549  14.342  64.799  1.00  0.00    -0.412 C  
ENDROOT
BRANCH   2   3
HETATM    3  N   UNL     1     -10.038  14.481  66.172  1.00  0.00    -0.291 NA 
HETATM    4  C   UNL     1      -8.710  15.102  66.211  1.00  0.00    -0.090 C  
HETATM    5  C   UNL     1      -8.593  15.546  67.653  1.00  0.00    -0.175 C  
HETATM    6  C   UNL     1      -9.982  16.060  67.979  1.00  0.00    -0.229 C  
HETATM    7  C   UNL     1     -10.924  15.343  66.999  1.00  0.00    -0.306 C  
BRANCH   7   8
HETATM    8  C   UNL     1     -12.002  14.516  67.737  1.00  0.00    -0.310 C  
BRANCH   8   9
HETATM    9  N   UNL     1     -11.468  13.436  68.560  1.00  0.00    -0.287 N  
HETATM   10  C   UNL     1     -11.517  12.111  68.159  1.00  0.00    -0.317 C  
HETATM   11  H   UNL     1     -11.044  13.664  69.460  1.00  0.00     0.000 HD 
HETATM   12  O   UNL     1     -12.051  11.773  67.110  1.00  0.00    -0.592 OA 
BRANCH  10  13
HETATM   13  C   UNL     1     -10.901  11.107  69.096  1.00  0.00    -0.284 A  
HETATM   14  C   UNL     1      -9.525  10.787  69.034  1.00  0.00    -0.166 A  
HETATM   15  C   UNL     1      -9.000   9.832  69.921  1.00  0.00    -0.254 A  
HETATM   16  C   UNL     1     -11.724  10.438  70.023  1.00  0.00    -0.366 A  
HETATM   17  C   UNL     1     -11.175   9.497  70.898  1.00  0.00    -0.341 A  
HETATM   18  C   UNL     1      -9.819   9.188  70.849  1.00  0.00    -0.359 A  
BRANCH  14  19
HETATM   19  O   UNL     1      -8.752  11.449  68.118  1.00  0.00    -0.141 OA 
HETATM   20  C   UNL     1      -7.948  10.677  67.234  1.00  0.00    -0.116 C  
ENDBRANCH  14  19
BRANCH  17  21
HETATM   21  S   UNL     1     -12.218   8.628  72.035  1.00  0.00    -0.394 S  
HETATM   22  O   UNL     1     -13.362   9.451  72.349  1.00  0.00    -0.452 OA 
HETATM   23  N   UNL     1     -12.789   7.370  71.088  1.00  0.00    -0.541 N  
HETATM   24  O   UNL     1     -11.394   8.018  73.054  1.00  0.00    -0.386 OA 
HETATM   25  H1  UNL     1     -13.389   6.870  71.743  1.00  0.00     0.000 HD 
HETATM   26  H2  UNL     1     -12.588   7.159  70.111  1.00  0.00     0.000 HD 
ENDBRANCH  17  21
ENDBRANCH  10  13
ENDBRANCH   8   9
ENDBRANCH   7   8
ENDBRANCH   2   3
TORSDOF 6
ENDMDL
MODEL       59
REMARK 921   NORMALIZED FREE ENERGY PREDICTED BY IDOCK:   -5.28 KCAL/MOL
REMARK 922        TOTAL FREE ENERGY PREDICTED BY IDOCK:   -8.22 KCAL/MOL
REMARK 923 INTER-LIGAND FREE ENERGY PREDICTED BY IDOCK:   -7.49 KCAL/MOL
REMARK 924 INTRA-LIGAND FREE ENERGY PREDICTED BY IDOCK:   -0.73 KCAL/MOL
REMARK 927      BINDING AFFINITY PREDICTED BY RF-SCORE:    0.00 PKD
ROOT
HETATM    1  C   UNL     1     -10.107   9.081  66.515  1.00  0.00    -0.354 C  
HETATM    2  C   UNL     1     -10.178  10.567  66.176  1.00  0.00    -0.236 C  
ENDROOT
BRANCH   2   3
HETATM    3  N   UNL     1      -9.435  10.912  64.954  1.00  0.00    -0.223 NA 
HETATM    4  C   UNL     1      -8.456   9.883  64.591  1.00  0.00    -0.172 C  
HETATM    5  C   UNL     1      -8.159  10.203  63.141  1.00  0.00    -0.158 C  
HETATM    6  C   UNL     1      -9.516  10.580  62.578  1.00  0.00    -0.288 C  
HETATM    7  C   UNL     1     -10.343  11.053  63.785  1.00  0.00    -0.364 C  
BRANCH   7   8
HETATM    8  C   UNL     1     -10.834  12.508  63.612  1.00  0.00    -0.441 C  
BRANCH   8   9
HETATM    9  N   UNL     1     -10.678  13.338  64.802  1.00  0.00    -0.355 N  
HETATM   10  C   UNL     1     -11.393  14.511  64.982  1.00  0.00    -0.377 C  
HETATM   11  H   UNL     1     -10.020  13.045  65.524  1.00  0.00     0.000 HD 
HETATM   12  O   UNL     1     -12.164  14.934  64.130  1.00  0.00    -0.567 OA 
BRANCH  10  13
HETATM   13  C   UNL     1     -11.150  15.248  66.271  1.00  0.00    -0.273 A  
HETATM   14  C   UNL     1     -11.464  14.669  67.523  1.00  0.00    -0.361 A  
HETATM   15  C   UNL     1     -11.233  15.405  68.698  1.00  0.00    -0.312 A  
HETATM   16  C   UNL     1     -10.644  16.562  66.226  1.00  0.00    -0.223 A  
HETATM   17  C   UNL     1     -10.417  17.268  67.410  1.00  0.00    -0.338 A  
HETATM   18  C   UNL     1     -10.713  16.698  68.645  1.00  0.00    -0.349 A  
BRANCH  14  19
HETATM   19  O   UNL     1     -11.962  13.394  67.534  1.00  0.00    -0.361 OA 
HETATM   20  C   UNL     1     -12.135  12.751  68.791  1.00  0.00    -0.128 C  
ENDBRANCH  14  19
BRANCH  17  21
HETATM   21  S   UNL     1      -9.817  18.933  67.349  1.00  0.00    -0.339 S  
HETATM   22  O   UNL     1     -10.660  19.706  66.468  1.00  0.00    -0.451 OA 
HETATM   23  N   UNL     1     -10.140  19.473  68.901  1.00  0.00    -0.556 N  
HETATM   24  O   UNL     1      -8.377  18.909  67.227  1.00  0.00    -0.267 OA 
HETATM   25  H1  UNL     1      -9.795  20.432  68.867  1.00  0.00     0.000 HD 
HETATM   26  H2  UNL     1     -10.570  18.973  69.679  1.00  0.00     0.000 HD 
ENDBRANCH  17  21
ENDBRANCH  10  13
ENDBRANCH   8   9
ENDBRANCH   7   8
ENDBRANCH   2   3
TORSDOF 6
ENDMDL
MODEL       60
REMARK 921   NORMALIZED FREE ENERGY PREDICTED BY IDOCK:   -5.28 KCAL/MOL
REMARK 922        TOTAL FREE ENERGY PREDICTED BY IDOCK:   -8.21 KCAL/MOL
REMARK 923 INTER-LIGAND FREE ENERGY PREDICTED BY IDOCK:   -7.03 KCAL/MOL
REMARK 924 INTRA-LIGAND FREE ENERGY PREDICTED BY IDOCK:   -1.18 KCAL/MOL
REMARK 927      BINDING AFFINITY PREDICTED BY RF-SCORE:    0.00 PKD
ROOT
HETATM    1  C   UNL     1     -14.316   8.142  71.600  1.00  0.00    -0.570 C  
HETATM    2  C   UNL     1     -13.145   7.265  71.165  1.00  0.00    -0.230 C  
ENDROOT
BRANCH   2   3
HETATM    3  N   UNL     1     -11.847   7.949  71.273  1.00  0.00    -0.293 NA 
HETATM    4  C   UNL     1     -11.335   7.957  72.647  1.00  0.00    -0.408 C  
HETATM    5  C   UNL     1      -9.868   8.277  72.453  1.00  0.00    -0.375 C  
HETATM    6  C   UNL     1      -9.493   7.482  71.217  1.00  0.00    -0.158 C  
HETATM    7  C   UNL     1     -10.807   7.281  70.446  1.00  0.00    -0.246 C  
BRANCH   7   8
HETATM    8  C   UNL     1     -10.735   7.879  69.021  1.00  0.00    -0.096 C  
BRANCH   8   9
HETATM    9  N   UNL     1     -11.130   9.281  68.940  1.00  0.00    -0.447 N  
HETATM   10  C   UNL     1     -10.202  10.310  68.964  1.00  0.00    -0.210 C  
HETATM   11  H   UNL     1     -12.120   9.512  68.864  1.00  0.00     0.000 HD 
HETATM   12  O   UNL     1      -9.003  10.096  69.097  1.00  0.00    -0.154 OA 
BRANCH  10  13
HETATM   13  C   UNL     1     -10.751  11.706  68.843  1.00  0.00    -0.244 A  
HETATM   14  C   UNL     1     -11.747  12.186  69.726  1.00  0.00    -0.310 A  
HETATM   15  C   UNL     1     -12.238  13.492  69.562  1.00  0.00    -0.289 A  
HETATM   16  C   UNL     1     -10.297  12.534  67.798  1.00  0.00    -0.224 A  
HETATM   17  C   UNL     1     -10.798  13.831  67.662  1.00  0.00    -0.254 A  
HETATM   18  C   UNL     1     -11.769  14.313  68.537  1.00  0.00    -0.376 A  
BRANCH  14  19
HETATM   19  O   UNL     1     -12.173  11.355  70.727  1.00  0.00    -0.368 OA 
HETATM   20  C   UNL     1     -12.945  11.915  71.782  1.00  0.00    -0.350 C  
ENDBRANCH  14  19
BRANCH  17  21
HETATM   21  S   UNL     1     -10.255  14.857  66.325  1.00  0.00    -0.311 S  
HETATM   22  O   UNL     1     -10.581  16.232  66.623  1.00  0.00    -0.304 OA 
HETATM   23  N   UNL     1      -8.590  14.731  66.448  1.00  0.00    -0.442 N  
HETATM   24  O   UNL     1     -10.612  14.225  65.075  1.00  0.00    -0.375 OA 
HETATM   25  H1  UNL     1      -8.276  15.321  65.678  1.00  0.00     0.000 HD 
HETATM   26  H2  UNL     1      -8.033  14.201  67.119  1.00  0.00     0.000 HD 
ENDBRANCH  17  21
ENDBRANCH  10  13
ENDBRANCH   8   9
ENDBRANCH   7   8
ENDBRANCH   2   3
TORSDOF 6
ENDMDL
MODEL       61
REMARK 921   NORMALIZED FREE ENERGY PREDICTED BY IDOCK:   -5.27 KCAL/MOL
REMARK 922        TOTAL FREE ENERGY PREDICTED BY IDOCK:   -8.20 KCAL/MOL
REMARK 923 INTER-LIGAND FREE ENERGY PREDICTED BY IDOCK:   -7.24 KCAL/MOL
REMARK 924 INTRA-LIGAND FREE ENERGY PREDICTED BY IDOCK:   -0.96 KCAL/MOL
REMARK 927      BINDING AFFINITY PREDICTED BY RF-SCORE:    0.00 PKD
ROOT
HETATM    1  C   UNL     1     -12.038  13.866  64.521  1.00  0.00    -0.473 C  
HETATM    2  C   UNL     1     -12.237  14.085  66.018  1.00  0.00    -0.458 C  
ENDROOT
BRANCH   2   3
HETATM    3  N   UNL     1     -11.322  13.280  66.841  1.00  0.00    -0.305 NA 
HETATM    4  C   UNL     1     -10.043  13.030  66.168  1.00  0.00    -0.285 C  
HETATM    5  C   UNL     1      -9.143  12.612  67.310  1.00  0.00    -0.191 C  
HETATM    6  C   UNL     1      -9.550  13.539  68.440  1.00  0.00    -0.196 C  
HETATM    7  C   UNL     1     -10.992  13.964  68.120  1.00  0.00    -0.249 C  
BRANCH   7   8
HETATM    8  C   UNL     1     -11.972  13.573  69.249  1.00  0.00    -0.330 C  
BRANCH   8   9
HETATM    9  N   UNL     1     -11.531  12.443  70.059  1.00  0.00    -0.526 N  
HETATM   10  C   UNL     1     -11.823  11.132  69.717  1.00  0.00    -0.349 C  
HETATM   11  H   UNL     1     -10.990  12.623  70.905  1.00  0.00     0.000 HD 
HETATM   12  O   UNL     1     -12.505  10.858  68.738  1.00  0.00    -0.431 OA 
BRANCH  10  13
HETATM   13  C   UNL     1     -11.278  10.067  70.630  1.00  0.00    -0.425 A  
HETATM   14  C   UNL     1     -12.096   9.433  71.595  1.00  0.00    -0.388 A  
HETATM   15  C   UNL     1     -11.535   8.455  72.434  1.00  0.00    -0.451 A  
HETATM   16  C   UNL     1      -9.913   9.730  70.553  1.00  0.00    -0.258 A  
HETATM   17  C   UNL     1      -9.383   8.749  71.396  1.00  0.00    -0.258 A  
HETATM   18  C   UNL     1     -10.187   8.113  72.338  1.00  0.00    -0.368 A  
BRANCH  14  19
HETATM   19  O   UNL     1     -13.417   9.788  71.650  1.00  0.00    -0.376 OA 
HETATM   20  C   UNL     1     -14.377   8.766  71.887  1.00  0.00    -0.354 C  
ENDBRANCH  14  19
BRANCH  17  21
HETATM   21  S   UNL     1      -7.659   8.354  71.324  1.00  0.00    -0.101 S  
HETATM   22  O   UNL     1      -6.973   9.037  72.395  1.00  0.00    -0.320 OA 
HETATM   23  N   UNL     1      -7.660   6.729  71.728  1.00  0.00    -0.094 N  
HETATM   24  O   UNL     1      -7.219   8.422  69.949  1.00  0.00    -0.053 OA 
HETATM   25  H1  UNL     1      -6.667   6.501  71.687  1.00  0.00     0.000 HD 
HETATM   26  H2  UNL     1      -8.449   6.124  71.956  1.00  0.00     0.000 HD 
ENDBRANCH  17  21
ENDBRANCH  10  13
ENDBRANCH   8   9
ENDBRANCH   7   8
ENDBRANCH   2   3
TORSDOF 6
ENDMDL
MODEL       62
REMARK 921   NORMALIZED FREE ENERGY PREDICTED BY IDOCK:   -5.26 KCAL/MOL
REMARK 922        TOTAL FREE ENERGY PREDICTED BY IDOCK:   -8.19 KCAL/MOL
REMARK 923 INTER-LIGAND FREE ENERGY PREDICTED BY IDOCK:   -7.12 KCAL/MOL
REMARK 924 INTRA-LIGAND FREE ENERGY PREDICTED BY IDOCK:   -1.07 KCAL/MOL
REMARK 927      BINDING AFFINITY PREDICTED BY RF-SCORE:    0.00 PKD
ROOT
HETATM    1  C   UNL     1      -6.643   6.265  67.768  1.00  0.00    -0.062 C  
HETATM    2  C   UNL     1      -7.622   6.372  68.934  1.00  0.00    -0.100 C  
ENDROOT
BRANCH   2   3
HETATM    3  N   UNL     1      -8.931   6.911  68.533  1.00  0.00    -0.123 NA 
HETATM    4  C   UNL     1      -9.305   6.512  67.173  1.00  0.00    -0.126 C  
HETATM    5  C   UNL     1     -10.796   6.771  67.147  1.00  0.00    -0.462 C  
HETATM    6  C   UNL     1     -11.257   6.315  68.519  1.00  0.00    -0.305 C  
HETATM    7  C   UNL     1     -10.018   6.420  69.423  1.00  0.00    -0.158 C  
BRANCH   7   8
HETATM    8  C   UNL     1     -10.256   7.373  70.617  1.00  0.00    -0.199 C  
BRANCH   8   9
HETATM    9  N   UNL     1     -10.544   8.751  70.234  1.00  0.00    -0.210 N  
HETATM   10  C   UNL     1     -11.744   9.368  70.550  1.00  0.00    -0.198 C  
HETATM   11  H   UNL     1      -9.840   9.278  69.718  1.00  0.00     0.000 HD 
HETATM   12  O   UNL     1     -12.643   8.773  71.130  1.00  0.00    -0.272 OA 
BRANCH  10  13
HETATM   13  C   UNL     1     -11.890  10.802  70.116  1.00  0.00    -0.427 A  
HETATM   14  C   UNL     1     -11.522  11.222  68.817  1.00  0.00    -0.293 A  
HETATM   15  C   UNL     1     -11.664  12.575  68.465  1.00  0.00    -0.369 A  
HETATM   16  C   UNL     1     -12.359  11.755  71.042  1.00  0.00    -0.386 A  
HETATM   17  C   UNL     1     -12.497  13.093  70.664  1.00  0.00    -0.286 A  
HETATM   18  C   UNL     1     -12.147  13.508  69.382  1.00  0.00    -0.340 A  
BRANCH  14  19
HETATM   19  O   UNL     1     -11.063  10.274  67.942  1.00  0.00    -0.291 OA 
HETATM   20  C   UNL     1      -9.743  10.414  67.432  1.00  0.00    -0.163 C  
ENDBRANCH  14  19
BRANCH  17  21
HETATM   21  S   UNL     1     -13.049  14.295  71.840  1.00  0.00    -0.392 S  
HETATM   22  O   UNL     1     -11.907  15.010  72.357  1.00  0.00    -0.370 OA 
HETATM   23  N   UNL     1     -13.879  15.375  70.865  1.00  0.00    -0.844 N  
HETATM   24  O   UNL     1     -14.043  13.689  72.699  1.00  0.00    -0.746 OA 
HETATM   25  H1  UNL     1     -14.198  16.068  71.543  1.00  0.00     0.000 HD 
HETATM   26  H2  UNL     1     -14.027  15.348  69.857  1.00  0.00     0.000 HD 
ENDBRANCH  17  21
ENDBRANCH  10  13
ENDBRANCH   8   9
ENDBRANCH   7   8
ENDBRANCH   2   3
TORSDOF 6
ENDMDL
MODEL       63
REMARK 921   NORMALIZED FREE ENERGY PREDICTED BY IDOCK:   -5.26 KCAL/MOL
REMARK 922        TOTAL FREE ENERGY PREDICTED BY IDOCK:   -8.18 KCAL/MOL
REMARK 923 INTER-LIGAND FREE ENERGY PREDICTED BY IDOCK:   -7.58 KCAL/MOL
REMARK 924 INTRA-LIGAND FREE ENERGY PREDICTED BY IDOCK:   -0.60 KCAL/MOL
REMARK 927      BINDING AFFINITY PREDICTED BY RF-SCORE:    0.00 PKD
ROOT
HETATM    1  C   UNL     1     -14.342   8.392  71.447  1.00  0.00    -0.425 C  
HETATM    2  C   UNL     1     -13.096   8.993  72.092  1.00  0.00    -0.435 C  
ENDROOT
BRANCH   2   3
HETATM    3  N   UNL     1     -11.848   8.399  71.587  1.00  0.00    -0.287 NA 
HETATM    4  C   UNL     1     -11.963   6.952  71.385  1.00  0.00    -0.349 C  
HETATM    5  C   UNL     1     -10.790   6.649  70.478  1.00  0.00    -0.310 C  
HETATM    6  C   UNL     1     -10.770   7.825  69.521  1.00  0.00    -0.200 C  
HETATM    7  C   UNL     1     -11.465   8.973  70.270  1.00  0.00    -0.124 C  
BRANCH   7   8
HETATM    8  C   UNL     1     -10.539  10.202  70.427  1.00  0.00    -0.224 C  
BRANCH   8   9
HETATM    9  N   UNL     1     -10.669  11.188  69.360  1.00  0.00    -0.361 N  
HETATM   10  C   UNL     1      -9.572  11.669  68.663  1.00  0.00    -0.133 C  
HETATM   11  H   UNL     1     -11.597  11.536  69.120  1.00  0.00     0.000 HD 
HETATM   12  O   UNL     1      -8.430  11.321  68.937  1.00  0.00    -0.139 OA 
BRANCH  10  13
HETATM   13  C   UNL     1      -9.860  12.662  67.570  1.00  0.00    -0.203 A  
HETATM   14  C   UNL     1      -9.336  13.975  67.608  1.00  0.00    -0.203 A  
HETATM   15  C   UNL     1      -9.646  14.870  66.571  1.00  0.00    -0.297 A  
HETATM   16  C   UNL     1     -10.708  12.289  66.509  1.00  0.00    -0.279 A  
HETATM   17  C   UNL     1     -10.995  13.196  65.486  1.00  0.00    -0.277 A  
HETATM   18  C   UNL     1     -10.472  14.486  65.514  1.00  0.00    -0.373 A  
BRANCH  14  19
HETATM   19  O   UNL     1      -8.520  14.311  68.656  1.00  0.00    -0.163 OA 
HETATM   20  C   UNL     1      -7.186  14.711  68.367  1.00  0.00    -0.117 C  
ENDBRANCH  14  19
BRANCH  17  21
HETATM   21  S   UNL     1     -12.093  12.738  64.175  1.00  0.00    -0.464 S  
HETATM   22  O   UNL     1     -13.365  12.350  64.738  1.00  0.00    -0.718 OA 
HETATM   23  N   UNL     1     -12.347  14.206  63.409  1.00  0.00    -1.144 N  
HETATM   24  O   UNL     1     -11.376  11.913  63.229  1.00  0.00    -0.360 OA 
HETATM   25  H1  UNL     1     -12.979  13.942  62.653  1.00  0.00     0.000 HD 
HETATM   26  H2  UNL     1     -11.967  15.124  63.638  1.00  0.00     0.000 HD 
ENDBRANCH  17  21
ENDBRANCH  10  13
ENDBRANCH   8   9
ENDBRANCH   7   8
ENDBRANCH   2   3
TORSDOF 6
ENDMDL
MODEL       64
REMARK 921   NORMALIZED FREE ENERGY PREDICTED BY IDOCK:   -5.26 KCAL/MOL
REMARK 922        TOTAL FREE ENERGY PREDICTED BY IDOCK:   -8.18 KCAL/MOL
REMARK 923 INTER-LIGAND FREE ENERGY PREDICTED BY IDOCK:   -7.44 KCAL/MOL
REMARK 924 INTRA-LIGAND FREE ENERGY PREDICTED BY IDOCK:   -0.74 KCAL/MOL
REMARK 927      BINDING AFFINITY PREDICTED BY RF-SCORE:    0.00 PKD
ROOT
HETATM    1  C   UNL     1      -9.065  13.142  67.145  1.00  0.00    -0.230 C  
HETATM    2  C   UNL     1      -8.673  14.179  68.195  1.00  0.00    -0.181 C  
ENDROOT
BRANCH   2   3
HETATM    3  N   UNL     1      -8.805  15.561  67.709  1.00  0.00    -0.170 NA 
HETATM    4  C   UNL     1      -7.691  15.954  66.840  1.00  0.00    -0.233 C  
HETATM    5  C   UNL     1      -8.239  17.171  66.127  1.00  0.00    -0.269 C  
HETATM    6  C   UNL     1      -9.682  16.799  65.849  1.00  0.00    -0.247 C  
HETATM    7  C   UNL     1     -10.043  15.742  66.905  1.00  0.00    -0.266 C  
BRANCH   7   8
HETATM    8  C   UNL     1     -11.236  16.187  67.781  1.00  0.00    -0.199 C  
BRANCH   8   9
HETATM    9  N   UNL     1     -11.789  15.130  68.621  1.00  0.00    -0.492 N  
HETATM   10  C   UNL     1     -11.527  15.055  69.980  1.00  0.00    -0.276 C  
HETATM   11  H   UNL     1     -12.387  14.422  68.194  1.00  0.00     0.000 HD 
HETATM   12  O   UNL     1     -10.783  15.851  70.538  1.00  0.00    -0.298 OA 
BRANCH  10  13
HETATM   13  C   UNL     1     -12.188  13.927  70.725  1.00  0.00    -0.441 A  
HETATM   14  C   UNL     1     -13.135  14.173  71.747  1.00  0.00    -0.357 A  
HETATM   15  C   UNL     1     -13.712  13.085  72.424  1.00  0.00    -0.593 A  
HETATM   16  C   UNL     1     -11.819  12.600  70.431  1.00  0.00    -0.238 A  
HETATM   17  C   UNL     1     -12.414  11.537  71.115  1.00  0.00    -0.337 A  
HETATM   18  C   UNL     1     -13.356  11.774  72.113  1.00  0.00    -0.334 A  
BRANCH  14  19
HETATM   19  O   UNL     1     -13.467  15.474  72.016  1.00  0.00    -0.425 OA 
HETATM   20  C   UNL     1     -13.034  16.037  73.247  1.00  0.00    -0.550 C  
ENDBRANCH  14  19
BRANCH  17  21
HETATM   21  S   UNL     1     -11.921   9.872  70.770  1.00  0.00    -0.327 S  
HETATM   22  O   UNL     1     -11.132   9.376  71.872  1.00  0.00    -0.344 OA 
HETATM   23  N   UNL     1     -13.383   9.059  70.834  1.00  0.00    -0.522 N  
HETATM   24  O   UNL     1     -11.478   9.789  69.396  1.00  0.00    -0.113 OA 
HETATM   25  H1  UNL     1     -13.100   8.100  70.636  1.00  0.00     0.000 HD 
HETATM   26  H2  UNL     1     -14.316   9.427  71.023  1.00  0.00     0.000 HD 
ENDBRANCH  17  21
ENDBRANCH  10  13
ENDBRANCH   8   9
ENDBRANCH   7   8
ENDBRANCH   2   3
TORSDOF 6
ENDMDL
MODEL       65
REMARK 921   NORMALIZED FREE ENERGY PREDICTED BY IDOCK:   -5.24 KCAL/MOL
REMARK 922        TOTAL FREE ENERGY PREDICTED BY IDOCK:   -8.15 KCAL/MOL
REMARK 923 INTER-LIGAND FREE ENERGY PREDICTED BY IDOCK:   -7.08 KCAL/MOL
REMARK 924 INTRA-LIGAND FREE ENERGY PREDICTED BY IDOCK:   -1.07 KCAL/MOL
REMARK 927      BINDING AFFINITY PREDICTED BY RF-SCORE:    0.00 PKD
ROOT
HETATM    1  C   UNL     1     -11.313  15.829  64.459  1.00  0.00    -0.324 C  
HETATM    2  C   UNL     1     -12.403  14.820  64.810  1.00  0.00    -0.293 C  
ENDROOT
BRANCH   2   3
HETATM    3  N   UNL     1     -11.905  13.437  64.865  1.00  0.00    -0.355 NA 
HETATM    4  C   UNL     1     -12.195  12.693  63.635  1.00  0.00    -0.536 C  
HETATM    5  C   UNL     1     -11.242  11.520  63.724  1.00  0.00    -0.456 C  
HETATM    6  C   UNL     1      -9.974  12.136  64.282  1.00  0.00    -0.262 C  
HETATM    7  C   UNL     1     -10.429  13.395  65.038  1.00  0.00    -0.365 C  
BRANCH   7   8
HETATM    8  C   UNL     1     -10.027  13.347  66.530  1.00  0.00    -0.286 C  
BRANCH   8   9
HETATM    9  N   UNL     1      -9.944  12.000  67.084  1.00  0.00    -0.195 N  
HETATM   10  C   UNL     1     -11.007  11.410  67.749  1.00  0.00    -0.247 C  
HETATM   11  H   UNL     1      -9.076  11.475  66.979  1.00  0.00     0.000 HD 
HETATM   12  O   UNL     1     -12.059  12.007  67.943  1.00  0.00    -0.531 OA 
BRANCH  10  13
HETATM   13  C   UNL     1     -10.788  10.005  68.242  1.00  0.00    -0.286 A  
HETATM   14  C   UNL     1     -10.355   8.977  67.372  1.00  0.00    -0.268 A  
HETATM   15  C   UNL     1     -10.180   7.677  67.877  1.00  0.00    -0.250 A  
HETATM   16  C   UNL     1     -11.067   9.697  69.588  1.00  0.00    -0.223 A  
HETATM   17  C   UNL     1     -10.878   8.398  70.066  1.00  0.00    -0.225 A  
HETATM   18  C   UNL     1     -10.440   7.386  69.216  1.00  0.00    -0.222 A  
BRANCH  14  19
HETATM   19  O   UNL     1     -10.099   9.305  66.068  1.00  0.00    -0.297 OA 
HETATM   20  C   UNL     1      -8.862   8.891  65.501  1.00  0.00    -0.197 C  
ENDBRANCH  14  19
BRANCH  17  21
HETATM   21  S   UNL     1     -11.266   8.006  71.748  1.00  0.00    -0.283 S  
HETATM   22  O   UNL     1     -10.165   8.405  72.592  1.00  0.00    -0.302 OA 
HETATM   23  N   UNL     1     -12.517   9.072  72.071  1.00  0.00    -0.372 N  
HETATM   24  O   UNL     1     -11.847   6.683  71.799  1.00  0.00    -0.304 OA 
HETATM   25  H1  UNL     1     -12.741   8.846  73.040  1.00  0.00     0.000 HD 
HETATM   26  H2  UNL     1     -12.945   9.766  71.458  1.00  0.00     0.000 HD 
ENDBRANCH  17  21
ENDBRANCH  10  13
ENDBRANCH   8   9
ENDBRANCH   7   8
ENDBRANCH   2   3
TORSDOF 6
ENDMDL
MODEL       66
REMARK 921   NORMALIZED FREE ENERGY PREDICTED BY IDOCK:   -5.19 KCAL/MOL
REMARK 922        TOTAL FREE ENERGY PREDICTED BY IDOCK:   -8.09 KCAL/MOL
REMARK 923 INTER-LIGAND FREE ENERGY PREDICTED BY IDOCK:   -7.34 KCAL/MOL
REMARK 924 INTRA-LIGAND FREE ENERGY PREDICTED BY IDOCK:   -0.75 KCAL/MOL
REMARK 927      BINDING AFFINITY PREDICTED BY RF-SCORE:    0.00 PKD
ROOT
HETATM    1  C   UNL     1      -9.240   7.893  71.132  1.00  0.00    -0.165 C  
HETATM    2  C   UNL     1     -10.223   9.033  71.382  1.00  0.00    -0.329 C  
ENDROOT
BRANCH   2   3
HETATM    3  N   UNL     1     -11.611   8.673  71.052  1.00  0.00    -0.278 NA 
HETATM    4  C   UNL     1     -11.975   7.342  71.548  1.00  0.00    -0.307 C  
HETATM    5  C   UNL     1     -13.487   7.374  71.507  1.00  0.00    -0.445 C  
HETATM    6  C   UNL     1     -13.825   8.776  71.975  1.00  0.00    -0.504 C  
HETATM    7  C   UNL     1     -12.581   9.623  71.661  1.00  0.00    -0.402 C  
BRANCH   7   8
HETATM    8  C   UNL     1     -12.909  10.797  70.711  1.00  0.00    -0.320 C  
BRANCH   8   9
HETATM    9  N   UNL     1     -12.397  10.630  69.355  1.00  0.00    -0.535 N  
HETATM   10  C   UNL     1     -11.579  11.574  68.754  1.00  0.00    -0.316 C  
HETATM   11  H   UNL     1     -12.649   9.791  68.832  1.00  0.00     0.000 HD 
HETATM   12  O   UNL     1     -11.278  12.619  69.317  1.00  0.00    -0.243 OA 
BRANCH  10  13
HETATM   13  C   UNL     1     -11.103  11.254  67.363  1.00  0.00    -0.358 A  
HETATM   14  C   UNL     1     -11.601  11.947  66.235  1.00  0.00    -0.246 A  
HETATM   15  C   UNL     1     -11.136  11.601  64.955  1.00  0.00    -0.317 A  
HETATM   16  C   UNL     1     -10.176  10.210  67.177  1.00  0.00    -0.278 A  
HETATM   17  C   UNL     1      -9.725   9.891  65.894  1.00  0.00    -0.262 A  
HETATM   18  C   UNL     1     -10.203  10.579  64.782  1.00  0.00    -0.373 A  
BRANCH  14  19
HETATM   19  O   UNL     1     -12.507  12.952  66.447  1.00  0.00    -0.422 OA 
HETATM   20  C   UNL     1     -12.611  13.980  65.469  1.00  0.00    -0.516 C  
ENDBRANCH  14  19
BRANCH  17  21
HETATM   21  S   UNL     1      -8.589   8.553  65.659  1.00  0.00    -0.181 S  
HETATM   22  O   UNL     1      -7.676   8.508  66.775  1.00  0.00    -0.089 OA 
HETATM   23  N   UNL     1      -9.591   7.220  65.816  1.00  0.00    -0.303 N  
HETATM   24  O   UNL     1      -8.141   8.555  64.284  1.00  0.00    -0.146 OA 
HETATM   25  H1  UNL     1      -8.937   6.449  65.680  1.00  0.00     0.000 HD 
HETATM   26  H2  UNL     1     -10.593   7.187  65.999  1.00  0.00     0.000 HD 
ENDBRANCH  17  21
ENDBRANCH  10  13
ENDBRANCH   8   9
ENDBRANCH   7   8
ENDBRANCH   2   3
TORSDOF 6
ENDMDL
MODEL       67
REMARK 921   NORMALIZED FREE ENERGY PREDICTED BY IDOCK:   -5.17 KCAL/MOL
REMARK 922        TOTAL FREE ENERGY PREDICTED BY IDOCK:   -8.06 KCAL/MOL
REMARK 923 INTER-LIGAND FREE ENERGY PREDICTED BY IDOCK:   -6.87 KCAL/MOL
REMARK 924 INTRA-LIGAND FREE ENERGY PREDICTED BY IDOCK:   -1.19 KCAL/MOL
REMARK 927      BINDING AFFINITY PREDICTED BY RF-SCORE:    0.00 PKD
ROOT
HETATM    1  C   UNL     1      -7.883   3.702  67.371  1.00  0.00    -0.079 C  
HETATM    2  C   UNL     1      -8.067   4.682  68.526  1.00  0.00    -0.083 C  
ENDROOT
BRANCH   2   3
HETATM    3  N   UNL     1      -8.848   5.870  68.149  1.00  0.00    -0.111 NA 
HETATM    4  C   UNL     1      -8.625   6.264  66.755  1.00  0.00    -0.116 C  
HETATM    5  C   UNL     1      -9.808   7.164  66.469  1.00  0.00    -0.189 C  
HETATM    6  C   UNL     1     -10.958   6.470  67.173  1.00  0.00    -0.480 C  
HETATM    7  C   UNL     1     -10.310   5.627  68.283  1.00  0.00    -0.194 C  
BRANCH   7   8
HETATM    8  C   UNL     1     -10.832   6.021  69.684  1.00  0.00    -0.369 C  
BRANCH   8   9
HETATM    9  N   UNL     1     -11.358   7.379  69.766  1.00  0.00    -0.469 N  
HETATM   10  C   UNL     1     -10.541   8.472  70.011  1.00  0.00    -0.227 C  
HETATM   11  H   UNL     1     -12.358   7.529  69.640  1.00  0.00     0.000 HD 
HETATM   12  O   UNL     1      -9.340   8.348  70.213  1.00  0.00    -0.160 OA 
BRANCH  10  13
HETATM   13  C   UNL     1     -11.218   9.816  70.040  1.00  0.00    -0.297 A  
HETATM   14  C   UNL     1     -12.038  10.206  71.124  1.00  0.00    -0.388 A  
HETATM   15  C   UNL     1     -12.660  11.466  71.097  1.00  0.00    -0.490 A  
HETATM   16  C   UNL     1     -11.069  10.683  68.940  1.00  0.00    -0.314 A  
HETATM   17  C   UNL     1     -11.693  11.933  68.942  1.00  0.00    -0.323 A  
HETATM   18  C   UNL     1     -12.491  12.327  70.013  1.00  0.00    -0.041 A  
BRANCH  14  19
HETATM   19  O   UNL     1     -12.170   9.338  72.175  1.00  0.00    -0.359 OA 
HETATM   20  C   UNL     1     -13.472   8.865  72.496  1.00  0.00    -0.412 C  
ENDBRANCH  14  19
BRANCH  17  21
HETATM   21  S   UNL     1     -11.536  13.006  67.542  1.00  0.00    -0.349 S  
HETATM   22  O   UNL     1     -12.273  12.447  66.434  1.00  0.00    -0.604 OA 
HETATM   23  N   UNL     1     -12.391  14.356  68.044  1.00  0.00    -0.589 N  
HETATM   24  O   UNL     1     -10.158  13.428  67.427  1.00  0.00    -0.232 OA 
HETATM   25  H1  UNL     1     -12.301  14.974  67.238  1.00  0.00     0.000 HD 
HETATM   26  H2  UNL     1     -12.877  14.517  68.926  1.00  0.00     0.000 HD 
ENDBRANCH  17  21
ENDBRANCH  10  13
ENDBRANCH   8   9
ENDBRANCH   7   8
ENDBRANCH   2   3
TORSDOF 6
ENDMDL
MODEL       68
REMARK 921   NORMALIZED FREE ENERGY PREDICTED BY IDOCK:   -5.17 KCAL/MOL
REMARK 922        TOTAL FREE ENERGY PREDICTED BY IDOCK:   -8.06 KCAL/MOL
REMARK 923 INTER-LIGAND FREE ENERGY PREDICTED BY IDOCK:   -7.32 KCAL/MOL
REMARK 924 INTRA-LIGAND FREE ENERGY PREDICTED BY IDOCK:   -0.74 KCAL/MOL
REMARK 927      BINDING AFFINITY PREDICTED BY RF-SCORE:    0.00 PKD
ROOT
HETATM    1  C   UNL     1      -6.977  20.731  67.060  1.00  0.00    -0.386 C  
HETATM    2  C   UNL     1      -7.558  19.750  68.074  1.00  0.00    -0.299 C  
ENDROOT
BRANCH   2   3
HETATM    3  N   UNL     1      -8.988  19.480  67.855  1.00  0.00    -0.315 NA 
HETATM    4  C   UNL     1      -9.557  20.325  66.801  1.00  0.00    -0.411 C  
HETATM    5  C   UNL     1     -10.836  19.597  66.446  1.00  0.00    -0.436 C  
HETATM    6  C   UNL     1     -10.435  18.135  66.492  1.00  0.00    -0.356 C  
HETATM    7  C   UNL     1      -9.220  18.074  67.432  1.00  0.00    -0.253 C  
BRANCH   7   8
HETATM    8  C   UNL     1      -9.473  17.144  68.641  1.00  0.00    -0.275 C  
BRANCH   8   9
HETATM    9  N   UNL     1      -9.693  15.747  68.285  1.00  0.00    -0.200 N  
HETATM   10  C   UNL     1     -10.911  15.118  68.485  1.00  0.00    -0.262 C  
HETATM   11  H   UNL     1      -8.925  15.215  67.876  1.00  0.00     0.000 HD 
HETATM   12  O   UNL     1     -11.856  15.693  69.012  1.00  0.00    -0.376 OA 
BRANCH  10  13
HETATM   13  C   UNL     1     -11.001  13.682  68.043  1.00  0.00    -0.270 A  
HETATM   14  C   UNL     1     -11.423  13.336  66.738  1.00  0.00    -0.350 A  
HETATM   15  C   UNL     1     -11.506  11.980  66.379  1.00  0.00    -0.417 A  
HETATM   16  C   UNL     1     -10.704  12.660  68.966  1.00  0.00    -0.135 A  
HETATM   17  C   UNL     1     -10.787  11.320  68.580  1.00  0.00    -0.204 A  
HETATM   18  C   UNL     1     -11.190  10.975  67.293  1.00  0.00    -0.330 A  
BRANCH  14  19
HETATM   19  O   UNL     1     -11.713  14.352  65.867  1.00  0.00    -0.360 OA 
HETATM   20  C   UNL     1     -10.684  14.801  64.993  1.00  0.00    -0.433 C  
ENDBRANCH  14  19
BRANCH  17  21
HETATM   21  S   UNL     1     -10.450  10.036  69.752  1.00  0.00    -0.271 S  
HETATM   22  O   UNL     1     -11.311  10.206  70.898  1.00  0.00    -0.332 OA 
HETATM   23  N   UNL     1     -11.005   8.677  68.944  1.00  0.00    -0.438 N  
HETATM   24  O   UNL     1      -9.019   9.872  69.870  1.00  0.00    -0.211 OA 
HETATM   25  H1  UNL     1     -10.811   7.938  69.619  1.00  0.00     0.000 HD 
HETATM   26  H2  UNL     1     -11.427   8.608  68.019  1.00  0.00     0.000 HD 
ENDBRANCH  17  21
ENDBRANCH  10  13
ENDBRANCH   8   9
ENDBRANCH   7   8
ENDBRANCH   2   3
TORSDOF 6
ENDMDL
MODEL       69
REMARK 921   NORMALIZED FREE ENERGY PREDICTED BY IDOCK:   -5.16 KCAL/MOL
REMARK 922        TOTAL FREE ENERGY PREDICTED BY IDOCK:   -8.05 KCAL/MOL
REMARK 923 INTER-LIGAND FREE ENERGY PREDICTED BY IDOCK:   -6.88 KCAL/MOL
REMARK 924 INTRA-LIGAND FREE ENERGY PREDICTED BY IDOCK:   -1.17 KCAL/MOL
REMARK 927      BINDING AFFINITY PREDICTED BY RF-SCORE:    0.00 PKD
ROOT
HETATM    1  C   UNL     1     -11.806  12.836  68.255  1.00  0.00    -0.357 C  
HETATM    2  C   UNL     1     -11.737  13.473  66.869  1.00  0.00    -0.384 C  
ENDROOT
BRANCH   2   3
HETATM    3  N   UNL     1     -11.701  12.480  65.785  1.00  0.00    -0.406 NA 
HETATM    4  C   UNL     1     -12.762  12.696  64.797  1.00  0.00    -0.379 C  
HETATM    5  C   UNL     1     -12.275  11.899  63.606  1.00  0.00    -0.586 C  
HETATM    6  C   UNL     1     -10.782  12.163  63.590  1.00  0.00    -0.518 C  
HETATM    7  C   UNL     1     -10.417  12.538  65.035  1.00  0.00    -0.297 C  
BRANCH   7   8
HETATM    8  C   UNL     1      -9.362  11.577  65.630  1.00  0.00    -0.204 C  
BRANCH   8   9
HETATM    9  N   UNL     1      -9.925  10.467  66.391  1.00  0.00    -0.210 N  
HETATM   10  C   UNL     1      -9.356  10.021  67.574  1.00  0.00    -0.144 C  
HETATM   11  H   UNL     1     -10.764  10.004  66.042  1.00  0.00     0.000 HD 
HETATM   12  O   UNL     1      -8.326  10.510  68.019  1.00  0.00    -0.113 OA 
BRANCH  10  13
HETATM   13  C   UNL     1     -10.062   8.887  68.266  1.00  0.00    -0.219 A  
HETATM   14  C   UNL     1     -10.157   7.606  67.674  1.00  0.00    -0.192 A  
HETATM   15  C   UNL     1     -10.839   6.583  68.354  1.00  0.00    -0.357 A  
HETATM   16  C   UNL     1     -10.682   9.120  69.509  1.00  0.00    -0.226 A  
HETATM   17  C   UNL     1     -11.349   8.083  70.167  1.00  0.00    -0.078 A  
HETATM   18  C   UNL     1     -11.434   6.817  69.593  1.00  0.00    -0.286 A  
BRANCH  14  19
HETATM   19  O   UNL     1      -9.550   7.412  66.462  1.00  0.00    -0.189 OA 
HETATM   20  C   UNL     1      -9.112   6.099  66.132  1.00  0.00    -0.145 C  
ENDBRANCH  14  19
BRANCH  17  21
HETATM   21  S   UNL     1     -12.161   8.388  71.710  1.00  0.00    -0.351 S  
HETATM   22  O   UNL     1     -12.233   9.813  71.932  1.00  0.00    -0.375 OA 
HETATM   23  N   UNL     1     -13.724   7.884  71.383  1.00  0.00    -0.545 N  
HETATM   24  O   UNL     1     -11.645   7.470  72.701  1.00  0.00    -0.317 OA 
HETATM   25  H1  UNL     1     -14.192   8.059  72.272  1.00  0.00     0.000 HD 
HETATM   26  H2  UNL     1     -14.108   7.500  70.520  1.00  0.00     0.000 HD 
ENDBRANCH  17  21
ENDBRANCH  10  13
ENDBRANCH   8   9
ENDBRANCH   7   8
ENDBRANCH   2   3
TORSDOF 6
ENDMDL
MODEL       70
REMARK 921   NORMALIZED FREE ENERGY PREDICTED BY IDOCK:   -5.15 KCAL/MOL
REMARK 922        TOTAL FREE ENERGY PREDICTED BY IDOCK:   -8.04 KCAL/MOL
REMARK 923 INTER-LIGAND FREE ENERGY PREDICTED BY IDOCK:   -7.31 KCAL/MOL
REMARK 924 INTRA-LIGAND FREE ENERGY PREDICTED BY IDOCK:   -0.73 KCAL/MOL
REMARK 927      BINDING AFFINITY PREDICTED BY RF-SCORE:    0.00 PKD
ROOT
HETATM    1  C   UNL     1      -8.209   5.834  68.871  1.00  0.00    -0.101 C  
HETATM    2  C   UNL     1      -9.335   6.587  68.169  1.00  0.00    -0.109 C  
ENDROOT
BRANCH   2   3
HETATM    3  N   UNL     1     -10.275   7.217  69.111  1.00  0.00    -0.188 NA 
HETATM    4  C   UNL     1     -10.406   6.456  70.357  1.00  0.00    -0.205 C  
HETATM    5  C   UNL     1     -11.020   7.468  71.301  1.00  0.00    -0.262 C  
HETATM    6  C   UNL     1     -10.304   8.758  70.951  1.00  0.00    -0.281 C  
HETATM    7  C   UNL     1      -9.825   8.580  69.501  1.00  0.00    -0.187 C  
BRANCH   7   8
HETATM    8  C   UNL     1     -10.404   9.665  68.566  1.00  0.00    -0.205 C  
BRANCH   8   9
HETATM    9  N   UNL     1     -10.536  10.980  69.185  1.00  0.00    -0.269 N  
HETATM   10  C   UNL     1     -11.321  11.979  68.633  1.00  0.00    -0.277 C  
HETATM   11  H   UNL     1     -10.033  11.170  70.052  1.00  0.00     0.000 HD 
HETATM   12  O   UNL     1     -11.912  11.824  67.572  1.00  0.00    -0.607 OA 
BRANCH  10  13
HETATM   13  C   UNL     1     -11.385  13.275  69.396  1.00  0.00    -0.280 A  
HETATM   14  C   UNL     1     -10.537  14.362  69.078  1.00  0.00    -0.237 A  
HETATM   15  C   UNL     1     -10.625  15.545  69.831  1.00  0.00    -0.322 A  
HETATM   16  C   UNL     1     -12.276  13.389  70.481  1.00  0.00    -0.425 A  
HETATM   17  C   UNL     1     -12.348  14.580  71.209  1.00  0.00    -0.351 A  
HETATM   18  C   UNL     1     -11.524  15.656  70.891  1.00  0.00    -0.425 A  
BRANCH  14  19
HETATM   19  O   UNL     1      -9.677  14.218  68.023  1.00  0.00    -0.212 OA 
HETATM   20  C   UNL     1      -9.676  15.221  67.015  1.00  0.00    -0.226 C  
ENDBRANCH  14  19
BRANCH  17  21
HETATM   21  S   UNL     1     -13.440  14.708  72.597  1.00  0.00    -0.481 S  
HETATM   22  O   UNL     1     -14.032  13.416  72.851  1.00  0.00    -0.605 OA 
HETATM   23  N   UNL     1     -12.369  14.990  73.853  1.00  0.00    -0.561 N  
HETATM   24  O   UNL     1     -14.226  15.914  72.465  1.00  0.00    -0.495 OA 
HETATM   25  H1  UNL     1     -12.998  15.064  74.653  1.00  0.00     0.000 HD 
HETATM   26  H2  UNL     1     -11.353  15.068  73.826  1.00  0.00     0.000 HD 
ENDBRANCH  17  21
ENDBRANCH  10  13
ENDBRANCH   8   9
ENDBRANCH   7   8
ENDBRANCH   2   3
TORSDOF 6
ENDMDL
MODEL       71
REMARK 921   NORMALIZED FREE ENERGY PREDICTED BY IDOCK:   -5.14 KCAL/MOL
REMARK 922        TOTAL FREE ENERGY PREDICTED BY IDOCK:   -8.02 KCAL/MOL
REMARK 923 INTER-LIGAND FREE ENERGY PREDICTED BY IDOCK:   -7.14 KCAL/MOL
REMARK 924 INTRA-LIGAND FREE ENERGY PREDICTED BY IDOCK:   -0.88 KCAL/MOL
REMARK 927      BINDING AFFINITY PREDICTED BY RF-SCORE:    0.00 PKD
ROOT
HETATM    1  C   UNL     1     -12.301  12.030  63.334  1.00  0.00    -0.635 C  
HETATM    2  C   UNL     1     -10.806  12.133  63.625  1.00  0.00    -0.464 C  
ENDROOT
BRANCH   2   3
HETATM    3  N   UNL     1     -10.232  10.870  64.117  1.00  0.00    -0.341 NA 
HETATM    4  C   UNL     1      -9.400  10.208  63.108  1.00  0.00    -0.298 C  
HETATM    5  C   UNL     1      -8.587   9.234  63.934  1.00  0.00    -0.208 C  
HETATM    6  C   UNL     1      -8.258  10.022  65.187  1.00  0.00    -0.146 C  
HETATM    7  C   UNL     1      -9.355  11.092  65.298  1.00  0.00    -0.219 C  
BRANCH   7   8
HETATM    8  C   UNL     1     -10.140  10.977  66.625  1.00  0.00    -0.220 C  
BRANCH   8   9
HETATM    9  N   UNL     1     -10.163  12.204  67.414  1.00  0.00    -0.198 N  
HETATM   10  C   UNL     1     -11.266  13.042  67.442  1.00  0.00    -0.288 C  
HETATM   11  H   UNL     1      -9.341  12.453  67.963  1.00  0.00     0.000 HD 
HETATM   12  O   UNL     1     -12.265  12.817  66.771  1.00  0.00    -0.470 OA 
BRANCH  10  13
HETATM   13  C   UNL     1     -11.158  14.257  68.324  1.00  0.00    -0.276 A  
HETATM   14  C   UNL     1     -11.528  14.214  69.688  1.00  0.00    -0.273 A  
HETATM   15  C   UNL     1     -11.424  15.380  70.466  1.00  0.00    -0.354 A  
HETATM   16  C   UNL     1     -10.724  15.475  67.764  1.00  0.00    -0.297 A  
HETATM   17  C   UNL     1     -10.623  16.618  68.562  1.00  0.00    -0.338 A  
HETATM   18  C   UNL     1     -10.975  16.577  69.908  1.00  0.00    -0.273 A  
BRANCH  14  19
HETATM   19  O   UNL     1     -11.953  13.018  70.201  1.00  0.00    -0.336 OA 
HETATM   20  C   UNL     1     -12.810  13.040  71.336  1.00  0.00    -0.292 C  
ENDBRANCH  14  19
BRANCH  17  21
HETATM   21  S   UNL     1     -10.115  18.156  67.848  1.00  0.00    -0.376 S  
HETATM   22  O   UNL     1      -9.132  18.772  68.706  1.00  0.00    -0.337 OA 
HETATM   23  N   UNL     1      -9.293  17.647  66.480  1.00  0.00    -0.270 N  
HETATM   24  O   UNL     1     -11.284  18.861  67.371  1.00  0.00    -0.230 OA 
HETATM   25  H1  UNL     1      -9.000  18.533  66.069  1.00  0.00     0.000 HD 
HETATM   26  H2  UNL     1      -9.128  16.698  66.146  1.00  0.00     0.000 HD 
ENDBRANCH  17  21
ENDBRANCH  10  13
ENDBRANCH   8   9
ENDBRANCH   7   8
ENDBRANCH   2   3
TORSDOF 6
ENDMDL
MODEL       72
REMARK 921   NORMALIZED FREE ENERGY PREDICTED BY IDOCK:   -5.14 KCAL/MOL
REMARK 922        TOTAL FREE ENERGY PREDICTED BY IDOCK:   -8.02 KCAL/MOL
REMARK 923 INTER-LIGAND FREE ENERGY PREDICTED BY IDOCK:   -7.39 KCAL/MOL
REMARK 924 INTRA-LIGAND FREE ENERGY PREDICTED BY IDOCK:   -0.63 KCAL/MOL
REMARK 927      BINDING AFFINITY PREDICTED BY RF-SCORE:    0.00 PKD
ROOT
HETATM    1  C   UNL     1     -13.801   7.712  71.357  1.00  0.00    -0.413 C  
HETATM    2  C   UNL     1     -12.444   7.029  71.206  1.00  0.00    -0.386 C  
ENDROOT
BRANCH   2   3
HETATM    3  N   UNL     1     -11.338   7.984  71.040  1.00  0.00    -0.270 NA 
HETATM    4  C   UNL     1     -10.605   8.209  72.289  1.00  0.00    -0.309 C  
HETATM    5  C   UNL     1      -9.308   8.823  71.808  1.00  0.00    -0.350 C  
HETATM    6  C   UNL     1      -8.988   8.035  70.552  1.00  0.00    -0.152 C  
HETATM    7  C   UNL     1     -10.338   7.495  70.054  1.00  0.00    -0.221 C  
BRANCH   7   8
HETATM    8  C   UNL     1     -10.659   7.981  68.621  1.00  0.00    -0.109 C  
BRANCH   8   9
HETATM    9  N   UNL     1     -11.118   9.364  68.548  1.00  0.00    -0.470 N  
HETATM   10  C   UNL     1     -10.598  10.264  67.632  1.00  0.00    -0.263 C  
HETATM   11  H   UNL     1     -11.844   9.678  69.191  1.00  0.00     0.000 HD 
HETATM   12  O   UNL     1      -9.696   9.956  66.863  1.00  0.00    -0.171 OA 
BRANCH  10  13
HETATM   13  C   UNL     1     -11.187  11.649  67.651  1.00  0.00    -0.345 A  
HETATM   14  C   UNL     1     -11.475  12.345  66.454  1.00  0.00    -0.373 A  
HETATM   15  C   UNL     1     -12.010  13.643  66.525  1.00  0.00    -0.465 A  
HETATM   16  C   UNL     1     -11.412  12.283  68.888  1.00  0.00    -0.355 A  
HETATM   17  C   UNL     1     -11.951  13.571  68.931  1.00  0.00    -0.341 A  
HETATM   18  C   UNL     1     -12.247  14.255  67.755  1.00  0.00    -0.199 A  
BRANCH  14  19
HETATM   19  O   UNL     1     -11.239  11.706  65.266  1.00  0.00    -0.279 OA 
HETATM   20  C   UNL     1     -10.675  12.458  64.199  1.00  0.00    -0.379 C  
ENDBRANCH  14  19
BRANCH  17  21
HETATM   21  S   UNL     1     -12.196  14.381  70.486  1.00  0.00    -0.363 S  
HETATM   22  O   UNL     1     -10.984  15.075  70.852  1.00  0.00    -0.237 OA 
HETATM   23  N   UNL     1     -13.313  15.563  70.087  1.00  0.00    -0.594 N  
HETATM   24  O   UNL     1     -12.877  13.475  71.384  1.00  0.00    -0.350 OA 
HETATM   25  H1  UNL     1     -13.455  16.029  70.983  1.00  0.00     0.000 HD 
HETATM   26  H2  UNL     1     -13.742  15.764  69.184  1.00  0.00     0.000 HD 
ENDBRANCH  17  21
ENDBRANCH  10  13
ENDBRANCH   8   9
ENDBRANCH   7   8
ENDBRANCH   2   3
TORSDOF 6
ENDMDL
MODEL       73
REMARK 921   NORMALIZED FREE ENERGY PREDICTED BY IDOCK:   -5.13 KCAL/MOL
REMARK 922        TOTAL FREE ENERGY PREDICTED BY IDOCK:   -8.01 KCAL/MOL
REMARK 923 INTER-LIGAND FREE ENERGY PREDICTED BY IDOCK:   -7.04 KCAL/MOL
REMARK 924 INTRA-LIGAND FREE ENERGY PREDICTED BY IDOCK:   -0.97 KCAL/MOL
REMARK 927      BINDING AFFINITY PREDICTED BY RF-SCORE:    0.00 PKD
ROOT
HETATM    1  C   UNL     1     -10.785  19.463  67.341  1.00  0.00    -0.594 C  
HETATM    2  C   UNL     1      -9.873  19.780  66.159  1.00  0.00    -0.448 C  
ENDROOT
BRANCH   2   3
HETATM    3  N   UNL     1      -8.445  19.738  66.511  1.00  0.00    -0.331 NA 
HETATM    4  C   UNL     1      -8.010  20.950  67.212  1.00  0.00    -0.129 C  
HETATM    5  C   UNL     1      -6.708  20.515  67.851  1.00  0.00    -0.346 C  
HETATM    6  C   UNL     1      -6.998  19.102  68.317  1.00  0.00    -0.292 C  
HETATM    7  C   UNL     1      -8.140  18.601  67.420  1.00  0.00    -0.247 C  
BRANCH   7   8
HETATM    8  C   UNL     1      -7.741  17.330  66.634  1.00  0.00    -0.263 C  
BRANCH   8   9
HETATM    9  N   UNL     1      -8.498  16.138  67.000  1.00  0.00    -0.190 N  
HETATM   10  C   UNL     1      -9.652  15.763  66.330  1.00  0.00    -0.313 C  
HETATM   11  H   UNL     1      -8.169  15.562  67.775  1.00  0.00     0.000 HD 
HETATM   12  O   UNL     1     -10.118  16.438  65.420  1.00  0.00    -0.543 OA 
BRANCH  10  13
HETATM   13  C   UNL     1     -10.312  14.495  66.798  1.00  0.00    -0.269 A  
HETATM   14  C   UNL     1     -11.268  14.502  67.841  1.00  0.00    -0.295 A  
HETATM   15  C   UNL     1     -11.845  13.288  68.252  1.00  0.00    -0.389 A  
HETATM   16  C   UNL     1      -9.935  13.269  66.216  1.00  0.00    -0.291 A  
HETATM   17  C   UNL     1     -10.530  12.078  66.639  1.00  0.00    -0.215 A  
HETATM   18  C   UNL     1     -11.480  12.081  67.657  1.00  0.00    -0.392 A  
BRANCH  14  19
HETATM   19  O   UNL     1     -11.608  15.708  68.392  1.00  0.00    -0.365 OA 
HETATM   20  C   UNL     1     -12.045  15.729  69.745  1.00  0.00    -0.281 C  
ENDBRANCH  14  19
BRANCH  17  21
HETATM   21  S   UNL     1     -10.026  10.534  65.934  1.00  0.00    -0.264 S  
HETATM   22  O   UNL     1     -10.778   9.466  66.548  1.00  0.00    -0.107 OA 
HETATM   23  N   UNL     1     -10.598  10.669  64.365  1.00  0.00    -0.325 N  
HETATM   24  O   UNL     1      -8.584  10.513  65.832  1.00  0.00    -0.151 OA 
HETATM   25  H1  UNL     1     -10.307   9.780  63.958  1.00  0.00     0.000 HD 
HETATM   26  H2  UNL     1     -11.104  11.440  63.929  1.00  0.00     0.000 HD 
ENDBRANCH  17  21
ENDBRANCH  10  13
ENDBRANCH   8   9
ENDBRANCH   7   8
ENDBRANCH   2   3
TORSDOF 6
ENDMDL
MODEL       74
REMARK 921   NORMALIZED FREE ENERGY PREDICTED BY IDOCK:   -5.12 KCAL/MOL
REMARK 922        TOTAL FREE ENERGY PREDICTED BY IDOCK:   -8.00 KCAL/MOL
REMARK 923 INTER-LIGAND FREE ENERGY PREDICTED BY IDOCK:   -7.22 KCAL/MOL
REMARK 924 INTRA-LIGAND FREE ENERGY PREDICTED BY IDOCK:   -0.77 KCAL/MOL
REMARK 927      BINDING AFFINITY PREDICTED BY RF-SCORE:    0.00 PKD
ROOT
HETATM    1  C   UNL     1      -7.654  12.714  67.529  1.00  0.00    -0.160 C  
HETATM    2  C   UNL     1      -8.010  11.294  67.961  1.00  0.00    -0.119 C  
ENDROOT
BRANCH   2   3
HETATM    3  N   UNL     1      -8.849  10.591  66.979  1.00  0.00    -0.136 NA 
HETATM    4  C   UNL     1      -8.058   9.767  66.059  1.00  0.00    -0.114 C  
HETATM    5  C   UNL     1      -9.095   8.832  65.476  1.00  0.00    -0.221 C  
HETATM    6  C   UNL     1      -9.977   8.495  66.663  1.00  0.00    -0.363 C  
HETATM    7  C   UNL     1      -9.810   9.669  67.642  1.00  0.00    -0.164 C  
BRANCH   7   8
HETATM    8  C   UNL     1     -11.158  10.363  67.943  1.00  0.00    -0.299 C  
BRANCH   8   9
HETATM    9  N   UNL     1     -11.049  11.796  68.195  1.00  0.00    -0.225 N  
HETATM   10  C   UNL     1     -11.586  12.739  67.334  1.00  0.00    -0.356 C  
HETATM   11  H   UNL     1     -10.561  12.115  69.032  1.00  0.00     0.000 HD 
HETATM   12  O   UNL     1     -12.145  12.417  66.293  1.00  0.00    -0.612 OA 
BRANCH  10  13
HETATM   13  C   UNL     1     -11.423  14.180  67.736  1.00  0.00    -0.352 A  
HETATM   14  C   UNL     1     -11.789  14.632  69.025  1.00  0.00    -0.310 A  
HETATM   15  C   UNL     1     -11.632  15.991  69.347  1.00  0.00    -0.320 A  
HETATM   16  C   UNL     1     -10.939  15.106  66.792  1.00  0.00    -0.321 A  
HETATM   17  C   UNL     1     -10.786  16.450  67.140  1.00  0.00    -0.233 A  
HETATM   18  C   UNL     1     -11.134  16.898  68.412  1.00  0.00    -0.216 A  
BRANCH  14  19
HETATM   19  O   UNL     1     -12.264  13.710  69.919  1.00  0.00    -0.321 OA 
HETATM   20  C   UNL     1     -12.825  14.182  71.138  1.00  0.00    -0.360 C  
ENDBRANCH  14  19
BRANCH  17  21
HETATM   21  S   UNL     1     -10.214  17.619  65.940  1.00  0.00    -0.148 S  
HETATM   22  O   UNL     1     -10.982  17.465  64.728  1.00  0.00    -0.964 OA 
HETATM   23  N   UNL     1     -10.693  19.073  66.619  1.00  0.00    -0.389 N  
HETATM   24  O   UNL     1      -8.768  17.632  65.949  1.00  0.00    -0.520 OA 
HETATM   25  H1  UNL     1     -10.364  19.747  65.928  1.00  0.00     0.000 HD 
HETATM   26  H2  UNL     1     -11.186  19.242  67.496  1.00  0.00     0.000 HD 
ENDBRANCH  17  21
ENDBRANCH  10  13
ENDBRANCH   8   9
ENDBRANCH   7   8
ENDBRANCH   2   3
TORSDOF 6
ENDMDL
MODEL       75
REMARK 921   NORMALIZED FREE ENERGY PREDICTED BY IDOCK:   -5.09 KCAL/MOL
REMARK 922        TOTAL FREE ENERGY PREDICTED BY IDOCK:   -7.96 KCAL/MOL
REMARK 923 INTER-LIGAND FREE ENERGY PREDICTED BY IDOCK:   -7.09 KCAL/MOL
REMARK 924 INTRA-LIGAND FREE ENERGY PREDICTED BY IDOCK:   -0.87 KCAL/MOL
REMARK 927      BINDING AFFINITY PREDICTED BY RF-SCORE:    0.00 PKD
ROOT
HETATM    1  C   UNL     1      -9.833  18.025  68.455  1.00  0.00    -0.383 C  
HETATM    2  C   UNL     1      -9.845  16.501  68.382  1.00  0.00    -0.237 C  
ENDROOT
BRANCH   2   3
HETATM    3  N   UNL     1     -10.714  15.987  67.311  1.00  0.00    -0.313 NA 
HETATM    4  C   UNL     1     -10.259  16.400  65.980  1.00  0.00    -0.356 C  
HETATM    5  C   UNL     1     -10.981  15.433  65.067  1.00  0.00    -0.450 C  
HETATM    6  C   UNL     1     -10.911  14.117  65.819  1.00  0.00    -0.297 C  
HETATM    7  C   UNL     1     -10.742  14.500  67.297  1.00  0.00    -0.287 C  
BRANCH   7   8
HETATM    8  C   UNL     1     -11.888  13.940  68.171  1.00  0.00    -0.372 C  
BRANCH   8   9
HETATM    9  N   UNL     1     -11.481  12.873  69.079  1.00  0.00    -0.289 N  
HETATM   10  C   UNL     1     -11.558  11.536  68.726  1.00  0.00    -0.316 C  
HETATM   11  H   UNL     1     -11.128  13.120  70.004  1.00  0.00     0.000 HD 
HETATM   12  O   UNL     1     -12.013  11.178  67.647  1.00  0.00    -0.613 OA 
BRANCH  10  13
HETATM   13  C   UNL     1     -11.076  10.546  69.753  1.00  0.00    -0.354 A  
HETATM   14  C   UNL     1     -11.884  10.168  70.850  1.00  0.00    -0.374 A  
HETATM   15  C   UNL     1     -11.382   9.252  71.790  1.00  0.00    -0.437 A  
HETATM   16  C   UNL     1      -9.773  10.023  69.643  1.00  0.00    -0.255 A  
HETATM   17  C   UNL     1      -9.301   9.109  70.589  1.00  0.00    -0.258 A  
HETATM   18  C   UNL     1     -10.098   8.724  71.663  1.00  0.00    -0.390 A  
BRANCH  14  19
HETATM   19  O   UNL     1     -13.144  10.699  70.933  1.00  0.00    -0.357 OA 
HETATM   20  C   UNL     1     -13.404  11.652  71.957  1.00  0.00    -0.300 C  
ENDBRANCH  14  19
BRANCH  17  21
HETATM   21  S   UNL     1      -7.649   8.482  70.471  1.00  0.00    -0.082 S  
HETATM   22  O   UNL     1      -6.825   9.135  71.460  1.00  0.00    -0.210 OA 
HETATM   23  N   UNL     1      -7.843   6.901  70.988  1.00  0.00    -0.096 N  
HETATM   24  O   UNL     1      -7.277   8.402  69.076  1.00  0.00    -0.067 OA 
HETATM   25  H1  UNL     1      -6.891   6.540  70.920  1.00  0.00     0.000 HD 
HETATM   26  H2  UNL     1      -8.691   6.423  71.292  1.00  0.00     0.000 HD 
ENDBRANCH  17  21
ENDBRANCH  10  13
ENDBRANCH   8   9
ENDBRANCH   7   8
ENDBRANCH   2   3
TORSDOF 6
ENDMDL
MODEL       76
REMARK 921   NORMALIZED FREE ENERGY PREDICTED BY IDOCK:   -5.08 KCAL/MOL
REMARK 922        TOTAL FREE ENERGY PREDICTED BY IDOCK:   -7.95 KCAL/MOL
REMARK 923 INTER-LIGAND FREE ENERGY PREDICTED BY IDOCK:   -6.85 KCAL/MOL
REMARK 924 INTRA-LIGAND FREE ENERGY PREDICTED BY IDOCK:   -1.10 KCAL/MOL
REMARK 927      BINDING AFFINITY PREDICTED BY RF-SCORE:    0.00 PKD
ROOT
HETATM    1  C   UNL     1      -9.208   3.325  69.192  1.00  0.00    -0.225 C  
HETATM    2  C   UNL     1      -8.497   4.654  69.434  1.00  0.00    -0.081 C  
ENDROOT
BRANCH   2   3
HETATM    3  N   UNL     1      -8.971   5.726  68.545  1.00  0.00    -0.112 NA 
HETATM    4  C   UNL     1      -8.802   5.389  67.128  1.00  0.00    -0.109 C  
HETATM    5  C   UNL     1      -9.726   6.370  66.440  1.00  0.00    -0.140 C  
HETATM    6  C   UNL     1     -10.937   6.414  67.352  1.00  0.00    -0.463 C  
HETATM    7  C   UNL     1     -10.421   5.994  68.738  1.00  0.00    -0.248 C  
BRANCH   7   8
HETATM    8  C   UNL     1     -10.666   7.091  69.800  1.00  0.00    -0.241 C  
BRANCH   8   9
HETATM    9  N   UNL     1     -11.082   8.376  69.248  1.00  0.00    -0.428 N  
HETATM   10  C   UNL     1     -10.169   9.303  68.771  1.00  0.00    -0.205 C  
HETATM   11  H   UNL     1     -12.076   8.599  69.212  1.00  0.00     0.000 HD 
HETATM   12  O   UNL     1      -8.961   9.108  68.827  1.00  0.00    -0.135 OA 
BRANCH  10  13
HETATM   13  C   UNL     1     -10.744  10.573  68.203  1.00  0.00    -0.273 A  
HETATM   14  C   UNL     1     -11.329  11.555  69.036  1.00  0.00    -0.276 A  
HETATM   15  C   UNL     1     -11.866  12.717  68.456  1.00  0.00    -0.342 A  
HETATM   16  C   UNL     1     -10.741  10.764  66.808  1.00  0.00    -0.291 A  
HETATM   17  C   UNL     1     -11.275  11.932  66.258  1.00  0.00    -0.337 A  
HETATM   18  C   UNL     1     -11.841  12.907  67.075  1.00  0.00    -0.437 A  
BRANCH  14  19
HETATM   19  O   UNL     1     -11.323  11.337  70.388  1.00  0.00    -0.219 OA 
HETATM   20  C   UNL     1     -12.477  11.706  71.132  1.00  0.00    -0.307 C  
ENDBRANCH  14  19
BRANCH  17  21
HETATM   21  S   UNL     1     -11.305  12.153  64.501  1.00  0.00    -0.341 S  
HETATM   22  O   UNL     1     -12.609  12.633  64.109  1.00  0.00    -0.605 OA 
HETATM   23  N   UNL     1     -10.250  13.438  64.297  1.00  0.00    -0.669 N  
HETATM   24  O   UNL     1     -10.673  11.015  63.874  1.00  0.00    -0.369 OA 
HETATM   25  H1  UNL     1     -10.267  13.566  63.286  1.00  0.00     0.000 HD 
HETATM   26  H2  UNL     1      -9.726  13.958  65.001  1.00  0.00     0.000 HD 
ENDBRANCH  17  21
ENDBRANCH  10  13
ENDBRANCH   8   9
ENDBRANCH   7   8
ENDBRANCH   2   3
TORSDOF 6
ENDMDL
MODEL       77
REMARK 921   NORMALIZED FREE ENERGY PREDICTED BY IDOCK:   -5.08 KCAL/MOL
REMARK 922        TOTAL FREE ENERGY PREDICTED BY IDOCK:   -7.95 KCAL/MOL
REMARK 923 INTER-LIGAND FREE ENERGY PREDICTED BY IDOCK:   -7.00 KCAL/MOL
REMARK 924 INTRA-LIGAND FREE ENERGY PREDICTED BY IDOCK:   -0.95 KCAL/MOL
REMARK 927      BINDING AFFINITY PREDICTED BY RF-SCORE:    0.00 PKD
ROOT
HETATM    1  C   UNL     1     -10.191  20.043  65.990  1.00  0.00    -0.568 C  
HETATM    2  C   UNL     1      -9.174  19.801  67.102  1.00  0.00    -0.342 C  
ENDROOT
BRANCH   2   3
HETATM    3  N   UNL     1      -8.796  18.385  67.232  1.00  0.00    -0.256 NA 
HETATM    4  C   UNL     1      -7.345  18.205  67.341  1.00  0.00    -0.210 C  
HETATM    5  C   UNL     1      -7.225  16.804  67.901  1.00  0.00    -0.159 C  
HETATM    6  C   UNL     1      -8.353  16.730  68.913  1.00  0.00    -0.222 C  
HETATM    7  C   UNL     1      -9.384  17.773  68.453  1.00  0.00    -0.294 C  
BRANCH   7   8
HETATM    8  C   UNL     1     -10.762  17.133  68.168  1.00  0.00    -0.366 C  
BRANCH   8   9
HETATM    9  N   UNL     1     -10.708  15.708  67.860  1.00  0.00    -0.286 N  
HETATM   10  C   UNL     1     -11.475  14.777  68.542  1.00  0.00    -0.308 C  
HETATM   11  H   UNL     1     -10.084  15.386  67.120  1.00  0.00     0.000 HD 
HETATM   12  O   UNL     1     -12.209  15.099  69.468  1.00  0.00    -0.292 OA 
BRANCH  10  13
HETATM   13  C   UNL     1     -11.337  13.346  68.098  1.00  0.00    -0.321 A  
HETATM   14  C   UNL     1     -11.445  12.982  66.735  1.00  0.00    -0.345 A  
HETATM   15  C   UNL     1     -11.325  11.630  66.373  1.00  0.00    -0.312 A  
HETATM   16  C   UNL     1     -11.145  12.341  69.066  1.00  0.00    -0.289 A  
HETATM   17  C   UNL     1     -11.021  11.005  68.678  1.00  0.00    -0.224 A  
HETATM   18  C   UNL     1     -11.114  10.644  67.336  1.00  0.00    -0.341 A  
BRANCH  14  19
HETATM   19  O   UNL     1     -11.641  13.980  65.818  1.00  0.00    -0.323 OA 
HETATM   20  C   UNL     1     -10.889  13.939  64.611  1.00  0.00    -0.408 C  
ENDBRANCH  14  19
BRANCH  17  21
HETATM   21  S   UNL     1     -10.818   9.740  69.900  1.00  0.00    -0.289 S  
HETATM   22  O   UNL     1     -10.975   8.449  69.274  1.00  0.00    -0.112 OA 
HETATM   23  N   UNL     1      -9.192   9.884  70.278  1.00  0.00    -0.375 N  
HETATM   24  O   UNL     1     -11.539  10.121  71.094  1.00  0.00    -0.359 OA 
HETATM   25  H1  UNL     1      -9.075   9.156  70.982  1.00  0.00     0.000 HD 
HETATM   26  H2  UNL     1      -8.500  10.532  69.902  1.00  0.00     0.000 HD 
ENDBRANCH  17  21
ENDBRANCH  10  13
ENDBRANCH   8   9
ENDBRANCH   7   8
ENDBRANCH   2   3
TORSDOF 6
ENDMDL
MODEL       78
REMARK 921   NORMALIZED FREE ENERGY PREDICTED BY IDOCK:   -5.07 KCAL/MOL
REMARK 922        TOTAL FREE ENERGY PREDICTED BY IDOCK:   -7.93 KCAL/MOL
REMARK 923 INTER-LIGAND FREE ENERGY PREDICTED BY IDOCK:   -6.95 KCAL/MOL
REMARK 924 INTRA-LIGAND FREE ENERGY PREDICTED BY IDOCK:   -0.98 KCAL/MOL
REMARK 927      BINDING AFFINITY PREDICTED BY RF-SCORE:    0.00 PKD
ROOT
HETATM    1  C   UNL     1     -11.610  14.717  65.785  1.00  0.00    -0.328 C  
HETATM    2  C   UNL     1     -12.129  14.268  67.148  1.00  0.00    -0.377 C  
ENDROOT
BRANCH   2   3
HETATM    3  N   UNL     1     -11.182  14.545  68.240  1.00  0.00    -0.265 NA 
HETATM    4  C   UNL     1     -10.169  15.535  67.860  1.00  0.00    -0.238 C  
HETATM    5  C   UNL     1      -9.624  15.984  69.198  1.00  0.00    -0.257 C  
HETATM    6  C   UNL     1     -10.859  16.056  70.077  1.00  0.00    -0.353 C  
HETATM    7  C   UNL     1     -11.873  15.096  69.435  1.00  0.00    -0.330 C  
BRANCH   7   8
HETATM    8  C   UNL     1     -12.307  13.980  70.413  1.00  0.00    -0.359 C  
BRANCH   8   9
HETATM    9  N   UNL     1     -11.693  12.683  70.150  1.00  0.00    -0.538 N  
HETATM   10  C   UNL     1     -12.189  11.509  70.693  1.00  0.00    -0.378 C  
HETATM   11  H   UNL     1     -10.871  12.639  69.548  1.00  0.00     0.000 HD 
HETATM   12  O   UNL     1     -13.146  11.505  71.458  1.00  0.00    -0.422 OA 
BRANCH  10  13
HETATM   13  C   UNL     1     -11.471  10.242  70.312  1.00  0.00    -0.395 A  
HETATM   14  C   UNL     1     -11.194   9.929  68.961  1.00  0.00    -0.087 A  
HETATM   15  C   UNL     1     -10.534   8.726  68.655  1.00  0.00    -0.213 A  
HETATM   16  C   UNL     1     -11.111   9.327  71.320  1.00  0.00    -0.427 A  
HETATM   17  C   UNL     1     -10.450   8.141  70.989  1.00  0.00    -0.201 A  
HETATM   18  C   UNL     1     -10.164   7.835  69.661  1.00  0.00    -0.206 A  
BRANCH  14  19
HETATM   19  O   UNL     1     -11.563  10.835  68.003  1.00  0.00    -0.470 OA 
HETATM   20  C   UNL     1     -10.738  10.970  66.852  1.00  0.00    -0.274 C  
ENDBRANCH  14  19
BRANCH  17  21
HETATM   21  S   UNL     1     -10.033   6.974  72.254  1.00  0.00    -0.172 S  
HETATM   22  O   UNL     1      -9.095   6.016  71.721  1.00  0.00    -0.145 OA 
HETATM   23  N   UNL     1      -9.173   7.926  73.331  1.00  0.00    -0.277 N  
HETATM   24  O   UNL     1     -11.240   6.581  72.946  1.00  0.00    -0.242 OA 
HETATM   25  H1  UNL     1      -8.933   7.254  74.059  1.00  0.00     0.000 HD 
HETATM   26  H2  UNL     1      -8.948   8.919  73.273  1.00  0.00     0.000 HD 
ENDBRANCH  17  21
ENDBRANCH  10  13
ENDBRANCH   8   9
ENDBRANCH   7   8
ENDBRANCH   2   3
TORSDOF 6
ENDMDL
MODEL       79
REMARK 921   NORMALIZED FREE ENERGY PREDICTED BY IDOCK:   -5.06 KCAL/MOL
REMARK 922        TOTAL FREE ENERGY PREDICTED BY IDOCK:   -7.92 KCAL/MOL
REMARK 923 INTER-LIGAND FREE ENERGY PREDICTED BY IDOCK:   -7.27 KCAL/MOL
REMARK 924 INTRA-LIGAND FREE ENERGY PREDICTED BY IDOCK:   -0.65 KCAL/MOL
REMARK 927      BINDING AFFINITY PREDICTED BY RF-SCORE:    0.00 PKD
ROOT
HETATM    1  C   UNL     1     -11.549  13.397  64.341  1.00  0.00    -0.421 C  
HETATM    2  C   UNL     1     -11.747  12.252  65.330  1.00  0.00    -0.370 C  
ENDROOT
BRANCH   2   3
HETATM    3  N   UNL     1     -10.977  11.049  64.975  1.00  0.00    -0.124 NA 
HETATM    4  C   UNL     1     -10.065  11.285  63.852  1.00  0.00    -0.340 C  
HETATM    5  C   UNL     1      -9.100  10.123  63.958  1.00  0.00    -0.289 C  
HETATM    6  C   UNL     1      -8.881   9.980  65.452  1.00  0.00    -0.199 C  
HETATM    7  C   UNL     1     -10.131  10.589  66.108  1.00  0.00    -0.246 C  
BRANCH   7   8
HETATM    8  C   UNL     1     -10.871   9.563  66.998  1.00  0.00    -0.055 C  
BRANCH   8   9
HETATM    9  N   UNL     1     -11.591  10.155  68.120  1.00  0.00    -0.467 N  
HETATM   10  C   UNL     1     -10.966  10.974  69.048  1.00  0.00    -0.233 C  
HETATM   11  H   UNL     1     -12.587   9.961  68.226  1.00  0.00     0.000 HD 
HETATM   12  O   UNL     1      -9.765  11.208  68.996  1.00  0.00    -0.181 OA 
BRANCH  10  13
HETATM   13  C   UNL     1     -11.840  11.537  70.136  1.00  0.00    -0.440 A  
HETATM   14  C   UNL     1     -12.595  10.696  70.985  1.00  0.00    -0.416 A  
HETATM   15  C   UNL     1     -13.408  11.272  71.977  1.00  0.00    -0.386 A  
HETATM   16  C   UNL     1     -11.943  12.935  70.279  1.00  0.00    -0.359 A  
HETATM   17  C   UNL     1     -12.754  13.481  71.277  1.00  0.00    -0.348 A  
HETATM   18  C   UNL     1     -13.490  12.656  72.124  1.00  0.00    -0.561 A  
BRANCH  14  19
HETATM   19  O   UNL     1     -12.480   9.342  70.817  1.00  0.00    -0.213 OA 
HETATM   20  C   UNL     1     -13.642   8.542  70.992  1.00  0.00     0.134 C  
ENDBRANCH  14  19
BRANCH  17  21
HETATM   21  S   UNL     1     -12.912  15.237  71.430  1.00  0.00    -0.468 S  
HETATM   22  O   UNL     1     -14.241  15.552  71.898  1.00  0.00    -0.503 OA 
HETATM   23  N   UNL     1     -11.875  15.568  72.703  1.00  0.00    -0.439 N  
HETATM   24  O   UNL     1     -12.327  15.864  70.266  1.00  0.00    -0.351 OA 
HETATM   25  H1  UNL     1     -11.966  16.580  72.791  1.00  0.00     0.000 HD 
HETATM   26  H2  UNL     1     -11.301  14.924  73.248  1.00  0.00     0.000 HD 
ENDBRANCH  17  21
ENDBRANCH  10  13
ENDBRANCH   8   9
ENDBRANCH   7   8
ENDBRANCH   2   3
TORSDOF 6
ENDMDL
MODEL       80
REMARK 921   NORMALIZED FREE ENERGY PREDICTED BY IDOCK:   -5.04 KCAL/MOL
REMARK 922        TOTAL FREE ENERGY PREDICTED BY IDOCK:   -7.90 KCAL/MOL
REMARK 923 INTER-LIGAND FREE ENERGY PREDICTED BY IDOCK:   -7.39 KCAL/MOL
REMARK 924 INTRA-LIGAND FREE ENERGY PREDICTED BY IDOCK:   -0.51 KCAL/MOL
REMARK 927      BINDING AFFINITY PREDICTED BY RF-SCORE:    0.00 PKD
ROOT
HETATM    1  C   UNL     1      -7.466   8.231  63.728  1.00  0.00    -0.121 C  
HETATM    2  C   UNL     1      -8.653   8.665  64.585  1.00  0.00    -0.089 C  
ENDROOT
BRANCH   2   3
HETATM    3  N   UNL     1      -8.915  10.110  64.507  1.00  0.00    -0.201 NA 
HETATM    4  C   UNL     1      -9.486  10.503  63.215  1.00  0.00    -0.325 C  
HETATM    5  C   UNL     1     -10.073  11.867  63.512  1.00  0.00    -0.464 C  
HETATM    6  C   UNL     1     -10.671  11.701  64.896  1.00  0.00    -0.352 C  
HETATM    7  C   UNL     1      -9.892  10.544  65.542  1.00  0.00    -0.265 C  
BRANCH   7   8
HETATM    8  C   UNL     1      -9.189  10.982  66.847  1.00  0.00    -0.155 C  
BRANCH   8   9
HETATM    9  N   UNL     1      -9.800  12.136  67.497  1.00  0.00    -0.189 N  
HETATM   10  C   UNL     1     -10.808  12.003  68.439  1.00  0.00    -0.233 C  
HETATM   11  H   UNL     1      -9.475  13.071  67.251  1.00  0.00     0.000 HD 
HETATM   12  O   UNL     1     -11.267  10.910  68.743  1.00  0.00    -0.227 OA 
BRANCH  10  13
HETATM   13  C   UNL     1     -11.324  13.279  69.048  1.00  0.00    -0.334 A  
HETATM   14  C   UNL     1     -11.173  14.523  68.392  1.00  0.00    -0.271 A  
HETATM   15  C   UNL     1     -11.658  15.689  69.009  1.00  0.00    -0.396 A  
HETATM   16  C   UNL     1     -11.926  13.239  70.320  1.00  0.00    -0.372 A  
HETATM   17  C   UNL     1     -12.406  14.412  70.908  1.00  0.00    -0.349 A  
HETATM   18  C   UNL     1     -12.271  15.637  70.260  1.00  0.00    -0.416 A  
BRANCH  14  19
HETATM   19  O   UNL     1     -10.577  14.532  67.159  1.00  0.00    -0.269 OA 
HETATM   20  C   UNL     1     -10.342  15.788  66.535  1.00  0.00    -0.294 C  
ENDBRANCH  14  19
BRANCH  17  21
HETATM   21  S   UNL     1     -13.128  14.364  72.524  1.00  0.00    -0.470 S  
HETATM   22  O   UNL     1     -12.181  14.888  73.479  1.00  0.00    -0.395 OA 
HETATM   23  N   UNL     1     -14.345  15.508  72.392  1.00  0.00    -0.508 N  
HETATM   24  O   UNL     1     -13.793  13.093  72.703  1.00  0.00    -0.691 OA 
HETATM   25  H1  UNL     1     -14.761  15.481  73.323  1.00  0.00     0.000 HD 
HETATM   26  H2  UNL     1     -14.603  16.082  71.590  1.00  0.00     0.000 HD 
ENDBRANCH  17  21
ENDBRANCH  10  13
ENDBRANCH   8   9
ENDBRANCH   7   8
ENDBRANCH   2   3
TORSDOF 6
ENDMDL
MODEL       81
REMARK 921   NORMALIZED FREE ENERGY PREDICTED BY IDOCK:   -5.04 KCAL/MOL
REMARK 922        TOTAL FREE ENERGY PREDICTED BY IDOCK:   -7.89 KCAL/MOL
REMARK 923 INTER-LIGAND FREE ENERGY PREDICTED BY IDOCK:   -6.58 KCAL/MOL
REMARK 924 INTRA-LIGAND FREE ENERGY PREDICTED BY IDOCK:   -1.32 KCAL/MOL
REMARK 927      BINDING AFFINITY PREDICTED BY RF-SCORE:    0.00 PKD
ROOT
HETATM    1  C   UNL     1     -10.532   9.156  68.902  1.00  0.00    -0.239 C  
HETATM    2  C   UNL     1     -10.083  10.614  68.931  1.00  0.00    -0.202 C  
ENDROOT
BRANCH   2   3
HETATM    3  N   UNL     1      -9.631  11.099  67.618  1.00  0.00    -0.168 NA 
HETATM    4  C   UNL     1      -8.563  10.267  67.055  1.00  0.00    -0.129 C  
HETATM    5  C   UNL     1      -8.579  10.651  65.591  1.00  0.00    -0.187 C  
HETATM    6  C   UNL     1     -10.057  10.784  65.277  1.00  0.00    -0.353 C  
HETATM    7  C   UNL     1     -10.735  11.087  66.622  1.00  0.00    -0.249 C  
BRANCH   7   8
HETATM    8  C   UNL     1     -11.497  12.432  66.593  1.00  0.00    -0.370 C  
BRANCH   8   9
HETATM    9  N   UNL     1     -10.683  13.588  66.955  1.00  0.00    -0.275 N  
HETATM   10  C   UNL     1     -10.187  14.467  66.006  1.00  0.00    -0.315 C  
HETATM   11  H   UNL     1     -10.472  13.754  67.939  1.00  0.00     0.000 HD 
HETATM   12  O   UNL     1     -10.371  14.295  64.808  1.00  0.00    -0.433 OA 
BRANCH  10  13
HETATM   13  C   UNL     1      -9.388  15.630  66.528  1.00  0.00    -0.305 A  
HETATM   14  C   UNL     1      -8.136  15.442  67.159  1.00  0.00    -0.217 A  
HETATM   15  C   UNL     1      -7.435  16.560  67.643  1.00  0.00    -0.163 A  
HETATM   16  C   UNL     1      -9.921  16.930  66.428  1.00  0.00    -0.321 A  
HETATM   17  C   UNL     1      -9.201  18.025  66.912  1.00  0.00    -0.269 A  
HETATM   18  C   UNL     1      -7.962  17.845  67.523  1.00  0.00    -0.217 A  
BRANCH  14  19
HETATM   19  O   UNL     1      -7.647  14.166  67.248  1.00  0.00    -0.177 OA 
HETATM   20  C   UNL     1      -7.182  13.712  68.512  1.00  0.00    -0.109 C  
ENDBRANCH  14  19
BRANCH  17  21
HETATM   21  S   UNL     1      -9.890  19.653  66.820  1.00  0.00    -0.430 S  
HETATM   22  O   UNL     1     -10.417  20.015  68.114  1.00  0.00    -0.396 OA 
HETATM   23  N   UNL     1      -8.524  20.593  66.588  1.00  0.00    -0.547 N  
HETATM   24  O   UNL     1     -10.664  19.767  65.604  1.00  0.00    -0.505 OA 
HETATM   25  H1  UNL     1      -8.921  21.531  66.535  1.00  0.00     0.000 HD 
HETATM   26  H2  UNL     1      -7.549  20.304  66.518  1.00  0.00     0.000 HD 
ENDBRANCH  17  21
ENDBRANCH  10  13
ENDBRANCH   8   9
ENDBRANCH   7   8
ENDBRANCH   2   3
TORSDOF 6
ENDMDL
MODEL       82
REMARK 921   NORMALIZED FREE ENERGY PREDICTED BY IDOCK:   -5.02 KCAL/MOL
REMARK 922        TOTAL FREE ENERGY PREDICTED BY IDOCK:   -7.87 KCAL/MOL
REMARK 923 INTER-LIGAND FREE ENERGY PREDICTED BY IDOCK:   -6.84 KCAL/MOL
REMARK 924 INTRA-LIGAND FREE ENERGY PREDICTED BY IDOCK:   -1.03 KCAL/MOL
REMARK 927      BINDING AFFINITY PREDICTED BY RF-SCORE:    0.00 PKD
ROOT
HETATM    1  C   UNL     1     -13.002   8.995  71.614  1.00  0.00    -0.418 C  
HETATM    2  C   UNL     1     -11.625   8.618  72.151  1.00  0.00    -0.370 C  
ENDROOT
BRANCH   2   3
HETATM    3  N   UNL     1     -10.823   7.854  71.183  1.00  0.00    -0.232 NA 
HETATM    4  C   UNL     1     -11.313   6.483  71.015  1.00  0.00    -0.323 C  
HETATM    5  C   UNL     1     -10.670   6.058  69.712  1.00  0.00    -0.399 C  
HETATM    6  C   UNL     1     -10.766   7.300  68.848  1.00  0.00    -0.173 C  
HETATM    7  C   UNL     1     -10.858   8.477  69.833  1.00  0.00    -0.205 C  
BRANCH   7   8
HETATM    8  C   UNL     1      -9.703   9.485  69.635  1.00  0.00    -0.200 C  
BRANCH   8   9
HETATM    9  N   UNL     1     -10.103  10.883  69.758  1.00  0.00    -0.411 N  
HETATM   10  C   UNL     1     -10.709  11.571  68.719  1.00  0.00    -0.211 C  
HETATM   11  H   UNL     1      -9.930  11.370  70.637  1.00  0.00     0.000 HD 
HETATM   12  O   UNL     1     -10.903  11.051  67.627  1.00  0.00    -0.219 OA 
BRANCH  10  13
HETATM   13  C   UNL     1     -11.093  12.999  68.999  1.00  0.00    -0.281 A  
HETATM   14  C   UNL     1     -12.018  13.329  70.017  1.00  0.00    -0.329 A  
HETATM   15  C   UNL     1     -12.356  14.676  70.229  1.00  0.00    -0.406 A  
HETATM   16  C   UNL     1     -10.555  14.024  68.197  1.00  0.00    -0.252 A  
HETATM   17  C   UNL     1     -10.902  15.357  68.434  1.00  0.00    -0.268 A  
HETATM   18  C   UNL     1     -11.803  15.687  69.443  1.00  0.00    -0.391 A  
BRANCH  14  19
HETATM   19  O   UNL     1     -12.530  12.309  70.774  1.00  0.00    -0.346 OA 
HETATM   20  C   UNL     1     -13.292  12.646  71.927  1.00  0.00    -0.387 C  
ENDBRANCH  14  19
BRANCH  17  21
HETATM   21  S   UNL     1     -10.254  16.640  67.401  1.00  0.00    -0.290 S  
HETATM   22  O   UNL     1      -8.815  16.531  67.358  1.00  0.00    -0.188 OA 
HETATM   23  N   UNL     1     -10.806  16.177  65.889  1.00  0.00    -0.234 N  
HETATM   24  O   UNL     1     -10.932  17.879  67.710  1.00  0.00    -0.307 OA 
HETATM   25  H1  UNL     1     -10.433  16.916  65.293  1.00  0.00     0.000 HD 
HETATM   26  H2  UNL     1     -11.369  15.367  65.630  1.00  0.00     0.000 HD 
ENDBRANCH  17  21
ENDBRANCH  10  13
ENDBRANCH   8   9
ENDBRANCH   7   8
ENDBRANCH   2   3
TORSDOF 6
ENDMDL
MODEL       83
REMARK 921   NORMALIZED FREE ENERGY PREDICTED BY IDOCK:   -5.01 KCAL/MOL
REMARK 922        TOTAL FREE ENERGY PREDICTED BY IDOCK:   -7.85 KCAL/MOL
REMARK 923 INTER-LIGAND FREE ENERGY PREDICTED BY IDOCK:   -6.89 KCAL/MOL
REMARK 924 INTRA-LIGAND FREE ENERGY PREDICTED BY IDOCK:   -0.95 KCAL/MOL
REMARK 927      BINDING AFFINITY PREDICTED BY RF-SCORE:    0.00 PKD
ROOT
HETATM    1  C   UNL     1      -7.334   3.981  67.416  1.00  0.00    -0.068 C  
HETATM    2  C   UNL     1      -8.785   3.557  67.204  1.00  0.00    -0.119 C  
ENDROOT
BRANCH   2   3
HETATM    3  N   UNL     1      -9.720   4.245  68.107  1.00  0.00    -0.136 NA 
HETATM    4  C   UNL     1      -9.466   3.930  69.516  1.00  0.00    -0.189 C  
HETATM    5  C   UNL     1     -10.194   5.041  70.242  1.00  0.00    -0.328 C  
HETATM    6  C   UNL     1      -9.911   6.264  69.391  1.00  0.00    -0.192 C  
HETATM    7  C   UNL     1      -9.608   5.724  67.985  1.00  0.00    -0.119 C  
BRANCH   7   8
HETATM    8  C   UNL     1     -10.584   6.288  66.928  1.00  0.00    -0.305 C  
BRANCH   8   9
HETATM    9  N   UNL     1     -10.999   7.665  67.172  1.00  0.00    -0.514 N  
HETATM   10  C   UNL     1     -10.239   8.748  66.758  1.00  0.00    -0.284 C  
HETATM   11  H   UNL     1     -11.876   7.838  67.663  1.00  0.00     0.000 HD 
HETATM   12  O   UNL     1      -9.157   8.603  66.202  1.00  0.00    -0.174 OA 
BRANCH  10  13
HETATM   13  C   UNL     1     -10.805  10.111  67.052  1.00  0.00    -0.221 A  
HETATM   14  C   UNL     1     -11.064  10.532  68.378  1.00  0.00    -0.281 A  
HETATM   15  C   UNL     1     -11.608  11.809  68.599  1.00  0.00    -0.367 A  
HETATM   16  C   UNL     1     -11.126  10.967  65.981  1.00  0.00    -0.053 A  
HETATM   17  C   UNL     1     -11.659  12.235  66.230  1.00  0.00    -0.385 A  
HETATM   18  C   UNL     1     -11.905  12.657  67.534  1.00  0.00    -0.396 A  
BRANCH  14  19
HETATM   19  O   UNL     1     -10.748   9.674  69.397  1.00  0.00    -0.217 OA 
HETATM   20  C   UNL     1      -9.489   9.830  70.039  1.00  0.00    -0.238 C  
ENDBRANCH  14  19
BRANCH  17  21
HETATM   21  S   UNL     1     -12.098  13.294  64.881  1.00  0.00    -0.424 S  
HETATM   22  O   UNL     1     -10.894  13.775  64.247  1.00  0.00    -0.368 OA 
HETATM   23  N   UNL     1     -12.795  12.213  63.807  1.00  0.00    -0.754 N  
HETATM   24  O   UNL     1     -13.162  14.176  65.305  1.00  0.00    -0.760 OA 
HETATM   25  H1  UNL     1     -13.049  12.823  63.030  1.00  0.00     0.000 HD 
HETATM   26  H2  UNL     1     -12.931  11.207  63.905  1.00  0.00     0.000 HD 
ENDBRANCH  17  21
ENDBRANCH  10  13
ENDBRANCH   8   9
ENDBRANCH   7   8
ENDBRANCH   2   3
TORSDOF 6
ENDMDL
MODEL       84
REMARK 921   NORMALIZED FREE ENERGY PREDICTED BY IDOCK:   -4.99 KCAL/MOL
REMARK 922        TOTAL FREE ENERGY PREDICTED BY IDOCK:   -7.82 KCAL/MOL
REMARK 923 INTER-LIGAND FREE ENERGY PREDICTED BY IDOCK:   -6.52 KCAL/MOL
REMARK 924 INTRA-LIGAND FREE ENERGY PREDICTED BY IDOCK:   -1.30 KCAL/MOL
REMARK 927      BINDING AFFINITY PREDICTED BY RF-SCORE:    0.00 PKD
ROOT
HETATM    1  C   UNL     1      -8.114  16.837  68.237  1.00  0.00    -0.202 C  
HETATM    2  C   UNL     1      -8.484  15.682  69.163  1.00  0.00    -0.253 C  
ENDROOT
BRANCH   2   3
HETATM    3  N   UNL     1      -9.550  14.829  68.615  1.00  0.00    -0.213 NA 
HETATM    4  C   UNL     1     -10.708  15.606  68.163  1.00  0.00    -0.287 C  
HETATM    5  C   UNL     1     -11.435  14.629  67.265  1.00  0.00    -0.386 C  
HETATM    6  C   UNL     1     -10.314  13.925  66.526  1.00  0.00    -0.286 C  
HETATM    7  C   UNL     1      -9.079  14.059  67.432  1.00  0.00    -0.209 C  
BRANCH   7   8
HETATM    8  C   UNL     1      -8.508  12.680  67.834  1.00  0.00    -0.173 C  
BRANCH   8   9
HETATM    9  N   UNL     1      -9.279  11.991  68.863  1.00  0.00    -0.392 N  
HETATM   10  C   UNL     1     -10.063  10.884  68.579  1.00  0.00    -0.183 C  
HETATM   11  H   UNL     1      -9.240  12.334  69.823  1.00  0.00     0.000 HD 
HETATM   12  O   UNL     1     -10.182  10.452  67.439  1.00  0.00    -0.192 OA 
BRANCH  10  13
HETATM   13  C   UNL     1     -10.780  10.257  69.745  1.00  0.00    -0.328 A  
HETATM   14  C   UNL     1     -11.875  10.899  70.369  1.00  0.00    -0.357 A  
HETATM   15  C   UNL     1     -12.501  10.280  71.464  1.00  0.00    -0.524 A  
HETATM   16  C   UNL     1     -10.318   9.028  70.255  1.00  0.00    -0.243 A  
HETATM   17  C   UNL     1     -10.964   8.432  71.341  1.00  0.00    -0.253 A  
HETATM   18  C   UNL     1     -12.050   9.054  71.950  1.00  0.00    -0.448 A  
BRANCH  14  19
HETATM   19  O   UNL     1     -12.296  12.096  69.855  1.00  0.00    -0.179 OA 
HETATM   20  C   UNL     1     -12.259  13.240  70.700  1.00  0.00    -0.338 C  
ENDBRANCH  14  19
BRANCH  17  21
HETATM   21  S   UNL     1     -10.358   6.906  72.005  1.00  0.00    -0.200 S  
HETATM   22  O   UNL     1      -8.979   7.076  72.396  1.00  0.00    -0.129 OA 
HETATM   23  N   UNL     1     -11.237   6.775  73.424  1.00  0.00    -0.492 N  
HETATM   24  O   UNL     1     -10.800   5.819  71.160  1.00  0.00    -0.259 OA 
HETATM   25  H1  UNL     1     -10.888   5.896  73.807  1.00  0.00     0.000 HD 
HETATM   26  H2  UNL     1     -11.939   7.408  73.807  1.00  0.00     0.000 HD 
ENDBRANCH  17  21
ENDBRANCH  10  13
ENDBRANCH   8   9
ENDBRANCH   7   8
ENDBRANCH   2   3
TORSDOF 6
ENDMDL
MODEL       85
REMARK 921   NORMALIZED FREE ENERGY PREDICTED BY IDOCK:   -4.98 KCAL/MOL
REMARK 922        TOTAL FREE ENERGY PREDICTED BY IDOCK:   -7.81 KCAL/MOL
REMARK 923 INTER-LIGAND FREE ENERGY PREDICTED BY IDOCK:   -7.44 KCAL/MOL
REMARK 924 INTRA-LIGAND FREE ENERGY PREDICTED BY IDOCK:   -0.37 KCAL/MOL
REMARK 927      BINDING AFFINITY PREDICTED BY RF-SCORE:    0.00 PKD
ROOT
HETATM    1  C   UNL     1      -9.604   3.872  73.086  1.00  0.00    -0.145 C  
HETATM    2  C   UNL     1     -10.810   4.793  72.916  1.00  0.00    -0.237 C  
ENDROOT
BRANCH   2   3
HETATM    3  N   UNL     1     -10.667   5.717  71.781  1.00  0.00    -0.242 NA 
HETATM    4  C   UNL     1     -10.660   5.018  70.492  1.00  0.00    -0.080 C  
HETATM    5  C   UNL     1     -10.958   6.130  69.509  1.00  0.00    -0.463 C  
HETATM    6  C   UNL     1     -12.004   6.963  70.224  1.00  0.00    -0.257 C  
HETATM    7  C   UNL     1     -11.794   6.686  71.721  1.00  0.00    -0.335 C  
BRANCH   7   8
HETATM    8  C   UNL     1     -11.482   7.980  72.508  1.00  0.00    -0.409 C  
BRANCH   8   9
HETATM    9  N   UNL     1     -11.349   9.169  71.674  1.00  0.00    -0.355 N  
HETATM   10  C   UNL     1     -12.357  10.115  71.573  1.00  0.00    -0.408 C  
HETATM   11  H   UNL     1     -10.487   9.310  71.148  1.00  0.00     0.000 HD 
HETATM   12  O   UNL     1     -13.430   9.979  72.148  1.00  0.00    -0.428 OA 
BRANCH  10  13
HETATM   13  C   UNL     1     -12.069  11.306  70.699  1.00  0.00    -0.480 A  
HETATM   14  C   UNL     1     -12.562  12.592  71.019  1.00  0.00    -0.262 A  
HETATM   15  C   UNL     1     -12.278  13.669  70.162  1.00  0.00    -0.413 A  
HETATM   16  C   UNL     1     -11.334  11.124  69.511  1.00  0.00    -0.359 A  
HETATM   17  C   UNL     1     -11.061  12.213  68.680  1.00  0.00    -0.251 A  
HETATM   18  C   UNL     1     -11.533  13.484  68.998  1.00  0.00    -0.349 A  
BRANCH  14  19
HETATM   19  O   UNL     1     -13.279  12.736  72.176  1.00  0.00    -0.475 OA 
HETATM   20  C   UNL     1     -13.499  14.051  72.672  1.00  0.00    -0.547 C  
ENDBRANCH  14  19
BRANCH  17  21
HETATM   21  S   UNL     1     -10.170  11.976  67.169  1.00  0.00    -0.203 S  
HETATM   22  O   UNL     1      -9.694  10.614  67.111  1.00  0.00    -0.166 OA 
HETATM   23  N   UNL     1     -11.390  12.097  66.027  1.00  0.00    -0.344 N  
HETATM   24  O   UNL     1      -9.305  13.113  66.951  1.00  0.00    -0.232 OA 
HETATM   25  H1  UNL     1     -10.877  11.961  65.156  1.00  0.00     0.000 HD 
HETATM   26  H2  UNL     1     -12.386  12.265  66.166  1.00  0.00     0.000 HD 
ENDBRANCH  17  21
ENDBRANCH  10  13
ENDBRANCH   8   9
ENDBRANCH   7   8
ENDBRANCH   2   3
TORSDOF 6
ENDMDL
MODEL       86
REMARK 921   NORMALIZED FREE ENERGY PREDICTED BY IDOCK:   -4.97 KCAL/MOL
REMARK 922        TOTAL FREE ENERGY PREDICTED BY IDOCK:   -7.80 KCAL/MOL
REMARK 923 INTER-LIGAND FREE ENERGY PREDICTED BY IDOCK:   -6.92 KCAL/MOL
REMARK 924 INTRA-LIGAND FREE ENERGY PREDICTED BY IDOCK:   -0.88 KCAL/MOL
REMARK 927      BINDING AFFINITY PREDICTED BY RF-SCORE:    0.00 PKD
ROOT
HETATM    1  C   UNL     1     -11.907   9.437  71.447  1.00  0.00    -0.447 C  
HETATM    2  C   UNL     1     -10.428   9.062  71.402  1.00  0.00    -0.324 C  
ENDROOT
BRANCH   2   3
HETATM    3  N   UNL     1      -9.971   8.700  70.051  1.00  0.00    -0.182 NA 
HETATM    4  C   UNL     1     -10.478   7.392  69.624  1.00  0.00    -0.232 C  
HETATM    5  C   UNL     1     -10.282   7.433  68.124  1.00  0.00    -0.223 C  
HETATM    6  C   UNL     1     -10.660   8.855  67.756  1.00  0.00    -0.266 C  
HETATM    7  C   UNL     1     -10.442   9.679  69.035  1.00  0.00    -0.213 C  
BRANCH   7   8
HETATM    8  C   UNL     1      -9.420  10.819  68.818  1.00  0.00    -0.182 C  
BRANCH   8   9
HETATM    9  N   UNL     1      -9.922  11.927  68.013  1.00  0.00    -0.185 N  
HETATM   10  C   UNL     1      -9.083  12.719  67.246  1.00  0.00    -0.200 C  
HETATM   11  H   UNL     1     -10.922  12.125  68.015  1.00  0.00     0.000 HD 
HETATM   12  O   UNL     1      -7.869  12.556  67.238  1.00  0.00    -0.165 OA 
BRANCH  10  13
HETATM   13  C   UNL     1      -9.744  13.808  66.444  1.00  0.00    -0.304 A  
HETATM   14  C   UNL     1     -10.529  13.513  65.305  1.00  0.00    -0.336 A  
HETATM   15  C   UNL     1     -11.112  14.566  64.581  1.00  0.00    -0.356 A  
HETATM   16  C   UNL     1      -9.535  15.153  66.809  1.00  0.00    -0.260 A  
HETATM   17  C   UNL     1     -10.132  16.180  66.075  1.00  0.00    -0.351 A  
HETATM   18  C   UNL     1     -10.917  15.894  64.960  1.00  0.00    -0.426 A  
BRANCH  14  19
HETATM   19  O   UNL     1     -10.707  12.197  64.972  1.00  0.00    -0.277 OA 
HETATM   20  C   UNL     1     -11.517  11.894  63.842  1.00  0.00    -0.426 C  
ENDBRANCH  14  19
BRANCH  17  21
HETATM   21  S   UNL     1      -9.837  17.871  66.511  1.00  0.00    -0.350 S  
HETATM   22  O   UNL     1     -10.546  18.727  65.590  1.00  0.00    -0.596 OA 
HETATM   23  N   UNL     1     -10.638  17.993  67.977  1.00  0.00    -0.377 N  
HETATM   24  O   UNL     1      -8.433  18.040  66.809  1.00  0.00    -0.241 OA 
HETATM   25  H1  UNL     1     -10.469  18.966  68.229  1.00  0.00     0.000 HD 
HETATM   26  H2  UNL     1     -11.160  17.279  68.486  1.00  0.00     0.000 HD 
ENDBRANCH  17  21
ENDBRANCH  10  13
ENDBRANCH   8   9
ENDBRANCH   7   8
ENDBRANCH   2   3
TORSDOF 6
ENDMDL
MODEL       87
REMARK 921   NORMALIZED FREE ENERGY PREDICTED BY IDOCK:   -4.97 KCAL/MOL
REMARK 922        TOTAL FREE ENERGY PREDICTED BY IDOCK:   -7.80 KCAL/MOL
REMARK 923 INTER-LIGAND FREE ENERGY PREDICTED BY IDOCK:   -7.10 KCAL/MOL
REMARK 924 INTRA-LIGAND FREE ENERGY PREDICTED BY IDOCK:   -0.70 KCAL/MOL
REMARK 927      BINDING AFFINITY PREDICTED BY RF-SCORE:    0.00 PKD
ROOT
HETATM    1  C   UNL     1     -13.511  12.405  72.250  1.00  0.00    -0.428 C  
HETATM    2  C   UNL     1     -14.388  13.629  72.000  1.00  0.00    -0.199 C  
ENDROOT
BRANCH   2   3
HETATM    3  N   UNL     1     -13.628  14.888  72.014  1.00  0.00    -0.367 NA 
HETATM    4  C   UNL     1     -13.330  15.344  73.375  1.00  0.00    -0.345 C  
HETATM    5  C   UNL     1     -12.211  16.340  73.156  1.00  0.00    -0.620 C  
HETATM    6  C   UNL     1     -11.365  15.689  72.077  1.00  0.00    -0.404 C  
HETATM    7  C   UNL     1     -12.316  14.741  71.329  1.00  0.00    -0.327 C  
BRANCH   7   8
HETATM    8  C   UNL     1     -12.411  15.090  69.825  1.00  0.00    -0.240 C  
BRANCH   8   9
HETATM    9  N   UNL     1     -11.197  15.679  69.270  1.00  0.00    -0.295 N  
HETATM   10  C   UNL     1     -10.840  15.517  67.941  1.00  0.00    -0.307 C  
HETATM   11  H   UNL     1     -10.591  16.228  69.880  1.00  0.00     0.000 HD 
HETATM   12  O   UNL     1     -11.506  14.834  67.173  1.00  0.00    -0.354 OA 
BRANCH  10  13
HETATM   13  C   UNL     1      -9.576  16.205  67.501  1.00  0.00    -0.229 A  
HETATM   14  C   UNL     1      -8.389  15.478  67.249  1.00  0.00    -0.193 A  
HETATM   15  C   UNL     1      -7.231  16.169  66.856  1.00  0.00    -0.240 A  
HETATM   16  C   UNL     1      -9.563  17.609  67.385  1.00  0.00    -0.267 A  
HETATM   17  C   UNL     1      -8.400  18.270  66.985  1.00  0.00    -0.248 A  
HETATM   18  C   UNL     1      -7.232  17.557  66.723  1.00  0.00    -0.250 A  
BRANCH  14  19
HETATM   19  O   UNL     1      -8.431  14.116  67.379  1.00  0.00    -0.180 OA 
HETATM   20  C   UNL     1      -7.198  13.412  67.470  1.00  0.00    -0.153 C  
ENDBRANCH  14  19
BRANCH  17  21
HETATM   21  S   UNL     1      -8.375  20.037  66.876  1.00  0.00    -0.328 S  
HETATM   22  O   UNL     1      -7.397  20.553  67.804  1.00  0.00    -0.298 OA 
HETATM   23  N   UNL     1      -7.744  20.280  65.344  1.00  0.00    -0.417 N  
HETATM   24  O   UNL     1      -9.736  20.523  66.828  1.00  0.00    -0.413 OA 
HETATM   25  H1  UNL     1      -7.730  21.297  65.281  1.00  0.00     0.000 HD 
HETATM   26  H2  UNL     1      -7.450  19.589  64.653  1.00  0.00     0.000 HD 
ENDBRANCH  17  21
ENDBRANCH  10  13
ENDBRANCH   8   9
ENDBRANCH   7   8
ENDBRANCH   2   3
TORSDOF 6
ENDMDL
MODEL       88
REMARK 921   NORMALIZED FREE ENERGY PREDICTED BY IDOCK:   -4.96 KCAL/MOL
REMARK 922        TOTAL FREE ENERGY PREDICTED BY IDOCK:   -7.78 KCAL/MOL
REMARK 923 INTER-LIGAND FREE ENERGY PREDICTED BY IDOCK:   -7.09 KCAL/MOL
REMARK 924 INTRA-LIGAND FREE ENERGY PREDICTED BY IDOCK:   -0.69 KCAL/MOL
REMARK 927      BINDING AFFINITY PREDICTED BY RF-SCORE:    0.00 PKD
ROOT
HETATM    1  C   UNL     1      -7.651   7.554  70.300  1.00  0.00    -0.090 C  
HETATM    2  C   UNL     1      -8.294   8.803  70.896  1.00  0.00    -0.165 C  
ENDROOT
BRANCH   2   3
HETATM    3  N   UNL     1      -9.727   8.914  70.580  1.00  0.00    -0.196 NA 
HETATM    4  C   UNL     1     -10.572   8.765  71.770  1.00  0.00    -0.347 C  
HETATM    5  C   UNL     1     -11.893   9.345  71.314  1.00  0.00    -0.435 C  
HETATM    6  C   UNL     1     -11.485  10.546  70.483  1.00  0.00    -0.433 C  
HETATM    7  C   UNL     1     -10.058  10.243  70.001  1.00  0.00    -0.115 C  
BRANCH   7   8
HETATM    8  C   UNL     1      -9.961  10.237  68.458  1.00  0.00    -0.164 C  
BRANCH   8   9
HETATM    9  N   UNL     1      -9.889  11.565  67.857  1.00  0.00    -0.180 N  
HETATM   10  C   UNL     1     -10.992  12.173  67.280  1.00  0.00    -0.260 C  
HETATM   11  H   UNL     1      -8.998  12.061  67.863  1.00  0.00     0.000 HD 
HETATM   12  O   UNL     1     -12.076  11.608  67.205  1.00  0.00    -0.595 OA 
BRANCH  10  13
HETATM   13  C   UNL     1     -10.777  13.555  66.726  1.00  0.00    -0.278 A  
HETATM   14  C   UNL     1     -10.605  13.777  65.339  1.00  0.00    -0.322 A  
HETATM   15  C   UNL     1     -10.391  15.085  64.873  1.00  0.00    -0.317 A  
HETATM   16  C   UNL     1     -10.698  14.646  67.613  1.00  0.00    -0.271 A  
HETATM   17  C   UNL     1     -10.492  15.938  67.122  1.00  0.00    -0.313 A  
HETATM   18  C   UNL     1     -10.334  16.162  65.757  1.00  0.00    -0.398 A  
BRANCH  14  19
HETATM   19  O   UNL     1     -10.679  12.695  64.502  1.00  0.00    -0.303 OA 
HETATM   20  C   UNL     1     -11.847  12.542  63.705  1.00  0.00    -0.530 C  
ENDBRANCH  14  19
BRANCH  17  21
HETATM   21  S   UNL     1     -10.354  17.302  68.243  1.00  0.00    -0.380 S  
HETATM   22  O   UNL     1     -10.772  16.877  69.557  1.00  0.00    -0.326 OA 
HETATM   23  N   UNL     1      -8.694  17.516  68.323  1.00  0.00    -0.263 N  
HETATM   24  O   UNL     1     -10.878  18.488  67.604  1.00  0.00    -0.412 OA 
HETATM   25  H1  UNL     1      -8.615  18.301  68.969  1.00  0.00     0.000 HD 
HETATM   26  H2  UNL     1      -7.956  16.996  67.850  1.00  0.00     0.000 HD 
ENDBRANCH  17  21
ENDBRANCH  10  13
ENDBRANCH   8   9
ENDBRANCH   7   8
ENDBRANCH   2   3
TORSDOF 6
ENDMDL
MODEL       89
REMARK 921   NORMALIZED FREE ENERGY PREDICTED BY IDOCK:   -4.96 KCAL/MOL
REMARK 922        TOTAL FREE ENERGY PREDICTED BY IDOCK:   -7.78 KCAL/MOL
REMARK 923 INTER-LIGAND FREE ENERGY PREDICTED BY IDOCK:   -6.97 KCAL/MOL
REMARK 924 INTRA-LIGAND FREE ENERGY PREDICTED BY IDOCK:   -0.81 KCAL/MOL
REMARK 927      BINDING AFFINITY PREDICTED BY RF-SCORE:    0.00 PKD
ROOT
HETATM    1  C   UNL     1      -9.026   9.040  68.930  1.00  0.00    -0.140 C  
HETATM    2  C   UNL     1      -9.557   9.696  70.201  1.00  0.00    -0.254 C  
ENDROOT
BRANCH   2   3
HETATM    3  N   UNL     1     -10.890   9.204  70.584  1.00  0.00    -0.245 NA 
HETATM    4  C   UNL     1     -10.838   8.298  71.736  1.00  0.00    -0.267 C  
HETATM    5  C   UNL     1     -12.274   8.288  72.216  1.00  0.00    -0.428 C  
HETATM    6  C   UNL     1     -12.710   9.732  72.058  1.00  0.00    -0.463 C  
HETATM    7  C   UNL     1     -11.793  10.320  70.974  1.00  0.00    -0.377 C  
BRANCH   7   8
HETATM    8  C   UNL     1     -12.598  10.854  69.767  1.00  0.00    -0.083 C  
BRANCH   8   9
HETATM    9  N   UNL     1     -11.958  11.962  69.065  1.00  0.00    -0.290 N  
HETATM   10  C   UNL     1     -11.480  11.836  67.770  1.00  0.00    -0.311 C  
HETATM   11  H   UNL     1     -11.859  12.858  69.542  1.00  0.00     0.000 HD 
HETATM   12  O   UNL     1     -11.532  10.774  67.163  1.00  0.00    -0.400 OA 
BRANCH  10  13
HETATM   13  C   UNL     1     -10.870  13.070  67.162  1.00  0.00    -0.278 A  
HETATM   14  C   UNL     1     -11.398  13.651  65.986  1.00  0.00    -0.312 A  
HETATM   15  C   UNL     1     -10.783  14.795  65.448  1.00  0.00    -0.385 A  
HETATM   16  C   UNL     1      -9.719  13.629  67.751  1.00  0.00    -0.225 A  
HETATM   17  C   UNL     1      -9.131  14.770  67.199  1.00  0.00    -0.217 A  
HETATM   18  C   UNL     1      -9.656  15.353  66.049  1.00  0.00    -0.382 A  
BRANCH  14  19
HETATM   19  O   UNL     1     -12.513  13.081  65.432  1.00  0.00    -0.469 OA 
HETATM   20  C   UNL     1     -12.380  12.427  64.177  1.00  0.00    -0.467 C  
ENDBRANCH  14  19
BRANCH  17  21
HETATM   21  S   UNL     1      -7.662  15.448  67.919  1.00  0.00    -0.144 S  
HETATM   22  O   UNL     1      -7.760  16.889  67.922  1.00  0.00    -0.167 OA 
HETATM   23  N   UNL     1      -7.805  14.963  69.516  1.00  0.00    -0.360 N  
HETATM   24  O   UNL     1      -6.514  14.747  67.390  1.00  0.00    -0.302 OA 
HETATM   25  H1  UNL     1      -6.959  15.354  69.930  1.00  0.00     0.000 HD 
HETATM   26  H2  UNL     1      -8.545  14.419  69.958  1.00  0.00     0.000 HD 
ENDBRANCH  17  21
ENDBRANCH  10  13
ENDBRANCH   8   9
ENDBRANCH   7   8
ENDBRANCH   2   3
TORSDOF 6
ENDMDL
MODEL       90
REMARK 921   NORMALIZED FREE ENERGY PREDICTED BY IDOCK:   -4.95 KCAL/MOL
REMARK 922        TOTAL FREE ENERGY PREDICTED BY IDOCK:   -7.77 KCAL/MOL
REMARK 923 INTER-LIGAND FREE ENERGY PREDICTED BY IDOCK:   -7.23 KCAL/MOL
REMARK 924 INTRA-LIGAND FREE ENERGY PREDICTED BY IDOCK:   -0.54 KCAL/MOL
REMARK 927      BINDING AFFINITY PREDICTED BY RF-SCORE:    0.00 PKD
ROOT
HETATM    1  C   UNL     1     -10.503  19.904  65.977  1.00  0.00    -0.580 C  
HETATM    2  C   UNL     1      -9.641  18.649  66.093  1.00  0.00    -0.202 C  
ENDROOT
BRANCH   2   3
HETATM    3  N   UNL     1      -8.244  18.946  66.446  1.00  0.00    -0.294 NA 
HETATM    4  C   UNL     1      -7.720  20.104  65.716  1.00  0.00    -0.179 C  
HETATM    5  C   UNL     1      -6.503  20.487  66.529  1.00  0.00    -0.283 C  
HETATM    6  C   UNL     1      -6.959  20.292  67.962  1.00  0.00    -0.327 C  
HETATM    7  C   UNL     1      -8.103  19.267  67.891  1.00  0.00    -0.290 C  
BRANCH   7   8
HETATM    8  C   UNL     1      -7.799  18.006  68.733  1.00  0.00    -0.258 C  
BRANCH   8   9
HETATM    9  N   UNL     1      -8.954  17.142  68.952  1.00  0.00    -0.234 N  
HETATM   10  C   UNL     1      -8.822  15.829  69.374  1.00  0.00    -0.237 C  
HETATM   11  H   UNL     1      -9.889  17.517  68.791  1.00  0.00     0.000 HD 
HETATM   12  O   UNL     1      -7.725  15.312  69.542  1.00  0.00    -0.212 OA 
BRANCH  10  13
HETATM   13  C   UNL     1     -10.102  15.065  69.587  1.00  0.00    -0.139 A  
HETATM   14  C   UNL     1     -10.507  14.042  68.699  1.00  0.00    -0.247 A  
HETATM   15  C   UNL     1     -11.718  13.369  68.933  1.00  0.00    -0.369 A  
HETATM   16  C   UNL     1     -10.935  15.411  70.668  1.00  0.00    -0.350 A  
HETATM   17  C   UNL     1     -12.131  14.721  70.882  1.00  0.00    -0.324 A  
HETATM   18  C   UNL     1     -12.528  13.704  70.017  1.00  0.00    -0.267 A  
BRANCH  14  19
HETATM   19  O   UNL     1      -9.679  13.734  67.653  1.00  0.00    -0.217 OA 
HETATM   20  C   UNL     1      -9.937  14.338  66.391  1.00  0.00    -0.292 C  
ENDBRANCH  14  19
BRANCH  17  21
HETATM   21  S   UNL     1     -13.196  15.182  72.219  1.00  0.00    -0.424 S  
HETATM   22  O   UNL     1     -13.251  14.101  73.174  1.00  0.00    -0.613 OA 
HETATM   23  N   UNL     1     -12.321  16.411  72.948  1.00  0.00    -0.443 N  
HETATM   24  O   UNL     1     -14.384  15.806  71.679  1.00  0.00    -0.446 OA 
HETATM   25  H1  UNL     1     -12.935  16.677  73.718  1.00  0.00     0.000 HD 
HETATM   26  H2  UNL     1     -11.412  16.793  72.689  1.00  0.00     0.000 HD 
ENDBRANCH  17  21
ENDBRANCH  10  13
ENDBRANCH   8   9
ENDBRANCH   7   8
ENDBRANCH   2   3
TORSDOF 6
ENDMDL
MODEL       91
REMARK 921   NORMALIZED FREE ENERGY PREDICTED BY IDOCK:   -4.95 KCAL/MOL
REMARK 922        TOTAL FREE ENERGY PREDICTED BY IDOCK:   -7.76 KCAL/MOL
REMARK 923 INTER-LIGAND FREE ENERGY PREDICTED BY IDOCK:   -7.14 KCAL/MOL
REMARK 924 INTRA-LIGAND FREE ENERGY PREDICTED BY IDOCK:   -0.62 KCAL/MOL
REMARK 927      BINDING AFFINITY PREDICTED BY RF-SCORE:    0.00 PKD
ROOT
HETATM    1  C   UNL     1      -6.158  18.602  68.695  1.00  0.00    -0.219 C  
HETATM    2  C   UNL     1      -7.412  17.963  68.103  1.00  0.00    -0.250 C  
ENDROOT
BRANCH   2   3
HETATM    3  N   UNL     1      -8.554  18.889  68.047  1.00  0.00    -0.291 NA 
HETATM    4  C   UNL     1      -8.264  20.082  67.246  1.00  0.00    -0.326 C  
HETATM    5  C   UNL     1      -9.644  20.632  66.957  1.00  0.00    -0.484 C  
HETATM    6  C   UNL     1     -10.472  19.390  66.694  1.00  0.00    -0.568 C  
HETATM    7  C   UNL     1      -9.745  18.251  67.426  1.00  0.00    -0.296 C  
BRANCH   7   8
HETATM    8  C   UNL     1     -10.649  17.574  68.481  1.00  0.00    -0.312 C  
BRANCH   8   9
HETATM    9  N   UNL     1     -10.943  16.172  68.206  1.00  0.00    -0.327 N  
HETATM   10  C   UNL     1     -10.406  15.144  68.964  1.00  0.00    -0.244 C  
HETATM   11  H   UNL     1     -11.563  15.940  67.430  1.00  0.00     0.000 HD 
HETATM   12  O   UNL     1      -9.622  15.359  69.880  1.00  0.00    -0.259 OA 
BRANCH  10  13
HETATM   13  C   UNL     1     -10.820  13.748  68.584  1.00  0.00    -0.280 A  
HETATM   14  C   UNL     1     -11.590  12.943  69.455  1.00  0.00    -0.282 A  
HETATM   15  C   UNL     1     -11.938  11.640  69.060  1.00  0.00    -0.368 A  
HETATM   16  C   UNL     1     -10.390  13.216  67.352  1.00  0.00    -0.239 A  
HETATM   17  C   UNL     1     -10.756  11.920  66.981  1.00  0.00    -0.240 A  
HETATM   18  C   UNL     1     -11.524  11.128  67.830  1.00  0.00    -0.359 A  
BRANCH  14  19
HETATM   19  O   UNL     1     -11.986  13.485  70.648  1.00  0.00    -0.316 OA 
HETATM   20  C   UNL     1     -12.812  12.701  71.501  1.00  0.00    -0.268 C  
ENDBRANCH  14  19
BRANCH  17  21
HETATM   21  S   UNL     1     -10.182  11.240  65.450  1.00  0.00    -0.283 S  
HETATM   22  O   UNL     1     -10.791  11.959  64.356  1.00  0.00    -0.295 OA 
HETATM   23  N   UNL     1      -8.566  11.680  65.461  1.00  0.00    -0.381 N  
HETATM   24  O   UNL     1     -10.202   9.797  65.541  1.00  0.00    -0.256 OA 
HETATM   25  H1  UNL     1      -8.236  11.289  64.579  1.00  0.00     0.000 HD 
HETATM   26  H2  UNL     1      -8.048  12.204  66.166  1.00  0.00     0.000 HD 
ENDBRANCH  17  21
ENDBRANCH  10  13
ENDBRANCH   8   9
ENDBRANCH   7   8
ENDBRANCH   2   3
TORSDOF 6
ENDMDL
MODEL       92
REMARK 921   NORMALIZED FREE ENERGY PREDICTED BY IDOCK:   -4.95 KCAL/MOL
REMARK 922        TOTAL FREE ENERGY PREDICTED BY IDOCK:   -7.76 KCAL/MOL
REMARK 923 INTER-LIGAND FREE ENERGY PREDICTED BY IDOCK:   -7.42 KCAL/MOL
REMARK 924 INTRA-LIGAND FREE ENERGY PREDICTED BY IDOCK:   -0.34 KCAL/MOL
REMARK 927      BINDING AFFINITY PREDICTED BY RF-SCORE:    0.00 PKD
ROOT
HETATM    1  C   UNL     1      -6.933   7.955  70.859  1.00  0.00    -0.048 C  
HETATM    2  C   UNL     1      -8.101   8.741  71.449  1.00  0.00    -0.142 C  
ENDROOT
BRANCH   2   3
HETATM    3  N   UNL     1      -9.235   7.882  71.825  1.00  0.00    -0.143 NA 
HETATM    4  C   UNL     1      -9.099   7.343  73.181  1.00  0.00    -0.161 C  
HETATM    5  C   UNL     1     -10.509   6.901  73.507  1.00  0.00    -0.382 C  
HETATM    6  C   UNL     1     -11.370   8.001  72.917  1.00  0.00    -0.364 C  
HETATM    7  C   UNL     1     -10.519   8.634  71.804  1.00  0.00    -0.324 C  
BRANCH   7   8
HETATM    8  C   UNL     1     -11.214   8.544  70.426  1.00  0.00    -0.211 C  
BRANCH   8   9
HETATM    9  N   UNL     1     -11.206   9.792  69.670  1.00  0.00    -0.364 N  
HETATM   10  C   UNL     1     -12.063  10.839  69.968  1.00  0.00    -0.345 C  
HETATM   11  H   UNL     1     -10.548   9.897  68.898  1.00  0.00     0.000 HD 
HETATM   12  O   UNL     1     -12.901  10.755  70.856  1.00  0.00    -0.352 OA 
BRANCH  10  13
HETATM   13  C   UNL     1     -11.922  12.077  69.122  1.00  0.00    -0.326 A  
HETATM   14  C   UNL     1     -12.018  13.370  69.686  1.00  0.00    -0.324 A  
HETATM   15  C   UNL     1     -11.895  14.494  68.851  1.00  0.00    -0.359 A  
HETATM   16  C   UNL     1     -11.738  11.941  67.732  1.00  0.00    -0.362 A  
HETATM   17  C   UNL     1     -11.612  13.076  66.927  1.00  0.00    -0.366 A  
HETATM   18  C   UNL     1     -11.694  14.351  67.479  1.00  0.00    -0.416 A  
BRANCH  14  19
HETATM   19  O   UNL     1     -12.204  13.470  71.039  1.00  0.00    -0.353 OA 
HETATM   20  C   UNL     1     -12.204  14.766  71.623  1.00  0.00    -0.349 C  
ENDBRANCH  14  19
BRANCH  17  21
HETATM   21  S   UNL     1     -11.420  12.903  65.175  1.00  0.00    -0.327 S  
HETATM   22  O   UNL     1     -11.073  11.536  64.870  1.00  0.00    -0.284 OA 
HETATM   23  N   UNL     1     -12.990  13.122  64.633  1.00  0.00    -0.713 N  
HETATM   24  O   UNL     1     -10.665  14.030  64.673  1.00  0.00    -0.407 OA 
HETATM   25  H1  UNL     1     -12.880  13.023  63.624  1.00  0.00     0.000 HD 
HETATM   26  H2  UNL     1     -13.836  13.306  65.172  1.00  0.00     0.000 HD 
ENDBRANCH  17  21
ENDBRANCH  10  13
ENDBRANCH   8   9
ENDBRANCH   7   8
ENDBRANCH   2   3
TORSDOF 6
ENDMDL
MODEL       93
REMARK 921   NORMALIZED FREE ENERGY PREDICTED BY IDOCK:   -4.94 KCAL/MOL
REMARK 922        TOTAL FREE ENERGY PREDICTED BY IDOCK:   -7.76 KCAL/MOL
REMARK 923 INTER-LIGAND FREE ENERGY PREDICTED BY IDOCK:   -7.38 KCAL/MOL
REMARK 924 INTRA-LIGAND FREE ENERGY PREDICTED BY IDOCK:   -0.37 KCAL/MOL
REMARK 927      BINDING AFFINITY PREDICTED BY RF-SCORE:    0.00 PKD
ROOT
HETATM    1  C   UNL     1      -9.659  20.314  66.796  1.00  0.00    -0.548 C  
HETATM    2  C   UNL     1     -10.653  19.158  66.882  1.00  0.00    -0.448 C  
ENDROOT
BRANCH   2   3
HETATM    3  N   UNL     1      -9.997  17.842  66.918  1.00  0.00    -0.317 NA 
HETATM    4  C   UNL     1      -8.620  17.893  66.419  1.00  0.00    -0.227 C  
HETATM    5  C   UNL     1      -8.025  16.607  66.952  1.00  0.00    -0.255 C  
HETATM    6  C   UNL     1      -8.613  16.497  68.345  1.00  0.00    -0.213 C  
HETATM    7  C   UNL     1      -9.917  17.310  68.304  1.00  0.00    -0.313 C  
BRANCH   7   8
HETATM    8  C   UNL     1     -11.147  16.443  68.659  1.00  0.00    -0.352 C  
BRANCH   8   9
HETATM    9  N   UNL     1     -10.949  15.012  68.454  1.00  0.00    -0.254 N  
HETATM   10  C   UNL     1     -11.747  14.062  69.072  1.00  0.00    -0.330 C  
HETATM   11  H   UNL     1     -10.199  14.700  67.837  1.00  0.00     0.000 HD 
HETATM   12  O   UNL     1     -12.635  14.375  69.855  1.00  0.00    -0.303 OA 
BRANCH  10  13
HETATM   13  C   UNL     1     -11.446  12.624  68.745  1.00  0.00    -0.349 A  
HETATM   14  C   UNL     1     -11.671  11.591  69.685  1.00  0.00    -0.351 A  
HETATM   15  C   UNL     1     -11.359  10.266  69.338  1.00  0.00    -0.279 A  
HETATM   16  C   UNL     1     -10.883  12.307  67.494  1.00  0.00    -0.271 A  
HETATM   17  C   UNL     1     -10.588  10.980  67.171  1.00  0.00    -0.250 A  
HETATM   18  C   UNL     1     -10.820   9.959  68.089  1.00  0.00    -0.282 A  
BRANCH  14  19
HETATM   19  O   UNL     1     -12.213  11.931  70.896  1.00  0.00    -0.357 OA 
HETATM   20  C   UNL     1     -12.857  10.914  71.653  1.00  0.00    -0.449 C  
ENDBRANCH  14  19
BRANCH  17  21
HETATM   21  S   UNL     1      -9.844  10.589  65.613  1.00  0.00    -0.270 S  
HETATM   22  O   UNL     1      -8.475  11.046  65.616  1.00  0.00    -0.170 OA 
HETATM   23  N   UNL     1      -9.783   8.916  65.670  1.00  0.00    -0.470 N  
HETATM   24  O   UNL     1     -10.773  10.918  64.555  1.00  0.00    -0.327 OA 
HETATM   25  H1  UNL     1      -9.355   8.691  64.773  1.00  0.00     0.000 HD 
HETATM   26  H2  UNL     1     -10.093   8.287  66.410  1.00  0.00     0.000 HD 
ENDBRANCH  17  21
ENDBRANCH  10  13
ENDBRANCH   8   9
ENDBRANCH   7   8
ENDBRANCH   2   3
TORSDOF 6
ENDMDL
MODEL       94
REMARK 921   NORMALIZED FREE ENERGY PREDICTED BY IDOCK:   -4.92 KCAL/MOL
REMARK 922        TOTAL FREE ENERGY PREDICTED BY IDOCK:   -7.72 KCAL/MOL
REMARK 923 INTER-LIGAND FREE ENERGY PREDICTED BY IDOCK:   -6.90 KCAL/MOL
REMARK 924 INTRA-LIGAND FREE ENERGY PREDICTED BY IDOCK:   -0.82 KCAL/MOL
REMARK 927      BINDING AFFINITY PREDICTED BY RF-SCORE:    0.00 PKD
ROOT
HETATM    1  C   UNL     1     -13.008  11.894  71.621  1.00  0.00    -0.447 C  
HETATM    2  C   UNL     1     -12.871  10.587  70.846  1.00  0.00    -0.394 C  
ENDROOT
BRANCH   2   3
HETATM    3  N   UNL     1     -11.765   9.747  71.331  1.00  0.00    -0.390 NA 
HETATM    4  C   UNL     1     -12.232   8.647  72.180  1.00  0.00    -0.386 C  
HETATM    5  C   UNL     1     -11.050   7.702  72.181  1.00  0.00    -0.314 C  
HETATM    6  C   UNL     1     -10.551   7.760  70.750  1.00  0.00    -0.220 C  
HETATM    7  C   UNL     1     -11.024   9.117  70.206  1.00  0.00    -0.245 C  
BRANCH   7   8
HETATM    8  C   UNL     1      -9.840   9.993  69.737  1.00  0.00    -0.235 C  
BRANCH   8   9
HETATM    9  N   UNL     1     -10.177  10.935  68.674  1.00  0.00    -0.181 N  
HETATM   10  C   UNL     1      -9.230  11.768  68.100  1.00  0.00    -0.186 C  
HETATM   11  H   UNL     1     -11.140  10.981  68.343  1.00  0.00     0.000 HD 
HETATM   12  O   UNL     1      -8.068  11.786  68.485  1.00  0.00    -0.147 OA 
BRANCH  10  13
HETATM   13  C   UNL     1      -9.715  12.666  66.994  1.00  0.00    -0.225 A  
HETATM   14  C   UNL     1     -10.135  12.143  65.749  1.00  0.00    -0.247 A  
HETATM   15  C   UNL     1     -10.565  13.025  64.743  1.00  0.00    -0.380 A  
HETATM   16  C   UNL     1      -9.706  14.061  67.189  1.00  0.00    -0.242 A  
HETATM   17  C   UNL     1     -10.145  14.915  66.174  1.00  0.00    -0.298 A  
HETATM   18  C   UNL     1     -10.571  14.403  64.951  1.00  0.00    -0.456 A  
BRANCH  14  19
HETATM   19  O   UNL     1     -10.126  10.783  65.587  1.00  0.00    -0.244 OA 
HETATM   20  C   UNL     1      -9.743  10.260  64.321  1.00  0.00    -0.308 C  
ENDBRANCH  14  19
BRANCH  17  21
HETATM   21  S   UNL     1     -10.096  16.669  66.406  1.00  0.00    -0.327 S  
HETATM   22  O   UNL     1     -10.883  17.304  65.376  1.00  0.00    -0.501 OA 
HETATM   23  N   UNL     1     -10.954  16.852  67.833  1.00  0.00    -0.309 N  
HETATM   24  O   UNL     1      -8.738  17.065  66.704  1.00  0.00    -0.220 OA 
HETATM   25  H1  UNL     1     -10.925  17.863  67.968  1.00  0.00     0.000 HD 
HETATM   26  H2  UNL     1     -11.390  16.139  68.417  1.00  0.00     0.000 HD 
ENDBRANCH  17  21
ENDBRANCH  10  13
ENDBRANCH   8   9
ENDBRANCH   7   8
ENDBRANCH   2   3
TORSDOF 6
ENDMDL
MODEL       95
REMARK 921   NORMALIZED FREE ENERGY PREDICTED BY IDOCK:   -4.90 KCAL/MOL
REMARK 922        TOTAL FREE ENERGY PREDICTED BY IDOCK:   -7.71 KCAL/MOL
REMARK 923 INTER-LIGAND FREE ENERGY PREDICTED BY IDOCK:   -6.87 KCAL/MOL
REMARK 924 INTRA-LIGAND FREE ENERGY PREDICTED BY IDOCK:   -0.84 KCAL/MOL
REMARK 927      BINDING AFFINITY PREDICTED BY RF-SCORE:    0.00 PKD
ROOT
HETATM    1  C   UNL     1     -11.115  15.443  64.945  1.00  0.00    -0.435 C  
HETATM    2  C   UNL     1     -10.774  13.983  65.228  1.00  0.00    -0.358 C  
ENDROOT
BRANCH   2   3
HETATM    3  N   UNL     1     -10.603  13.705  66.663  1.00  0.00    -0.276 NA 
HETATM    4  C   UNL     1     -10.767  14.906  67.486  1.00  0.00    -0.276 C  
HETATM    5  C   UNL     1     -11.000  14.334  68.868  1.00  0.00    -0.275 C  
HETATM    6  C   UNL     1     -11.888  13.133  68.608  1.00  0.00    -0.363 C  
HETATM    7  C   UNL     1     -11.609  12.725  67.152  1.00  0.00    -0.364 C  
BRANCH   7   8
HETATM    8  C   UNL     1     -11.093  11.271  67.050  1.00  0.00    -0.293 C  
BRANCH   8   9
HETATM    9  N   UNL     1     -11.420  10.438  68.202  1.00  0.00    -0.499 N  
HETATM   10  C   UNL     1     -10.457  10.020  69.107  1.00  0.00    -0.219 C  
HETATM   11  H   UNL     1     -12.389  10.154  68.347  1.00  0.00     0.000 HD 
HETATM   12  O   UNL     1      -9.272  10.295  68.962  1.00  0.00    -0.163 OA 
BRANCH  10  13
HETATM   13  C   UNL     1     -10.945   9.190  70.263  1.00  0.00    -0.279 A  
HETATM   14  C   UNL     1     -11.876   9.700  71.197  1.00  0.00    -0.367 A  
HETATM   15  C   UNL     1     -12.289   8.890  72.269  1.00  0.00    -0.430 A  
HETATM   16  C   UNL     1     -10.425   7.893  70.445  1.00  0.00    -0.218 A  
HETATM   17  C   UNL     1     -10.857   7.107  71.516  1.00  0.00    -0.225 A  
HETATM   18  C   UNL     1     -11.784   7.600  72.430  1.00  0.00    -0.366 A  
BRANCH  14  19
HETATM   19  O   UNL     1     -12.358  10.966  70.998  1.00  0.00    -0.347 OA 
HETATM   20  C   UNL     1     -13.229  11.515  71.979  1.00  0.00    -0.337 C  
ENDBRANCH  14  19
BRANCH  17  21
HETATM   21  S   UNL     1     -10.173   5.493  71.764  1.00  0.00    -0.208 S  
HETATM   22  O   UNL     1     -10.246   4.753  70.527  1.00  0.00    -0.233 OA 
HETATM   23  N   UNL     1      -8.553   5.839  72.011  1.00  0.00    -0.130 N  
HETATM   24  O   UNL     1     -10.663   4.964  73.017  1.00  0.00    -0.207 OA 
HETATM   25  H1  UNL     1      -8.159   4.909  72.154  1.00  0.00     0.000 HD 
HETATM   26  H2  UNL     1      -8.083   6.744  72.017  1.00  0.00     0.000 HD 
ENDBRANCH  17  21
ENDBRANCH  10  13
ENDBRANCH   8   9
ENDBRANCH   7   8
ENDBRANCH   2   3
TORSDOF 6
ENDMDL
MODEL       96
REMARK 921   NORMALIZED FREE ENERGY PREDICTED BY IDOCK:   -4.87 KCAL/MOL
REMARK 922        TOTAL FREE ENERGY PREDICTED BY IDOCK:   -7.66 KCAL/MOL
REMARK 923 INTER-LIGAND FREE ENERGY PREDICTED BY IDOCK:   -6.77 KCAL/MOL
REMARK 924 INTRA-LIGAND FREE ENERGY PREDICTED BY IDOCK:   -0.89 KCAL/MOL
REMARK 927      BINDING AFFINITY PREDICTED BY RF-SCORE:    0.00 PKD
ROOT
HETATM    1  C   UNL     1      -5.751   8.519  68.902  1.00  0.00    -0.040 C  
HETATM    2  C   UNL     1      -7.097   7.805  68.819  1.00  0.00    -0.076 C  
ENDROOT
BRANCH   2   3
HETATM    3  N   UNL     1      -8.097   8.558  68.045  1.00  0.00    -0.115 NA 
HETATM    4  C   UNL     1      -8.619   7.787  66.912  1.00  0.00    -0.130 C  
HETATM    5  C   UNL     1      -9.890   8.531  66.562  1.00  0.00    -0.342 C  
HETATM    6  C   UNL     1     -10.470   8.897  67.914  1.00  0.00    -0.281 C  
HETATM    7  C   UNL     1      -9.274   8.918  68.880  1.00  0.00    -0.140 C  
BRANCH   7   8
HETATM    8  C   UNL     1      -9.101  10.300  69.551  1.00  0.00    -0.167 C  
BRANCH   8   9
HETATM    9  N   UNL     1      -9.527  11.424  68.725  1.00  0.00    -0.340 N  
HETATM   10  C   UNL     1      -8.652  12.095  67.886  1.00  0.00    -0.167 C  
HETATM   11  H   UNL     1     -10.500  11.726  68.766  1.00  0.00     0.000 HD 
HETATM   12  O   UNL     1      -7.464  11.806  67.827  1.00  0.00    -0.103 OA 
BRANCH  10  13
HETATM   13  C   UNL     1      -9.238  13.217  67.071  1.00  0.00    -0.233 A  
HETATM   14  C   UNL     1      -8.772  14.546  67.201  1.00  0.00    -0.219 A  
HETATM   15  C   UNL     1      -9.362  15.560  66.429  1.00  0.00    -0.330 A  
HETATM   16  C   UNL     1     -10.306  12.943  66.194  1.00  0.00    -0.286 A  
HETATM   17  C   UNL     1     -10.870  13.969  65.432  1.00  0.00    -0.328 A  
HETATM   18  C   UNL     1     -10.406  15.277  65.549  1.00  0.00    -0.408 A  
BRANCH  14  19
HETATM   19  O   UNL     1      -7.738  14.781  68.067  1.00  0.00    -0.108 OA 
HETATM   20  C   UNL     1      -7.935  15.731  69.107  1.00  0.00    -0.231 C  
ENDBRANCH  14  19
BRANCH  17  21
HETATM   21  S   UNL     1     -12.238  13.630  64.360  1.00  0.00    -0.366 S  
HETATM   22  O   UNL     1     -12.669  14.861  63.742  1.00  0.00    -0.754 OA 
HETATM   23  N   UNL     1     -11.513  12.725  63.152  1.00  0.00    -0.795 N  
HETATM   24  O   UNL     1     -13.152  12.735  65.034  1.00  0.00    -0.811 OA 
HETATM   25  H1  UNL     1     -12.300  12.530  62.534  1.00  0.00     0.000 HD 
HETATM   26  H2  UNL     1     -10.537  12.443  63.058  1.00  0.00     0.000 HD 
ENDBRANCH  17  21
ENDBRANCH  10  13
ENDBRANCH   8   9
ENDBRANCH   7   8
ENDBRANCH   2   3
TORSDOF 6
ENDMDL
MODEL       97
REMARK 921   NORMALIZED FREE ENERGY PREDICTED BY IDOCK:   -4.86 KCAL/MOL
REMARK 922        TOTAL FREE ENERGY PREDICTED BY IDOCK:   -7.65 KCAL/MOL
REMARK 923 INTER-LIGAND FREE ENERGY PREDICTED BY IDOCK:   -6.71 KCAL/MOL
REMARK 924 INTRA-LIGAND FREE ENERGY PREDICTED BY IDOCK:   -0.94 KCAL/MOL
REMARK 927      BINDING AFFINITY PREDICTED BY RF-SCORE:    0.00 PKD
ROOT
HETATM    1  C   UNL     1      -6.646   7.030  69.703  1.00  0.00    -0.045 C  
HETATM    2  C   UNL     1      -7.562   7.532  68.591  1.00  0.00    -0.110 C  
ENDROOT
BRANCH   2   3
HETATM    3  N   UNL     1      -8.730   8.267  69.101  1.00  0.00    -0.142 NA 
HETATM    4  C   UNL     1      -9.740   7.374  69.679  1.00  0.00    -0.163 C  
HETATM    5  C   UNL     1     -10.582   8.318  70.509  1.00  0.00    -0.233 C  
HETATM    6  C   UNL     1      -9.561   9.256  71.124  1.00  0.00    -0.305 C  
HETATM    7  C   UNL     1      -8.349   9.217  70.179  1.00  0.00    -0.165 C  
BRANCH   7   8
HETATM    8  C   UNL     1      -8.011  10.617  69.618  1.00  0.00    -0.003 C  
BRANCH   8   9
HETATM    9  N   UNL     1      -9.128  11.281  68.956  1.00  0.00    -0.389 N  
HETATM   10  C   UNL     1      -8.943  12.343  68.084  1.00  0.00    -0.196 C  
HETATM   11  H   UNL     1     -10.077  10.954  69.139  1.00  0.00     0.000 HD 
HETATM   12  O   UNL     1      -7.832  12.806  67.858  1.00  0.00    -0.129 OA 
BRANCH  10  13
HETATM   13  C   UNL     1     -10.185  12.911  67.452  1.00  0.00    -0.230 A  
HETATM   14  C   UNL     1     -10.971  13.883  68.113  1.00  0.00    -0.249 A  
HETATM   15  C   UNL     1     -12.131  14.371  67.487  1.00  0.00    -0.327 A  
HETATM   16  C   UNL     1     -10.597  12.429  66.195  1.00  0.00    -0.283 A  
HETATM   17  C   UNL     1     -11.751  12.936  65.591  1.00  0.00    -0.387 A  
HETATM   18  C   UNL     1     -12.522  13.902  66.234  1.00  0.00    -0.454 A  
BRANCH  14  19
HETATM   19  O   UNL     1     -10.549  14.326  69.338  1.00  0.00    -0.192 OA 
HETATM   20  C   UNL     1     -11.311  15.337  69.986  1.00  0.00    -0.290 C  
ENDBRANCH  14  19
BRANCH  17  21
HETATM   21  S   UNL     1     -12.289  12.301  64.029  1.00  0.00    -0.455 S  
HETATM   22  O   UNL     1     -13.652  11.842  64.150  1.00  0.00    -0.481 OA 
HETATM   23  N   UNL     1     -12.341  13.688  63.092  1.00  0.00    -1.076 N  
HETATM   24  O   UNL     1     -11.238  11.482  63.469  1.00  0.00    -0.413 OA 
HETATM   25  H1  UNL     1     -12.651  13.323  62.192  1.00  0.00     0.000 HD 
HETATM   26  H2  UNL     1     -12.120  14.649  63.353  1.00  0.00     0.000 HD 
ENDBRANCH  17  21
ENDBRANCH  10  13
ENDBRANCH   8   9
ENDBRANCH   7   8
ENDBRANCH   2   3
TORSDOF 6
ENDMDL
MODEL       98
REMARK 921   NORMALIZED FREE ENERGY PREDICTED BY IDOCK:   -4.85 KCAL/MOL
REMARK 922        TOTAL FREE ENERGY PREDICTED BY IDOCK:   -7.64 KCAL/MOL
REMARK 923 INTER-LIGAND FREE ENERGY PREDICTED BY IDOCK:   -6.80 KCAL/MOL
REMARK 924 INTRA-LIGAND FREE ENERGY PREDICTED BY IDOCK:   -0.84 KCAL/MOL
REMARK 927      BINDING AFFINITY PREDICTED BY RF-SCORE:    0.00 PKD
ROOT
HETATM    1  C   UNL     1     -11.441  15.979  69.676  1.00  0.00    -0.326 C  
HETATM    2  C   UNL     1     -10.240  16.753  69.140  1.00  0.00    -0.306 C  
ENDROOT
BRANCH   2   3
HETATM    3  N   UNL     1     -10.598  17.691  68.065  1.00  0.00    -0.388 NA 
HETATM    4  C   UNL     1     -10.372  19.088  68.448  1.00  0.00    -0.308 C  
HETATM    5  C   UNL     1     -10.364  19.802  67.114  1.00  0.00    -0.589 C  
HETATM    6  C   UNL     1      -9.612  18.847  66.207  1.00  0.00    -0.344 C  
HETATM    7  C   UNL     1      -9.783  17.459  66.843  1.00  0.00    -0.286 C  
BRANCH   7   8
HETATM    8  C   UNL     1     -10.466  16.463  65.878  1.00  0.00    -0.337 C  
BRANCH   8   9
HETATM    9  N   UNL     1     -10.066  15.073  66.072  1.00  0.00    -0.282 N  
HETATM   10  C   UNL     1     -10.988  14.068  66.312  1.00  0.00    -0.300 C  
HETATM   11  H   UNL     1      -9.075  14.834  66.029  1.00  0.00     0.000 HD 
HETATM   12  O   UNL     1     -12.186  14.301  66.416  1.00  0.00    -0.436 OA 
BRANCH  10  13
HETATM   13  C   UNL     1     -10.434  12.676  66.463  1.00  0.00    -0.264 A  
HETATM   14  C   UNL     1     -10.322  12.060  67.731  1.00  0.00    -0.197 A  
HETATM   15  C   UNL     1      -9.783  10.765  67.821  1.00  0.00    -0.179 A  
HETATM   16  C   UNL     1      -9.972  11.993  65.321  1.00  0.00    -0.273 A  
HETATM   17  C   UNL     1      -9.447  10.704  65.438  1.00  0.00    -0.215 A  
HETATM   18  C   UNL     1      -9.347  10.089  66.683  1.00  0.00    -0.202 A  
BRANCH  14  19
HETATM   19  O   UNL     1     -10.772  12.752  68.824  1.00  0.00    -0.243 OA 
HETATM   20  C   UNL     1     -11.905  12.246  69.519  1.00  0.00    -0.315 C  
ENDBRANCH  14  19
BRANCH  17  21
HETATM   21  S   UNL     1      -8.832   9.863  64.007  1.00  0.00    -0.245 S  
HETATM   22  O   UNL     1      -9.680  10.167  62.879  1.00  0.00    -0.261 OA 
HETATM   23  N   UNL     1      -7.383  10.659  63.735  1.00  0.00    -0.347 N  
HETATM   24  O   UNL     1      -8.480   8.509  64.374  1.00  0.00    -0.154 OA 
HETATM   25  H1  UNL     1      -7.029  10.174  62.911  1.00  0.00     0.000 HD 
HETATM   26  H2  UNL     1      -6.965  11.428  64.258  1.00  0.00     0.000 HD 
ENDBRANCH  17  21
ENDBRANCH  10  13
ENDBRANCH   8   9
ENDBRANCH   7   8
ENDBRANCH   2   3
TORSDOF 6
ENDMDL
MODEL       99
REMARK 921   NORMALIZED FREE ENERGY PREDICTED BY IDOCK:   -4.83 KCAL/MOL
REMARK 922        TOTAL FREE ENERGY PREDICTED BY IDOCK:   -7.61 KCAL/MOL
REMARK 923 INTER-LIGAND FREE ENERGY PREDICTED BY IDOCK:   -6.66 KCAL/MOL
REMARK 924 INTRA-LIGAND FREE ENERGY PREDICTED BY IDOCK:   -0.95 KCAL/MOL
REMARK 927      BINDING AFFINITY PREDICTED BY RF-SCORE:    0.00 PKD
ROOT
HETATM    1  C   UNL     1      -7.164   8.367  63.462  1.00  0.00    -0.096 C  
HETATM    2  C   UNL     1      -8.373   8.637  64.353  1.00  0.00    -0.139 C  
ENDROOT
BRANCH   2   3
HETATM    3  N   UNL     1      -8.829  10.035  64.289  1.00  0.00    -0.200 NA 
HETATM    4  C   UNL     1      -9.227  10.429  62.934  1.00  0.00    -0.302 C  
HETATM    5  C   UNL     1     -10.049  11.676  63.178  1.00  0.00    -0.409 C  
HETATM    6  C   UNL     1     -10.840  11.339  64.428  1.00  0.00    -0.373 C  
HETATM    7  C   UNL     1     -10.018  10.261  65.153  1.00  0.00    -0.325 C  
BRANCH   7   8
HETATM    8  C   UNL     1      -9.616  10.706  66.578  1.00  0.00    -0.180 C  
BRANCH   8   9
HETATM    9  N   UNL     1     -10.135  12.013  66.966  1.00  0.00    -0.202 N  
HETATM   10  C   UNL     1      -9.304  13.098  67.195  1.00  0.00    -0.235 C  
HETATM   11  H   UNL     1     -11.143  12.133  67.071  1.00  0.00     0.000 HD 
HETATM   12  O   UNL     1      -8.085  13.003  67.125  1.00  0.00    -0.171 OA 
BRANCH  10  13
HETATM   13  C   UNL     1      -9.981  14.391  67.560  1.00  0.00    -0.224 A  
HETATM   14  C   UNL     1     -10.920  14.461  68.615  1.00  0.00    -0.250 A  
HETATM   15  C   UNL     1     -11.537  15.690  68.907  1.00  0.00    -0.392 A  
HETATM   16  C   UNL     1      -9.709  15.547  66.801  1.00  0.00    -0.252 A  
HETATM   17  C   UNL     1     -10.331  16.757  67.117  1.00  0.00    -0.297 A  
HETATM   18  C   UNL     1     -11.247  16.833  68.163  1.00  0.00    -0.154 A  
BRANCH  14  19
HETATM   19  O   UNL     1     -11.169  13.320  69.329  1.00  0.00    -0.253 OA 
HETATM   20  C   UNL     1     -12.156  13.369  70.352  1.00  0.00    -0.333 C  
ENDBRANCH  14  19
BRANCH  17  21
HETATM   21  S   UNL     1     -10.017  18.198  66.138  1.00  0.00    -0.248 S  
HETATM   22  O   UNL     1     -10.954  18.237  65.040  1.00  0.00    -0.684 OA 
HETATM   23  N   UNL     1     -10.465  19.429  67.182  1.00  0.00    -0.436 N  
HETATM   24  O   UNL     1      -8.590  18.336  65.949  1.00  0.00    -0.502 OA 
HETATM   25  H1  UNL     1     -10.284  20.259  66.618  1.00  0.00     0.000 HD 
HETATM   26  H2  UNL     1     -10.825  19.365  68.134  1.00  0.00     0.000 HD 
ENDBRANCH  17  21
ENDBRANCH  10  13
ENDBRANCH   8   9
ENDBRANCH   7   8
ENDBRANCH   2   3
TORSDOF 6
ENDMDL
MODEL      100
REMARK 921   NORMALIZED FREE ENERGY PREDICTED BY IDOCK:   -4.81 KCAL/MOL
REMARK 922        TOTAL FREE ENERGY PREDICTED BY IDOCK:   -7.58 KCAL/MOL
REMARK 923 INTER-LIGAND FREE ENERGY PREDICTED BY IDOCK:   -6.92 KCAL/MOL
REMARK 924 INTRA-LIGAND FREE ENERGY PREDICTED BY IDOCK:   -0.66 KCAL/MOL
REMARK 927      BINDING AFFINITY PREDICTED BY RF-SCORE:    0.00 PKD
ROOT
HETATM    1  C   UNL     1     -10.584  19.591  67.480  1.00  0.00    -0.599 C  
HETATM    2  C   UNL     1      -9.660  18.847  68.440  1.00  0.00    -0.369 C  
ENDROOT
BRANCH   2   3
HETATM    3  N   UNL     1      -9.003  17.687  67.818  1.00  0.00    -0.244 NA 
HETATM    4  C   UNL     1      -7.697  18.029  67.245  1.00  0.00    -0.209 C  
HETATM    5  C   UNL     1      -7.040  16.675  67.086  1.00  0.00    -0.221 C  
HETATM    6  C   UNL     1      -7.452  15.931  68.342  1.00  0.00    -0.127 C  
HETATM    7  C   UNL     1      -8.752  16.606  68.808  1.00  0.00    -0.260 C  
BRANCH   7   8
HETATM    8  C   UNL     1      -9.928  15.605  68.875  1.00  0.00    -0.215 C  
BRANCH   8   9
HETATM    9  N   UNL     1      -9.966  14.652  67.770  1.00  0.00    -0.223 N  
HETATM   10  C   UNL     1     -11.112  13.943  67.448  1.00  0.00    -0.298 C  
HETATM   11  H   UNL     1      -9.122  14.503  67.218  1.00  0.00     0.000 HD 
HETATM   12  O   UNL     1     -12.142  14.049  68.101  1.00  0.00    -0.355 OA 
BRANCH  10  13
HETATM   13  C   UNL     1     -11.012  13.017  66.265  1.00  0.00    -0.303 A  
HETATM   14  C   UNL     1     -11.822  13.193  65.119  1.00  0.00    -0.359 A  
HETATM   15  C   UNL     1     -11.703  12.292  64.048  1.00  0.00    -0.506 A  
HETATM   16  C   UNL     1     -10.127  11.923  66.322  1.00  0.00    -0.249 A  
HETATM   17  C   UNL     1     -10.022  11.046  65.240  1.00  0.00    -0.266 A  
HETATM   18  C   UNL     1     -10.809  11.224  64.105  1.00  0.00    -0.407 A  
BRANCH  14  19
HETATM   19  O   UNL     1     -12.679  14.261  65.096  1.00  0.00    -0.596 OA 
HETATM   20  C   UNL     1     -12.382  15.342  64.221  1.00  0.00    -0.121 C  
ENDBRANCH  14  19
BRANCH  17  21
HETATM   21  S   UNL     1      -8.937   9.651  65.329  1.00  0.00    -0.220 S  
HETATM   22  O   UNL     1      -9.601   8.581  66.035  1.00  0.00    -0.227 OA 
HETATM   23  N   UNL     1      -8.853   9.175  63.725  1.00  0.00    -0.417 N  
HETATM   24  O   UNL     1      -7.611  10.109  65.679  1.00  0.00    -0.130 OA 
HETATM   25  H1  UNL     1      -8.228   8.371  63.777  1.00  0.00     0.000 HD 
HETATM   26  H2  UNL     1      -9.309   9.584  62.910  1.00  0.00     0.000 HD 
ENDBRANCH  17  21
ENDBRANCH  10  13
ENDBRANCH   8   9
ENDBRANCH   7   8
ENDBRANCH   2   3
TORSDOF 6
ENDMDL
MODEL      101
REMARK 921   NORMALIZED FREE ENERGY PREDICTED BY IDOCK:   -4.80 KCAL/MOL
REMARK 922        TOTAL FREE ENERGY PREDICTED BY IDOCK:   -7.57 KCAL/MOL
REMARK 923 INTER-LIGAND FREE ENERGY PREDICTED BY IDOCK:   -6.58 KCAL/MOL
REMARK 924 INTRA-LIGAND FREE ENERGY PREDICTED BY IDOCK:   -0.99 KCAL/MOL
REMARK 927      BINDING AFFINITY PREDICTED BY RF-SCORE:    0.00 PKD
ROOT
HETATM    1  C   UNL     1      -9.411   4.567  73.586  1.00  0.00    -0.121 C  
HETATM    2  C   UNL     1     -10.548   5.531  73.257  1.00  0.00    -0.250 C  
ENDROOT
BRANCH   2   3
HETATM    3  N   UNL     1     -10.411   6.144  71.927  1.00  0.00    -0.204 NA 
HETATM    4  C   UNL     1      -9.778   5.240  70.961  1.00  0.00    -0.182 C  
HETATM    5  C   UNL     1     -10.143   5.865  69.632  1.00  0.00    -0.260 C  
HETATM    6  C   UNL     1     -11.577   6.317  69.835  1.00  0.00    -0.361 C  
HETATM    7  C   UNL     1     -11.735   6.504  71.353  1.00  0.00    -0.324 C  
BRANCH   7   8
HETATM    8  C   UNL     1     -12.143   7.951  71.715  1.00  0.00    -0.303 C  
BRANCH   8   9
HETATM    9  N   UNL     1     -12.064   8.891  70.603  1.00  0.00    -0.483 N  
HETATM   10  C   UNL     1     -10.924   9.634  70.345  1.00  0.00    -0.299 C  
HETATM   11  H   UNL     1     -12.875   9.005  69.995  1.00  0.00     0.000 HD 
HETATM   12  O   UNL     1      -9.936   9.571  71.066  1.00  0.00    -0.278 OA 
BRANCH  10  13
HETATM   13  C   UNL     1     -10.976  10.542  69.146  1.00  0.00    -0.286 A  
HETATM   14  C   UNL     1     -10.803  10.043  67.834  1.00  0.00    -0.271 A  
HETATM   15  C   UNL     1     -10.846  10.934  66.748  1.00  0.00    -0.283 A  
HETATM   16  C   UNL     1     -11.154  11.926  69.340  1.00  0.00    -0.218 A  
HETATM   17  C   UNL     1     -11.199  12.789  68.242  1.00  0.00    -0.271 A  
HETATM   18  C   UNL     1     -11.041  12.300  66.948  1.00  0.00    -0.341 A  
BRANCH  14  19
HETATM   19  O   UNL     1     -10.625   8.694  67.678  1.00  0.00    -0.248 OA 
HETATM   20  C   UNL     1      -9.700   8.248  66.694  1.00  0.00    -0.251 C  
ENDBRANCH  14  19
BRANCH  17  21
HETATM   21  S   UNL     1     -11.383  14.532  68.491  1.00  0.00    -0.303 S  
HETATM   22  O   UNL     1     -11.725  15.154  67.234  1.00  0.00    -0.295 OA 
HETATM   23  N   UNL     1     -12.761  14.602  69.440  1.00  0.00    -0.518 N  
HETATM   24  O   UNL     1     -10.301  15.004  69.325  1.00  0.00    -0.234 OA 
HETATM   25  H1  UNL     1     -12.868  15.606  69.583  1.00  0.00     0.000 HD 
HETATM   26  H2  UNL     1     -13.343  13.838  69.785  1.00  0.00     0.000 HD 
ENDBRANCH  17  21
ENDBRANCH  10  13
ENDBRANCH   8   9
ENDBRANCH   7   8
ENDBRANCH   2   3
TORSDOF 6
ENDMDL
MODEL      102
REMARK 921   NORMALIZED FREE ENERGY PREDICTED BY IDOCK:   -4.77 KCAL/MOL
REMARK 922        TOTAL FREE ENERGY PREDICTED BY IDOCK:   -7.53 KCAL/MOL
REMARK 923 INTER-LIGAND FREE ENERGY PREDICTED BY IDOCK:   -6.78 KCAL/MOL
REMARK 924 INTRA-LIGAND FREE ENERGY PREDICTED BY IDOCK:   -0.75 KCAL/MOL
REMARK 927      BINDING AFFINITY PREDICTED BY RF-SCORE:    0.00 PKD
ROOT
HETATM    1  C   UNL     1     -11.654  14.893  64.261  1.00  0.00    -0.201 C  
HETATM    2  C   UNL     1     -10.992  15.947  65.143  1.00  0.00    -0.377 C  
ENDROOT
BRANCH   2   3
HETATM    3  N   UNL     1     -10.140  15.363  66.191  1.00  0.00    -0.285 NA 
HETATM    4  C   UNL     1      -8.797  15.951  66.207  1.00  0.00    -0.351 C  
HETATM    5  C   UNL     1      -8.280  15.561  67.575  1.00  0.00    -0.182 C  
HETATM    6  C   UNL     1      -9.490  15.730  68.473  1.00  0.00    -0.201 C  
HETATM    7  C   UNL     1     -10.709  15.590  67.547  1.00  0.00    -0.300 C  
BRANCH   7   8
HETATM    8  C   UNL     1     -11.633  14.430  67.983  1.00  0.00    -0.327 C  
BRANCH   8   9
HETATM    9  N   UNL     1     -11.059  13.103  67.788  1.00  0.00    -0.253 N  
HETATM   10  C   UNL     1     -11.551  12.219  66.841  1.00  0.00    -0.361 C  
HETATM   11  H   UNL     1     -10.270  12.816  68.367  1.00  0.00     0.000 HD 
HETATM   12  O   UNL     1     -12.523  12.491  66.148  1.00  0.00    -0.522 OA 
BRANCH  10  13
HETATM   13  C   UNL     1     -10.842  10.896  66.732  1.00  0.00    -0.283 A  
HETATM   14  C   UNL     1     -10.105  10.547  65.576  1.00  0.00    -0.283 A  
HETATM   15  C   UNL     1      -9.473   9.294  65.516  1.00  0.00    -0.309 A  
HETATM   16  C   UNL     1     -10.954   9.967  67.784  1.00  0.00    -0.278 A  
HETATM   17  C   UNL     1     -10.310   8.730  67.702  1.00  0.00    -0.254 A  
HETATM   18  C   UNL     1      -9.574   8.388  66.571  1.00  0.00    -0.304 A  
BRANCH  14  19
HETATM   19  O   UNL     1     -10.020  11.468  64.566  1.00  0.00    -0.242 OA 
HETATM   20  C   UNL     1      -9.931  10.993  63.229  1.00  0.00    -0.369 C  
ENDBRANCH  14  19
BRANCH  17  21
HETATM   21  S   UNL     1     -10.485   7.549  69.009  1.00  0.00    -0.185 S  
HETATM   22  O   UNL     1      -9.253   7.488  69.758  1.00  0.00    -0.148 OA 
HETATM   23  N   UNL     1     -11.604   8.299  70.004  1.00  0.00    -0.450 N  
HETATM   24  O   UNL     1     -11.140   6.369  68.490  1.00  0.00    -0.318 OA 
HETATM   25  H1  UNL     1     -11.705   7.618  70.757  1.00  0.00     0.000 HD 
HETATM   26  H2  UNL     1     -12.065   9.201  69.888  1.00  0.00     0.000 HD 
ENDBRANCH  17  21
ENDBRANCH  10  13
ENDBRANCH   8   9
ENDBRANCH   7   8
ENDBRANCH   2   3
TORSDOF 6
ENDMDL
MODEL      103
REMARK 921   NORMALIZED FREE ENERGY PREDICTED BY IDOCK:   -4.77 KCAL/MOL
REMARK 922        TOTAL FREE ENERGY PREDICTED BY IDOCK:   -7.52 KCAL/MOL
REMARK 923 INTER-LIGAND FREE ENERGY PREDICTED BY IDOCK:   -7.28 KCAL/MOL
REMARK 924 INTRA-LIGAND FREE ENERGY PREDICTED BY IDOCK:   -0.24 KCAL/MOL
REMARK 927      BINDING AFFINITY PREDICTED BY RF-SCORE:    0.00 PKD
ROOT
HETATM    1  C   UNL     1     -13.948   8.858  71.608  1.00  0.00    -0.417 C  
HETATM    2  C   UNL     1     -12.707   8.797  72.494  1.00  0.00    -0.311 C  
ENDROOT
BRANCH   2   3
HETATM    3  N   UNL     1     -11.691   7.858  71.991  1.00  0.00    -0.294 NA 
HETATM    4  C   UNL     1     -12.156   6.468  72.019  1.00  0.00    -0.312 C  
HETATM    5  C   UNL     1     -11.191   5.775  71.082  1.00  0.00    -0.211 C  
HETATM    6  C   UNL     1     -11.007   6.779  69.959  1.00  0.00    -0.344 C  
HETATM    7  C   UNL     1     -11.333   8.148  70.577  1.00  0.00    -0.221 C  
BRANCH   7   8
HETATM    8  C   UNL     1     -10.139   9.124  70.475  1.00  0.00    -0.235 C  
BRANCH   8   9
HETATM    9  N   UNL     1     -10.493  10.454  69.991  1.00  0.00    -0.419 N  
HETATM   10  C   UNL     1     -10.658  10.727  68.642  1.00  0.00    -0.199 C  
HETATM   11  H   UNL     1     -10.624  11.207  70.666  1.00  0.00     0.000 HD 
HETATM   12  O   UNL     1     -10.473   9.873  67.783  1.00  0.00    -0.208 OA 
BRANCH  10  13
HETATM   13  C   UNL     1     -11.053  12.136  68.290  1.00  0.00    -0.288 A  
HETATM   14  C   UNL     1     -11.256  12.532  66.948  1.00  0.00    -0.303 A  
HETATM   15  C   UNL     1     -11.609  13.864  66.670  1.00  0.00    -0.392 A  
HETATM   16  C   UNL     1     -11.175  13.092  69.318  1.00  0.00    -0.259 A  
HETATM   17  C   UNL     1     -11.533  14.408  69.014  1.00  0.00    -0.283 A  
HETATM   18  C   UNL     1     -11.746  14.799  67.695  1.00  0.00    -0.364 A  
BRANCH  14  19
HETATM   19  O   UNL     1     -11.123  11.582  65.971  1.00  0.00    -0.291 OA 
HETATM   20  C   UNL     1     -11.339  11.973  64.620  1.00  0.00    -0.318 C  
ENDBRANCH  14  19
BRANCH  17  21
HETATM   21  S   UNL     1     -11.648  15.616  70.303  1.00  0.00    -0.389 S  
HETATM   22  O   UNL     1     -11.153  16.879  69.810  1.00  0.00    -0.147 OA 
HETATM   23  N   UNL     1     -13.306  15.792  70.464  1.00  0.00    -0.757 N  
HETATM   24  O   UNL     1     -11.187  15.028  71.540  1.00  0.00    -0.321 OA 
HETATM   25  H1  UNL     1     -13.372  16.488  71.207  1.00  0.00     0.000 HD 
HETATM   26  H2  UNL     1     -14.054  15.324  69.954  1.00  0.00     0.000 HD 
ENDBRANCH  17  21
ENDBRANCH  10  13
ENDBRANCH   8   9
ENDBRANCH   7   8
ENDBRANCH   2   3
TORSDOF 6
ENDMDL
MODEL      104
REMARK 921   NORMALIZED FREE ENERGY PREDICTED BY IDOCK:   -4.76 KCAL/MOL
REMARK 922        TOTAL FREE ENERGY PREDICTED BY IDOCK:   -7.52 KCAL/MOL
REMARK 923 INTER-LIGAND FREE ENERGY PREDICTED BY IDOCK:   -6.96 KCAL/MOL
REMARK 924 INTRA-LIGAND FREE ENERGY PREDICTED BY IDOCK:   -0.56 KCAL/MOL
REMARK 927      BINDING AFFINITY PREDICTED BY RF-SCORE:    0.00 PKD
ROOT
HETATM    1  C   UNL     1      -6.129  21.127  66.713  1.00  0.00    -0.369 C  
HETATM    2  C   UNL     1      -6.212  19.603  66.758  1.00  0.00    -0.182 C  
ENDROOT
BRANCH   2   3
HETATM    3  N   UNL     1      -7.514  19.116  67.240  1.00  0.00    -0.227 NA 
HETATM    4  C   UNL     1      -8.574  20.117  67.087  1.00  0.00    -0.343 C  
HETATM    5  C   UNL     1      -9.834  19.287  67.204  1.00  0.00    -0.425 C  
HETATM    6  C   UNL     1      -9.495  18.019  66.444  1.00  0.00    -0.280 C  
HETATM    7  C   UNL     1      -7.962  17.917  66.483  1.00  0.00    -0.270 C  
BRANCH   7   8
HETATM    8  C   UNL     1      -7.490  16.605  67.152  1.00  0.00    -0.183 C  
BRANCH   8   9
HETATM    9  N   UNL     1      -8.112  15.401  66.612  1.00  0.00    -0.332 N  
HETATM   10  C   UNL     1      -8.526  14.358  67.425  1.00  0.00    -0.203 C  
HETATM   11  H   UNL     1      -8.246  15.324  65.604  1.00  0.00     0.000 HD 
HETATM   12  O   UNL     1      -8.352  14.376  68.637  1.00  0.00    -0.150 OA 
BRANCH  10  13
HETATM   13  C   UNL     1      -9.178  13.191  66.733  1.00  0.00    -0.232 A  
HETATM   14  C   UNL     1      -8.664  11.879  66.856  1.00  0.00    -0.191 A  
HETATM   15  C   UNL     1      -9.300  10.826  66.177  1.00  0.00    -0.209 A  
HETATM   16  C   UNL     1     -10.295  13.420  65.906  1.00  0.00    -0.290 A  
HETATM   17  C   UNL     1     -10.912  12.354  65.248  1.00  0.00    -0.298 A  
HETATM   18  C   UNL     1     -10.417  11.058  65.376  1.00  0.00    -0.306 A  
BRANCH  14  19
HETATM   19  O   UNL     1      -7.573  11.690  67.661  1.00  0.00    -0.114 OA 
HETATM   20  C   UNL     1      -7.623  10.647  68.627  1.00  0.00    -0.103 C  
ENDBRANCH  14  19
BRANCH  17  21
HETATM   21  S   UNL     1     -12.292  12.649  64.178  1.00  0.00    -0.434 S  
HETATM   22  O   UNL     1     -12.067  13.871  63.444  1.00  0.00    -0.464 OA 
HETATM   23  N   UNL     1     -12.143  11.401  63.071  1.00  0.00    -0.873 N  
HETATM   24  O   UNL     1     -13.513  12.391  64.907  1.00  0.00    -0.484 OA 
HETATM   25  H1  UNL     1     -12.938  11.571  62.455  1.00  0.00     0.000 HD 
HETATM   26  H2  UNL     1     -11.441  10.663  63.025  1.00  0.00     0.000 HD 
ENDBRANCH  17  21
ENDBRANCH  10  13
ENDBRANCH   8   9
ENDBRANCH   7   8
ENDBRANCH   2   3
TORSDOF 6
ENDMDL
MODEL      105
REMARK 921   NORMALIZED FREE ENERGY PREDICTED BY IDOCK:   -4.76 KCAL/MOL
REMARK 922        TOTAL FREE ENERGY PREDICTED BY IDOCK:   -7.51 KCAL/MOL
REMARK 923 INTER-LIGAND FREE ENERGY PREDICTED BY IDOCK:   -6.67 KCAL/MOL
REMARK 924 INTRA-LIGAND FREE ENERGY PREDICTED BY IDOCK:   -0.84 KCAL/MOL
REMARK 927      BINDING AFFINITY PREDICTED BY RF-SCORE:    0.00 PKD
ROOT
HETATM    1  C   UNL     1     -10.429   8.556  68.219  1.00  0.00    -0.222 C  
HETATM    2  C   UNL     1     -10.339   9.851  69.022  1.00  0.00    -0.209 C  
ENDROOT
BRANCH   2   3
HETATM    3  N   UNL     1     -11.646  10.308  69.519  1.00  0.00    -0.204 NA 
HETATM    4  C   UNL     1     -12.089   9.552  70.695  1.00  0.00    -0.162 C  
HETATM    5  C   UNL     1     -13.162  10.445  71.279  1.00  0.00    -0.431 C  
HETATM    6  C   UNL     1     -12.596  11.841  71.104  1.00  0.00    -0.412 C  
HETATM    7  C   UNL     1     -11.604  11.735  69.935  1.00  0.00    -0.274 C  
BRANCH   7   8
HETATM    8  C   UNL     1     -11.980  12.683  68.772  1.00  0.00    -0.237 C  
BRANCH   8   9
HETATM    9  N   UNL     1     -10.958  13.673  68.454  1.00  0.00    -0.252 N  
HETATM   10  C   UNL     1     -10.973  14.394  67.270  1.00  0.00    -0.297 C  
HETATM   11  H   UNL     1     -10.207  13.841  69.123  1.00  0.00     0.000 HD 
HETATM   12  O   UNL     1     -11.825  14.205  66.410  1.00  0.00    -0.386 OA 
BRANCH  10  13
HETATM   13  C   UNL     1      -9.871  15.403  67.089  1.00  0.00    -0.221 A  
HETATM   14  C   UNL     1      -8.511  15.016  67.085  1.00  0.00    -0.218 A  
HETATM   15  C   UNL     1      -7.518  15.998  66.928  1.00  0.00    -0.253 A  
HETATM   16  C   UNL     1     -10.202  16.767  66.969  1.00  0.00    -0.292 A  
HETATM   17  C   UNL     1      -9.195  17.722  66.807  1.00  0.00    -0.273 A  
HETATM   18  C   UNL     1      -7.855  17.344  66.790  1.00  0.00    -0.273 A  
BRANCH  14  19
HETATM   19  O   UNL     1      -8.221  13.684  67.211  1.00  0.00    -0.175 OA 
HETATM   20  C   UNL     1      -7.251  13.296  68.176  1.00  0.00    -0.112 C  
ENDBRANCH  14  19
BRANCH  17  21
HETATM   21  S   UNL     1      -9.610  19.439  66.696  1.00  0.00    -0.380 S  
HETATM   22  O   UNL     1      -9.703  19.990  68.027  1.00  0.00    -0.366 OA 
HETATM   23  N   UNL     1      -8.223  20.086  66.015  1.00  0.00    -0.503 N  
HETATM   24  O   UNL     1     -10.653  19.606  65.709  1.00  0.00    -0.522 OA 
HETATM   25  H1  UNL     1      -8.462  21.075  65.951  1.00  0.00     0.000 HD 
HETATM   26  H2  UNL     1      -7.363  19.613  65.737  1.00  0.00     0.000 HD 
ENDBRANCH  17  21
ENDBRANCH  10  13
ENDBRANCH   8   9
ENDBRANCH   7   8
ENDBRANCH   2   3
TORSDOF 6
ENDMDL
MODEL      106
REMARK 921   NORMALIZED FREE ENERGY PREDICTED BY IDOCK:   -4.74 KCAL/MOL
REMARK 922        TOTAL FREE ENERGY PREDICTED BY IDOCK:   -7.48 KCAL/MOL
REMARK 923 INTER-LIGAND FREE ENERGY PREDICTED BY IDOCK:   -7.10 KCAL/MOL
REMARK 924 INTRA-LIGAND FREE ENERGY PREDICTED BY IDOCK:   -0.38 KCAL/MOL
REMARK 927      BINDING AFFINITY PREDICTED BY RF-SCORE:    0.00 PKD
ROOT
HETATM    1  C   UNL     1      -9.902   7.743  72.494  1.00  0.00    -0.271 C  
HETATM    2  C   UNL     1     -10.394   9.014  71.808  1.00  0.00    -0.337 C  
ENDROOT
BRANCH   2   3
HETATM    3  N   UNL     1     -11.760   8.884  71.277  1.00  0.00    -0.290 NA 
HETATM    4  C   UNL     1     -12.144   7.485  71.066  1.00  0.00    -0.277 C  
HETATM    5  C   UNL     1     -13.653   7.566  70.968  1.00  0.00    -0.120 C  
HETATM    6  C   UNL     1     -14.022   8.589  72.025  1.00  0.00    -0.494 C  
HETATM    7  C   UNL     1     -12.766   9.455  72.212  1.00  0.00    -0.341 C  
BRANCH   7   8
HETATM    8  C   UNL     1     -13.046  10.946  71.914  1.00  0.00    -0.432 C  
BRANCH   8   9
HETATM    9  N   UNL     1     -12.377  11.453  70.721  1.00  0.00    -0.388 N  
HETATM   10  C   UNL     1     -12.278  12.809  70.452  1.00  0.00    -0.293 C  
HETATM   11  H   UNL     1     -11.970  10.788  70.063  1.00  0.00     0.000 HD 
HETATM   12  O   UNL     1     -12.784  13.651  71.183  1.00  0.00    -0.341 OA 
BRANCH  10  13
HETATM   13  C   UNL     1     -11.535  13.187  69.199  1.00  0.00    -0.358 A  
HETATM   14  C   UNL     1     -11.354  12.265  68.141  1.00  0.00    -0.295 A  
HETATM   15  C   UNL     1     -10.640  12.661  66.998  1.00  0.00    -0.255 A  
HETATM   16  C   UNL     1     -10.967  14.472  69.098  1.00  0.00    -0.286 A  
HETATM   17  C   UNL     1     -10.267  14.843  67.947  1.00  0.00    -0.228 A  
HETATM   18  C   UNL     1     -10.098  13.942  66.899  1.00  0.00    -0.260 A  
BRANCH  14  19
HETATM   19  O   UNL     1     -11.912  11.021  68.271  1.00  0.00    -0.593 OA 
HETATM   20  C   UNL     1     -11.071   9.887  68.098  1.00  0.00    -0.156 C  
ENDBRANCH  14  19
BRANCH  17  21
HETATM   21  S   UNL     1      -9.521  16.445  67.839  1.00  0.00    -0.224 S  
HETATM   22  O   UNL     1      -8.312  16.456  68.627  1.00  0.00    -0.198 OA 
HETATM   23  N   UNL     1      -9.038  16.492  66.236  1.00  0.00    -0.294 N  
HETATM   24  O   UNL     1     -10.550  17.451  67.976  1.00  0.00    -0.371 OA 
HETATM   25  H1  UNL     1      -8.608  17.415  66.174  1.00  0.00     0.000 HD 
HETATM   26  H2  UNL     1      -9.145  15.784  65.511  1.00  0.00     0.000 HD 
ENDBRANCH  17  21
ENDBRANCH  10  13
ENDBRANCH   8   9
ENDBRANCH   7   8
ENDBRANCH   2   3
TORSDOF 6
ENDMDL
MODEL      107
REMARK 921   NORMALIZED FREE ENERGY PREDICTED BY IDOCK:   -4.73 KCAL/MOL
REMARK 922        TOTAL FREE ENERGY PREDICTED BY IDOCK:   -7.46 KCAL/MOL
REMARK 923 INTER-LIGAND FREE ENERGY PREDICTED BY IDOCK:   -6.55 KCAL/MOL
REMARK 924 INTRA-LIGAND FREE ENERGY PREDICTED BY IDOCK:   -0.91 KCAL/MOL
REMARK 927      BINDING AFFINITY PREDICTED BY RF-SCORE:    0.00 PKD
ROOT
HETATM    1  C   UNL     1     -11.504  10.538  70.002  1.00  0.00    -0.393 C  
HETATM    2  C   UNL     1     -10.140   9.857  69.935  1.00  0.00    -0.257 C  
ENDROOT
BRANCH   2   3
HETATM    3  N   UNL     1      -9.664   9.665  68.557  1.00  0.00    -0.148 NA 
HETATM    4  C   UNL     1     -10.227   8.461  67.937  1.00  0.00    -0.217 C  
HETATM    5  C   UNL     1      -9.985   8.703  66.462  1.00  0.00    -0.353 C  
HETATM    6  C   UNL     1     -10.275  10.182  66.293  1.00  0.00    -0.288 C  
HETATM    7  C   UNL     1     -10.051  10.803  67.681  1.00  0.00    -0.176 C  
BRANCH   7   8
HETATM    8  C   UNL     1      -8.963  11.901  67.652  1.00  0.00    -0.169 C  
BRANCH   8   9
HETATM    9  N   UNL     1      -9.464  13.231  67.325  1.00  0.00    -0.225 N  
HETATM   10  C   UNL     1      -8.618  14.311  67.130  1.00  0.00    -0.216 C  
HETATM   11  H   UNL     1     -10.471  13.372  67.237  1.00  0.00     0.000 HD 
HETATM   12  O   UNL     1      -7.404  14.212  67.265  1.00  0.00    -0.161 OA 
BRANCH  10  13
HETATM   13  C   UNL     1      -9.274  15.616  66.770  1.00  0.00    -0.275 A  
HETATM   14  C   UNL     1     -10.156  15.720  65.669  1.00  0.00    -0.371 A  
HETATM   15  C   UNL     1     -10.732  16.965  65.364  1.00  0.00    -0.161 A  
HETATM   16  C   UNL     1      -8.965  16.770  67.517  1.00  0.00    -0.208 A  
HETATM   17  C   UNL     1      -9.556  17.994  67.196  1.00  0.00    -0.281 A  
HETATM   18  C   UNL     1     -10.435  18.098  66.121  1.00  0.00    -0.377 A  
BRANCH  14  19
HETATM   19  O   UNL     1     -10.431  14.583  64.958  1.00  0.00    -0.392 OA 
HETATM   20  C   UNL     1     -11.794  14.252  64.721  1.00  0.00    -0.429 C  
ENDBRANCH  14  19
BRANCH  17  21
HETATM   21  S   UNL     1      -9.136  19.450  68.112  1.00  0.00    -0.342 S  
HETATM   22  O   UNL     1     -10.099  19.635  69.171  1.00  0.00    -0.438 OA 
HETATM   23  N   UNL     1      -7.705  18.992  68.851  1.00  0.00    -0.332 N  
HETATM   24  O   UNL     1      -8.786  20.503  67.184  1.00  0.00    -0.344 OA 
HETATM   25  H1  UNL     1      -7.463  19.830  69.378  1.00  0.00     0.000 HD 
HETATM   26  H2  UNL     1      -7.205  18.105  68.790  1.00  0.00     0.000 HD 
ENDBRANCH  17  21
ENDBRANCH  10  13
ENDBRANCH   8   9
ENDBRANCH   7   8
ENDBRANCH   2   3
TORSDOF 6
ENDMDL
MODEL      108
REMARK 921   NORMALIZED FREE ENERGY PREDICTED BY IDOCK:   -4.73 KCAL/MOL
REMARK 922        TOTAL FREE ENERGY PREDICTED BY IDOCK:   -7.46 KCAL/MOL
REMARK 923 INTER-LIGAND FREE ENERGY PREDICTED BY IDOCK:   -6.80 KCAL/MOL
REMARK 924 INTRA-LIGAND FREE ENERGY PREDICTED BY IDOCK:   -0.66 KCAL/MOL
REMARK 927      BINDING AFFINITY PREDICTED BY RF-SCORE:    0.00 PKD
ROOT
HETATM    1  C   UNL     1     -12.112   8.240  72.518  1.00  0.00    -0.400 C  
HETATM    2  C   UNL     1     -12.184   8.793  71.098  1.00  0.00    -0.244 C  
ENDROOT
BRANCH   2   3
HETATM    3  N   UNL     1     -10.884   9.276  70.606  1.00  0.00    -0.255 NA 
HETATM    4  C   UNL     1      -9.792   8.978  71.537  1.00  0.00    -0.310 C  
HETATM    5  C   UNL     1      -8.562   9.136  70.669  1.00  0.00    -0.266 C  
HETATM    6  C   UNL     1      -8.984   8.528  69.345  1.00  0.00    -0.149 C  
HETATM    7  C   UNL     1     -10.516   8.635  69.315  1.00  0.00    -0.217 C  
BRANCH   7   8
HETATM    8  C   UNL     1     -11.013   9.457  68.104  1.00  0.00    -0.045 C  
BRANCH   8   9
HETATM    9  N   UNL     1     -11.388  10.829  68.426  1.00  0.00    -0.288 N  
HETATM   10  C   UNL     1     -10.511  11.890  68.262  1.00  0.00    -0.205 C  
HETATM   11  H   UNL     1     -12.325  11.015  68.782  1.00  0.00     0.000 HD 
HETATM   12  O   UNL     1      -9.360  11.723  67.879  1.00  0.00    -0.172 OA 
BRANCH  10  13
HETATM   13  C   UNL     1     -11.044  13.255  68.607  1.00  0.00    -0.301 A  
HETATM   14  C   UNL     1     -10.818  14.369  67.766  1.00  0.00    -0.258 A  
HETATM   15  C   UNL     1     -11.324  15.626  68.141  1.00  0.00    -0.340 A  
HETATM   16  C   UNL     1     -11.742  13.434  69.818  1.00  0.00    -0.355 A  
HETATM   17  C   UNL     1     -12.240  14.693  70.162  1.00  0.00    -0.335 A  
HETATM   18  C   UNL     1     -12.031  15.790  69.331  1.00  0.00    -0.321 A  
BRANCH  14  19
HETATM   19  O   UNL     1     -10.130  14.165  66.600  1.00  0.00    -0.262 OA 
HETATM   20  C   UNL     1     -10.875  13.895  65.419  1.00  0.00    -0.319 C  
ENDBRANCH  14  19
BRANCH  17  21
HETATM   21  S   UNL     1     -13.083  14.923  71.702  1.00  0.00    -0.374 S  
HETATM   22  O   UNL     1     -14.374  15.518  71.449  1.00  0.00    -0.531 OA 
HETATM   23  N   UNL     1     -13.376  13.343  72.174  1.00  0.00    -0.493 N  
HETATM   24  O   UNL     1     -12.153  15.462  72.669  1.00  0.00    -0.363 OA 
HETATM   25  H1  UNL     1     -13.862  13.476  73.061  1.00  0.00     0.000 HD 
HETATM   26  H2  UNL     1     -13.133  12.475  71.699  1.00  0.00     0.000 HD 
ENDBRANCH  17  21
ENDBRANCH  10  13
ENDBRANCH   8   9
ENDBRANCH   7   8
ENDBRANCH   2   3
TORSDOF 6
ENDMDL
MODEL      109
REMARK 921   NORMALIZED FREE ENERGY PREDICTED BY IDOCK:   -4.72 KCAL/MOL
REMARK 922        TOTAL FREE ENERGY PREDICTED BY IDOCK:   -7.46 KCAL/MOL
REMARK 923 INTER-LIGAND FREE ENERGY PREDICTED BY IDOCK:   -6.56 KCAL/MOL
REMARK 924 INTRA-LIGAND FREE ENERGY PREDICTED BY IDOCK:   -0.90 KCAL/MOL
REMARK 927      BINDING AFFINITY PREDICTED BY RF-SCORE:    0.00 PKD
ROOT
HETATM    1  C   UNL     1     -11.006  15.554  64.855  1.00  0.00    -0.452 C  
HETATM    2  C   UNL     1     -10.999  14.030  64.940  1.00  0.00    -0.392 C  
ENDROOT
BRANCH   2   3
HETATM    3  N   UNL     1     -10.842  13.536  66.317  1.00  0.00    -0.288 NA 
HETATM    4  C   UNL     1     -11.420  14.451  67.306  1.00  0.00    -0.359 C  
HETATM    5  C   UNL     1     -11.553  13.574  68.533  1.00  0.00    -0.368 C  
HETATM    6  C   UNL     1     -12.011  12.243  67.968  1.00  0.00    -0.251 C  
HETATM    7  C   UNL     1     -11.528  12.230  66.509  1.00  0.00    -0.381 C  
BRANCH   7   8
HETATM    8  C   UNL     1     -10.583  11.038  66.226  1.00  0.00    -0.237 C  
BRANCH   8   9
HETATM    9  N   UNL     1     -10.805   9.882  67.088  1.00  0.00    -0.209 N  
HETATM   10  C   UNL     1      -9.782   9.304  67.823  1.00  0.00    -0.150 C  
HETATM   11  H   UNL     1     -11.743   9.486  67.152  1.00  0.00     0.000 HD 
HETATM   12  O   UNL     1      -8.629   9.709  67.753  1.00  0.00    -0.125 OA 
BRANCH  10  13
HETATM   13  C   UNL     1     -10.163   8.135  68.691  1.00  0.00    -0.226 A  
HETATM   14  C   UNL     1     -10.450   6.867  68.135  1.00  0.00    -0.204 A  
HETATM   15  C   UNL     1     -10.817   5.810  68.987  1.00  0.00    -0.330 A  
HETATM   16  C   UNL     1     -10.282   8.322  70.082  1.00  0.00    -0.199 A  
HETATM   17  C   UNL     1     -10.641   7.253  70.906  1.00  0.00    -0.220 A  
HETATM   18  C   UNL     1     -10.913   6.000  70.365  1.00  0.00    -0.399 A  
BRANCH  14  19
HETATM   19  O   UNL     1     -10.333   6.718  66.779  1.00  0.00    -0.230 OA 
HETATM   20  C   UNL     1     -10.187   5.402  66.258  1.00  0.00    -0.192 C  
ENDBRANCH  14  19
BRANCH  17  21
HETATM   21  S   UNL     1     -10.828   7.501  72.650  1.00  0.00    -0.346 S  
HETATM   22  O   UNL     1     -11.992   8.320  72.888  1.00  0.00    -0.316 OA 
HETATM   23  N   UNL     1     -11.222   5.960  73.176  1.00  0.00    -0.450 N  
HETATM   24  O   UNL     1      -9.534   7.798  73.222  1.00  0.00    -0.233 OA 
HETATM   25  H1  UNL     1     -11.330   6.102  74.180  1.00  0.00     0.000 HD 
HETATM   26  H2  UNL     1     -11.327   5.103  72.634  1.00  0.00     0.000 HD 
ENDBRANCH  17  21
ENDBRANCH  10  13
ENDBRANCH   8   9
ENDBRANCH   7   8
ENDBRANCH   2   3
TORSDOF 6
ENDMDL
MODEL      110
REMARK 921   NORMALIZED FREE ENERGY PREDICTED BY IDOCK:   -4.71 KCAL/MOL
REMARK 922        TOTAL FREE ENERGY PREDICTED BY IDOCK:   -7.45 KCAL/MOL
REMARK 923 INTER-LIGAND FREE ENERGY PREDICTED BY IDOCK:   -6.63 KCAL/MOL
REMARK 924 INTRA-LIGAND FREE ENERGY PREDICTED BY IDOCK:   -0.81 KCAL/MOL
REMARK 927      BINDING AFFINITY PREDICTED BY RF-SCORE:    0.00 PKD
ROOT
HETATM    1  C   UNL     1      -9.454  17.228  68.123  1.00  0.00    -0.278 C  
HETATM    2  C   UNL     1     -10.691  17.176  69.015  1.00  0.00    -0.219 C  
ENDROOT
BRANCH   2   3
HETATM    3  N   UNL     1     -10.889  15.860  69.642  1.00  0.00    -0.286 NA 
HETATM    4  C   UNL     1     -11.536  15.960  70.954  1.00  0.00    -0.421 C  
HETATM    5  C   UNL     1     -12.033  14.550  71.188  1.00  0.00    -0.401 C  
HETATM    6  C   UNL     1     -12.532  14.118  69.822  1.00  0.00    -0.266 C  
HETATM    7  C   UNL     1     -11.763  14.986  68.814  1.00  0.00    -0.334 C  
BRANCH   7   8
HETATM    8  C   UNL     1     -10.942  14.127  67.823  1.00  0.00    -0.262 C  
BRANCH   8   9
HETATM    9  N   UNL     1     -10.725  12.753  68.262  1.00  0.00    -0.231 N  
HETATM   10  C   UNL     1     -11.307  11.673  67.617  1.00  0.00    -0.295 C  
HETATM   11  H   UNL     1     -10.126  12.581  69.069  1.00  0.00     0.000 HD 
HETATM   12  O   UNL     1     -12.069  11.821  66.670  1.00  0.00    -0.527 OA 
BRANCH  10  13
HETATM   13  C   UNL     1     -10.971  10.311  68.161  1.00  0.00    -0.328 A  
HETATM   14  C   UNL     1     -11.058  10.027  69.544  1.00  0.00    -0.238 A  
HETATM   15  C   UNL     1     -10.718   8.744  70.005  1.00  0.00    -0.236 A  
HETATM   16  C   UNL     1     -10.514   9.312  67.279  1.00  0.00    -0.334 A  
HETATM   17  C   UNL     1     -10.189   8.043  67.763  1.00  0.00    -0.222 A  
HETATM   18  C   UNL     1     -10.285   7.755  69.122  1.00  0.00    -0.210 A  
BRANCH  14  19
HETATM   19  O   UNL     1     -11.498  11.020  70.378  1.00  0.00    -0.298 OA 
HETATM   20  C   UNL     1     -12.489  10.696  71.345  1.00  0.00    -0.390 C  
ENDBRANCH  14  19
BRANCH  17  21
HETATM   21  S   UNL     1      -9.578   6.801  66.659  1.00  0.00    -0.141 S  
HETATM   22  O   UNL     1      -8.857   5.808  67.418  1.00  0.00    -0.109 OA 
HETATM   23  N   UNL     1     -10.995   6.066  66.149  1.00  0.00    -0.563 N  
HETATM   24  O   UNL     1      -9.021   7.445  65.491  1.00  0.00    -0.042 OA 
HETATM   25  H1  UNL     1     -10.643   5.351  65.513  1.00  0.00     0.000 HD 
HETATM   26  H2  UNL     1     -11.958   6.278  66.408  1.00  0.00     0.000 HD 
ENDBRANCH  17  21
ENDBRANCH  10  13
ENDBRANCH   8   9
ENDBRANCH   7   8
ENDBRANCH   2   3
TORSDOF 6
ENDMDL
MODEL      111
REMARK 921   NORMALIZED FREE ENERGY PREDICTED BY IDOCK:   -4.70 KCAL/MOL
REMARK 922        TOTAL FREE ENERGY PREDICTED BY IDOCK:   -7.43 KCAL/MOL
REMARK 923 INTER-LIGAND FREE ENERGY PREDICTED BY IDOCK:   -6.36 KCAL/MOL
REMARK 924 INTRA-LIGAND FREE ENERGY PREDICTED BY IDOCK:   -1.07 KCAL/MOL
REMARK 927      BINDING AFFINITY PREDICTED BY RF-SCORE:    0.00 PKD
ROOT
HETATM    1  C   UNL     1      -8.511   2.952  64.329  1.00  0.00    -0.086 C  
HETATM    2  C   UNL     1      -9.352   4.204  64.096  1.00  0.00    -0.158 C  
ENDROOT
BRANCH   2   3
HETATM    3  N   UNL     1      -9.437   5.066  65.285  1.00  0.00    -0.102 NA 
HETATM    4  C   UNL     1      -9.718   4.304  66.505  1.00  0.00    -0.219 C  
HETATM    5  C   UNL     1      -9.321   5.270  67.600  1.00  0.00    -0.128 C  
HETATM    6  C   UNL     1      -8.063   5.922  67.058  1.00  0.00    -0.102 C  
HETATM    7  C   UNL     1      -8.159   5.786  65.530  1.00  0.00    -0.128 C  
BRANCH   7   8
HETATM    8  C   UNL     1      -8.131   7.162  64.827  1.00  0.00    -0.092 C  
BRANCH   8   9
HETATM    9  N   UNL     1      -9.036   8.149  65.407  1.00  0.00    -0.390 N  
HETATM   10  C   UNL     1      -8.769   9.508  65.367  1.00  0.00    -0.164 C  
HETATM   11  H   UNL     1      -9.893   7.828  65.857  1.00  0.00     0.000 HD 
HETATM   12  O   UNL     1      -7.736   9.948  64.878  1.00  0.00    -0.122 OA 
BRANCH  10  13
HETATM   13  C   UNL     1      -9.806  10.410  65.980  1.00  0.00    -0.289 A  
HETATM   14  C   UNL     1     -10.172  10.294  67.341  1.00  0.00    -0.218 A  
HETATM   15  C   UNL     1     -11.157  11.150  67.863  1.00  0.00    -0.331 A  
HETATM   16  C   UNL     1     -10.458  11.357  65.168  1.00  0.00    -0.351 A  
HETATM   17  C   UNL     1     -11.430  12.201  65.713  1.00  0.00    -0.361 A  
HETATM   18  C   UNL     1     -11.785  12.098  67.056  1.00  0.00    -0.373 A  
BRANCH  14  19
HETATM   19  O   UNL     1      -9.525   9.359  68.103  1.00  0.00    -0.134 OA 
HETATM   20  C   UNL     1     -10.218   8.801  69.213  1.00  0.00    -0.210 C  
ENDBRANCH  14  19
BRANCH  17  21
HETATM   21  S   UNL     1     -12.276  13.364  64.682  1.00  0.00    -0.404 S  
HETATM   22  O   UNL     1     -13.178  14.146  65.494  1.00  0.00    -0.688 OA 
HETATM   23  N   UNL     1     -11.034  14.394  64.232  1.00  0.00    -0.593 N  
HETATM   24  O   UNL     1     -12.699  12.697  63.471  1.00  0.00    -0.719 OA 
HETATM   25  H1  UNL     1     -11.522  15.064  63.638  1.00  0.00     0.000 HD 
HETATM   26  H2  UNL     1     -10.047  14.360  64.486  1.00  0.00     0.000 HD 
ENDBRANCH  17  21
ENDBRANCH  10  13
ENDBRANCH   8   9
ENDBRANCH   7   8
ENDBRANCH   2   3
TORSDOF 6
ENDMDL
MODEL      112
REMARK 921   NORMALIZED FREE ENERGY PREDICTED BY IDOCK:   -4.70 KCAL/MOL
REMARK 922        TOTAL FREE ENERGY PREDICTED BY IDOCK:   -7.42 KCAL/MOL
REMARK 923 INTER-LIGAND FREE ENERGY PREDICTED BY IDOCK:   -6.53 KCAL/MOL
REMARK 924 INTRA-LIGAND FREE ENERGY PREDICTED BY IDOCK:   -0.90 KCAL/MOL
REMARK 927      BINDING AFFINITY PREDICTED BY RF-SCORE:    0.00 PKD
ROOT
HETATM    1  C   UNL     1     -12.408   7.579  71.121  1.00  0.00    -0.321 C  
HETATM    2  C   UNL     1     -11.020   7.275  70.564  1.00  0.00    -0.260 C  
ENDROOT
BRANCH   2   3
HETATM    3  N   UNL     1     -10.326   8.477  70.074  1.00  0.00    -0.205 NA 
HETATM    4  C   UNL     1      -9.245   8.899  70.970  1.00  0.00    -0.245 C  
HETATM    5  C   UNL     1      -8.421   9.813  70.089  1.00  0.00    -0.204 C  
HETATM    6  C   UNL     1      -8.431   9.111  68.744  1.00  0.00    -0.130 C  
HETATM    7  C   UNL     1      -9.697   8.240  68.747  1.00  0.00    -0.157 C  
BRANCH   7   8
HETATM    8  C   UNL     1     -10.650   8.606  67.586  1.00  0.00    -0.203 C  
BRANCH   8   9
HETATM    9  N   UNL     1     -11.003  10.020  67.526  1.00  0.00    -0.345 N  
HETATM   10  C   UNL     1     -10.653  10.822  66.451  1.00  0.00    -0.203 C  
HETATM   11  H   UNL     1     -11.525  10.432  68.299  1.00  0.00     0.000 HD 
HETATM   12  O   UNL     1      -9.991  10.394  65.515  1.00  0.00    -0.249 OA 
BRANCH  10  13
HETATM   13  C   UNL     1     -11.110  12.255  66.512  1.00  0.00    -0.343 A  
HETATM   14  C   UNL     1     -12.119  12.745  65.650  1.00  0.00    -0.459 A  
HETATM   15  C   UNL     1     -12.500  14.095  65.735  1.00  0.00    -0.490 A  
HETATM   16  C   UNL     1     -10.486  13.137  67.415  1.00  0.00    -0.243 A  
HETATM   17  C   UNL     1     -10.889  14.473  67.484  1.00  0.00    -0.289 A  
HETATM   18  C   UNL     1     -11.890  14.957  66.646  1.00  0.00    -0.167 A  
BRANCH  14  19
HETATM   19  O   UNL     1     -12.702  11.865  64.778  1.00  0.00    -0.309 OA 
HETATM   20  C   UNL     1     -12.502  12.068  63.385  1.00  0.00    -0.509 C  
ENDBRANCH  14  19
BRANCH  17  21
HETATM   21  S   UNL     1     -10.076  15.590  68.592  1.00  0.00    -0.217 S  
HETATM   22  O   UNL     1     -10.746  16.867  68.550  1.00  0.00    -0.340 OA 
HETATM   23  N   UNL     1     -10.437  14.918  70.084  1.00  0.00    -0.485 N  
HETATM   24  O   UNL     1      -8.646  15.454  68.429  1.00  0.00    -0.154 OA 
HETATM   25  H1  UNL     1      -9.968  15.561  70.722  1.00  0.00     0.000 HD 
HETATM   26  H2  UNL     1     -10.982  14.083  70.298  1.00  0.00     0.000 HD 
ENDBRANCH  17  21
ENDBRANCH  10  13
ENDBRANCH   8   9
ENDBRANCH   7   8
ENDBRANCH   2   3
TORSDOF 6
ENDMDL
MODEL      113
REMARK 921   NORMALIZED FREE ENERGY PREDICTED BY IDOCK:   -4.69 KCAL/MOL
REMARK 922        TOTAL FREE ENERGY PREDICTED BY IDOCK:   -7.41 KCAL/MOL
REMARK 923 INTER-LIGAND FREE ENERGY PREDICTED BY IDOCK:   -7.14 KCAL/MOL
REMARK 924 INTRA-LIGAND FREE ENERGY PREDICTED BY IDOCK:   -0.27 KCAL/MOL
REMARK 927      BINDING AFFINITY PREDICTED BY RF-SCORE:    0.00 PKD
ROOT
HETATM    1  C   UNL     1      -7.291   7.319  73.023  1.00  0.00    -0.079 C  
HETATM    2  C   UNL     1      -8.596   8.082  73.238  1.00  0.00    -0.235 C  
ENDROOT
BRANCH   2   3
HETATM    3  N   UNL     1      -9.651   7.687  72.291  1.00  0.00    -0.157 NA 
HETATM    4  C   UNL     1     -10.718   6.918  72.937  1.00  0.00    -0.277 C  
HETATM    5  C   UNL     1     -11.851   7.016  71.938  1.00  0.00    -0.341 C  
HETATM    6  C   UNL     1     -11.764   8.448  71.445  1.00  0.00    -0.332 C  
HETATM    7  C   UNL     1     -10.306   8.873  71.678  1.00  0.00    -0.345 C  
BRANCH   7   8
HETATM    8  C   UNL     1      -9.612   9.295  70.362  1.00  0.00    -0.244 C  
BRANCH   8   9
HETATM    9  N   UNL     1     -10.064  10.578  69.833  1.00  0.00    -0.429 N  
HETATM   10  C   UNL     1     -10.829  10.671  68.681  1.00  0.00    -0.227 C  
HETATM   11  H   UNL     1      -9.809  11.433  70.326  1.00  0.00     0.000 HD 
HETATM   12  O   UNL     1     -11.130   9.683  68.024  1.00  0.00    -0.188 OA 
BRANCH  10  13
HETATM   13  C   UNL     1     -11.248  12.057  68.270  1.00  0.00    -0.315 A  
HETATM   14  C   UNL     1     -11.419  12.403  66.909  1.00  0.00    -0.360 A  
HETATM   15  C   UNL     1     -11.796  13.715  66.575  1.00  0.00    -0.441 A  
HETATM   16  C   UNL     1     -11.426  13.043  69.260  1.00  0.00    -0.348 A  
HETATM   17  C   UNL     1     -11.807  14.338  68.901  1.00  0.00    -0.336 A  
HETATM   18  C   UNL     1     -11.989  14.680  67.563  1.00  0.00    -0.309 A  
BRANCH  14  19
HETATM   19  O   UNL     1     -11.231  11.425  65.969  1.00  0.00    -0.234 OA 
HETATM   20  C   UNL     1     -10.672  11.797  64.716  1.00  0.00    -0.302 C  
ENDBRANCH  14  19
BRANCH  17  21
HETATM   21  S   UNL     1     -11.993  15.586  70.144  1.00  0.00    -0.376 S  
HETATM   22  O   UNL     1     -13.394  15.735  70.457  1.00  0.00    -0.418 OA 
HETATM   23  N   UNL     1     -11.288  14.854  71.475  1.00  0.00    -0.555 N  
HETATM   24  O   UNL     1     -11.145  16.709  69.811  1.00  0.00    -0.295 OA 
HETATM   25  H1  UNL     1     -11.395  15.572  72.191  1.00  0.00     0.000 HD 
HETATM   26  H2  UNL     1     -10.862  13.930  71.550  1.00  0.00     0.000 HD 
ENDBRANCH  17  21
ENDBRANCH  10  13
ENDBRANCH   8   9
ENDBRANCH   7   8
ENDBRANCH   2   3
TORSDOF 6
ENDMDL
MODEL      114
REMARK 921   NORMALIZED FREE ENERGY PREDICTED BY IDOCK:   -4.69 KCAL/MOL
REMARK 922        TOTAL FREE ENERGY PREDICTED BY IDOCK:   -7.41 KCAL/MOL
REMARK 923 INTER-LIGAND FREE ENERGY PREDICTED BY IDOCK:   -6.18 KCAL/MOL
REMARK 924 INTRA-LIGAND FREE ENERGY PREDICTED BY IDOCK:   -1.23 KCAL/MOL
REMARK 927      BINDING AFFINITY PREDICTED BY RF-SCORE:    0.00 PKD
ROOT
HETATM    1  C   UNL     1     -10.292  19.893  66.421  1.00  0.00    -0.611 C  
HETATM    2  C   UNL     1     -10.501  18.526  67.067  1.00  0.00    -0.402 C  
ENDROOT
BRANCH   2   3
HETATM    3  N   UNL     1      -9.271  17.719  67.108  1.00  0.00    -0.249 NA 
HETATM    4  C   UNL     1      -8.215  18.271  66.255  1.00  0.00    -0.212 C  
HETATM    5  C   UNL     1      -6.971  17.589  66.782  1.00  0.00    -0.239 C  
HETATM    6  C   UNL     1      -7.182  17.579  68.284  1.00  0.00    -0.217 C  
HETATM    7  C   UNL     1      -8.704  17.658  68.482  1.00  0.00    -0.285 C  
BRANCH   7   8
HETATM    8  C   UNL     1      -9.245  16.444  69.272  1.00  0.00    -0.155 C  
BRANCH   8   9
HETATM    9  N   UNL     1      -9.661  15.323  68.436  1.00  0.00    -0.209 N  
HETATM   10  C   UNL     1      -8.832  14.241  68.188  1.00  0.00    -0.183 C  
HETATM   11  H   UNL     1     -10.592  15.337  68.019  1.00  0.00     0.000 HD 
HETATM   12  O   UNL     1      -7.690  14.189  68.626  1.00  0.00    -0.128 OA 
BRANCH  10  13
HETATM   13  C   UNL     1      -9.405  13.144  67.331  1.00  0.00    -0.213 A  
HETATM   14  C   UNL     1      -9.980  13.419  66.068  1.00  0.00    -0.293 A  
HETATM   15  C   UNL     1     -10.516  12.363  65.312  1.00  0.00    -0.316 A  
HETATM   16  C   UNL     1      -9.411  11.823  67.818  1.00  0.00    -0.181 A  
HETATM   17  C   UNL     1      -9.944  10.790  67.043  1.00  0.00    -0.197 A  
HETATM   18  C   UNL     1     -10.500  11.055  65.794  1.00  0.00    -0.290 A  
BRANCH  14  19
HETATM   19  O   UNL     1      -9.966  14.715  65.624  1.00  0.00    -0.324 OA 
HETATM   20  C   UNL     1     -11.047  15.158  64.812  1.00  0.00    -0.382 C  
ENDBRANCH  14  19
BRANCH  17  21
HETATM   21  S   UNL     1      -9.986   9.137  67.674  1.00  0.00    -0.209 S  
HETATM   22  O   UNL     1      -8.746   8.863  68.361  1.00  0.00    -0.133 OA 
HETATM   23  N   UNL     1     -11.165   9.249  68.859  1.00  0.00    -0.444 N  
HETATM   24  O   UNL     1     -10.524   8.260  66.658  1.00  0.00    -0.305 OA 
HETATM   25  H1  UNL     1     -11.189   8.297  69.223  1.00  0.00     0.000 HD 
HETATM   26  H2  UNL     1     -11.715  10.059  69.142  1.00  0.00     0.000 HD 
ENDBRANCH  17  21
ENDBRANCH  10  13
ENDBRANCH   8   9
ENDBRANCH   7   8
ENDBRANCH   2   3
TORSDOF 6
ENDMDL
MODEL      115
REMARK 921   NORMALIZED FREE ENERGY PREDICTED BY IDOCK:   -4.67 KCAL/MOL
REMARK 922        TOTAL FREE ENERGY PREDICTED BY IDOCK:   -7.39 KCAL/MOL
REMARK 923 INTER-LIGAND FREE ENERGY PREDICTED BY IDOCK:   -6.58 KCAL/MOL
REMARK 924 INTRA-LIGAND FREE ENERGY PREDICTED BY IDOCK:   -0.81 KCAL/MOL
REMARK 927      BINDING AFFINITY PREDICTED BY RF-SCORE:    0.00 PKD
ROOT
HETATM    1  C   UNL     1     -13.015  13.994  65.773  1.00  0.00    -0.297 C  
HETATM    2  C   UNL     1     -12.213  14.160  67.061  1.00  0.00    -0.339 C  
ENDROOT
BRANCH   2   3
HETATM    3  N   UNL     1     -10.801  14.495  66.816  1.00  0.00    -0.299 NA 
HETATM    4  C   UNL     1     -10.589  15.939  66.674  1.00  0.00    -0.305 C  
HETATM    5  C   UNL     1      -9.096  16.077  66.884  1.00  0.00    -0.251 C  
HETATM    6  C   UNL     1      -8.804  15.097  68.004  1.00  0.00    -0.170 C  
HETATM    7  C   UNL     1      -9.933  14.056  67.940  1.00  0.00    -0.237 C  
BRANCH   7   8
HETATM    8  C   UNL     1      -9.386  12.626  67.719  1.00  0.00    -0.198 C  
BRANCH   8   9
HETATM    9  N   UNL     1      -9.776  11.671  68.750  1.00  0.00    -0.369 N  
HETATM   10  C   UNL     1     -10.886  10.852  68.614  1.00  0.00    -0.217 C  
HETATM   11  H   UNL     1      -9.214  11.603  69.598  1.00  0.00     0.000 HD 
HETATM   12  O   UNL     1     -11.622  10.919  67.638  1.00  0.00    -0.531 OA 
BRANCH  10  13
HETATM   13  C   UNL     1     -11.151   9.895  69.744  1.00  0.00    -0.294 A  
HETATM   14  C   UNL     1     -11.881  10.289  70.890  1.00  0.00    -0.377 A  
HETATM   15  C   UNL     1     -12.088   9.362  71.926  1.00  0.00    -0.427 A  
HETATM   16  C   UNL     1     -10.619   8.592  69.680  1.00  0.00    -0.219 A  
HETATM   17  C   UNL     1     -10.846   7.688  70.721  1.00  0.00    -0.239 A  
HETATM   18  C   UNL     1     -11.574   8.069  71.845  1.00  0.00    -0.348 A  
BRANCH  14  19
HETATM   19  O   UNL     1     -12.379  11.564  70.927  1.00  0.00    -0.377 OA 
HETATM   20  C   UNL     1     -13.376  11.868  71.895  1.00  0.00    -0.300 C  
ENDBRANCH  14  19
BRANCH  17  21
HETATM   21  S   UNL     1     -10.143   6.065  70.656  1.00  0.00    -0.203 S  
HETATM   22  O   UNL     1      -8.705   6.174  70.602  1.00  0.00    -0.136 OA 
HETATM   23  N   UNL     1     -10.513   5.467  72.176  1.00  0.00    -0.213 N  
HETATM   24  O   UNL     1     -10.899   5.264  69.719  1.00  0.00    -0.235 OA 
HETATM   25  H1  UNL     1     -10.109   4.532  72.139  1.00  0.00     0.000 HD 
HETATM   26  H2  UNL     1     -11.013   5.921  72.941  1.00  0.00     0.000 HD 
ENDBRANCH  17  21
ENDBRANCH  10  13
ENDBRANCH   8   9
ENDBRANCH   7   8
ENDBRANCH   2   3
TORSDOF 6
ENDMDL
MODEL      116
REMARK 921   NORMALIZED FREE ENERGY PREDICTED BY IDOCK:   -4.66 KCAL/MOL
REMARK 922        TOTAL FREE ENERGY PREDICTED BY IDOCK:   -7.38 KCAL/MOL
REMARK 923 INTER-LIGAND FREE ENERGY PREDICTED BY IDOCK:   -7.35 KCAL/MOL
REMARK 924 INTRA-LIGAND FREE ENERGY PREDICTED BY IDOCK:   -0.03 KCAL/MOL
REMARK 927      BINDING AFFINITY PREDICTED BY RF-SCORE:    0.00 PKD
ROOT
HETATM    1  C   UNL     1     -10.565  19.722  66.169  1.00  0.00    -0.569 C  
HETATM    2  C   UNL     1      -9.078  19.391  66.081  1.00  0.00    -0.284 C  
ENDROOT
BRANCH   2   3
HETATM    3  N   UNL     1      -8.738  18.112  66.724  1.00  0.00    -0.256 NA 
HETATM    4  C   UNL     1      -7.373  17.678  66.412  1.00  0.00    -0.288 C  
HETATM    5  C   UNL     1      -7.097  16.648  67.486  1.00  0.00    -0.169 C  
HETATM    6  C   UNL     1      -7.729  17.252  68.725  1.00  0.00    -0.261 C  
HETATM    7  C   UNL     1      -8.814  18.209  68.206  1.00  0.00    -0.283 C  
BRANCH   7   8
HETATM    8  C   UNL     1     -10.217  17.830  68.735  1.00  0.00    -0.373 C  
BRANCH   8   9
HETATM    9  N   UNL     1     -10.543  16.415  68.602  1.00  0.00    -0.285 N  
HETATM   10  C   UNL     1     -11.041  15.671  69.660  1.00  0.00    -0.299 C  
HETATM   11  H   UNL     1     -10.401  15.958  67.701  1.00  0.00     0.000 HD 
HETATM   12  O   UNL     1     -11.193  16.155  70.774  1.00  0.00    -0.369 OA 
BRANCH  10  13
HETATM   13  C   UNL     1     -11.361  14.229  69.369  1.00  0.00    -0.325 A  
HETATM   14  C   UNL     1     -11.981  13.402  70.334  1.00  0.00    -0.285 A  
HETATM   15  C   UNL     1     -12.244  12.058  70.020  1.00  0.00    -0.280 A  
HETATM   16  C   UNL     1     -10.991  13.681  68.125  1.00  0.00    -0.273 A  
HETATM   17  C   UNL     1     -11.272  12.343  67.836  1.00  0.00    -0.266 A  
HETATM   18  C   UNL     1     -11.893  11.528  68.778  1.00  0.00    -0.394 A  
BRANCH  14  19
HETATM   19  O   UNL     1     -12.321  13.961  71.537  1.00  0.00    -0.323 OA 
HETATM   20  C   UNL     1     -13.673  13.856  71.967  1.00  0.00    -0.486 C  
ENDBRANCH  14  19
BRANCH  17  21
HETATM   21  S   UNL     1     -10.771  11.646  66.287  1.00  0.00    -0.280 S  
HETATM   22  O   UNL     1     -11.741  11.997  65.277  1.00  0.00    -0.333 OA 
HETATM   23  N   UNL     1      -9.391  12.530  65.941  1.00  0.00    -0.435 N  
HETATM   24  O   UNL     1     -10.330  10.287  66.505  1.00  0.00    -0.232 OA 
HETATM   25  H1  UNL     1      -9.103  12.129  65.049  1.00  0.00     0.000 HD 
HETATM   26  H2  UNL     1      -8.953  13.275  66.482  1.00  0.00     0.000 HD 
ENDBRANCH  17  21
ENDBRANCH  10  13
ENDBRANCH   8   9
ENDBRANCH   7   8
ENDBRANCH   2   3
TORSDOF 6
ENDMDL
MODEL      117
REMARK 921   NORMALIZED FREE ENERGY PREDICTED BY IDOCK:   -4.65 KCAL/MOL
REMARK 922        TOTAL FREE ENERGY PREDICTED BY IDOCK:   -7.37 KCAL/MOL
REMARK 923 INTER-LIGAND FREE ENERGY PREDICTED BY IDOCK:   -6.43 KCAL/MOL
REMARK 924 INTRA-LIGAND FREE ENERGY PREDICTED BY IDOCK:   -0.94 KCAL/MOL
REMARK 927      BINDING AFFINITY PREDICTED BY RF-SCORE:    0.00 PKD
ROOT
HETATM    1  C   UNL     1      -8.234   7.249  69.178  1.00  0.00    -0.122 C  
HETATM    2  C   UNL     1      -8.425   7.780  70.596  1.00  0.00    -0.126 C  
ENDROOT
BRANCH   2   3
HETATM    3  N   UNL     1      -9.699   7.356  71.199  1.00  0.00    -0.164 NA 
HETATM    4  C   UNL     1      -9.512   6.737  72.515  1.00  0.00    -0.139 C  
HETATM    5  C   UNL     1     -10.901   6.801  73.113  1.00  0.00    -0.315 C  
HETATM    6  C   UNL     1     -11.412   8.160  72.675  1.00  0.00    -0.454 C  
HETATM    7  C   UNL     1     -10.615   8.508  71.408  1.00  0.00    -0.245 C  
BRANCH   7   8
HETATM    8  C   UNL     1     -11.540   8.735  70.190  1.00  0.00     0.065 C  
BRANCH   8   9
HETATM    9  N   UNL     1     -11.216   9.922  69.406  1.00  0.00    -0.378 N  
HETATM   10  C   UNL     1     -10.809   9.843  68.084  1.00  0.00    -0.234 C  
HETATM   11  H   UNL     1     -11.292  10.839  69.845  1.00  0.00     0.000 HD 
HETATM   12  O   UNL     1     -10.660   8.768  67.517  1.00  0.00    -0.267 OA 
BRANCH  10  13
HETATM   13  C   UNL     1     -10.537  11.151  67.391  1.00  0.00    -0.272 A  
HETATM   14  C   UNL     1      -9.369  11.901  67.663  1.00  0.00    -0.183 A  
HETATM   15  C   UNL     1      -9.168  13.125  67.002  1.00  0.00    -0.233 A  
HETATM   16  C   UNL     1     -11.490  11.662  66.488  1.00  0.00    -0.260 A  
HETATM   17  C   UNL     1     -11.262  12.878  65.839  1.00  0.00    -0.293 A  
HETATM   18  C   UNL     1     -10.108  13.613  66.094  1.00  0.00    -0.311 A  
BRANCH  14  19
HETATM   19  O   UNL     1      -8.465  11.383  68.551  1.00  0.00    -0.149 OA 
HETATM   20  C   UNL     1      -7.081  11.591  68.299  1.00  0.00    -0.080 C  
ENDBRANCH  14  19
BRANCH  17  21
HETATM   21  S   UNL     1     -12.479  13.536  64.734  1.00  0.00    -0.324 S  
HETATM   22  O   UNL     1     -13.649  13.912  65.491  1.00  0.00    -0.579 OA 
HETATM   23  N   UNL     1     -11.759  14.966  64.241  1.00  0.00    -0.670 N  
HETATM   24  O   UNL     1     -12.548  12.698  63.558  1.00  0.00    -0.696 OA 
HETATM   25  H1  UNL     1     -12.460  15.345  63.604  1.00  0.00     0.000 HD 
HETATM   26  H2  UNL     1     -10.855  15.355  64.507  1.00  0.00     0.000 HD 
ENDBRANCH  17  21
ENDBRANCH  10  13
ENDBRANCH   8   9
ENDBRANCH   7   8
ENDBRANCH   2   3
TORSDOF 6
ENDMDL
MODEL      118
REMARK 921   NORMALIZED FREE ENERGY PREDICTED BY IDOCK:   -4.65 KCAL/MOL
REMARK 922        TOTAL FREE ENERGY PREDICTED BY IDOCK:   -7.36 KCAL/MOL
REMARK 923 INTER-LIGAND FREE ENERGY PREDICTED BY IDOCK:   -6.45 KCAL/MOL
REMARK 924 INTRA-LIGAND FREE ENERGY PREDICTED BY IDOCK:   -0.91 KCAL/MOL
REMARK 927      BINDING AFFINITY PREDICTED BY RF-SCORE:    0.00 PKD
ROOT
HETATM    1  C   UNL     1      -8.778  16.112  66.163  1.00  0.00    -0.358 C  
HETATM    2  C   UNL     1     -10.190  15.541  66.054  1.00  0.00    -0.330 C  
ENDROOT
BRANCH   2   3
HETATM    3  N   UNL     1     -10.454  14.478  67.035  1.00  0.00    -0.267 NA 
HETATM    4  C   UNL     1     -11.172  14.974  68.213  1.00  0.00    -0.299 C  
HETATM    5  C   UNL     1     -11.714  13.704  68.832  1.00  0.00    -0.377 C  
HETATM    6  C   UNL     1     -12.145  12.882  67.632  1.00  0.00    -0.239 C  
HETATM    7  C   UNL     1     -11.300  13.399  66.458  1.00  0.00    -0.320 C  
BRANCH   7   8
HETATM    8  C   UNL     1     -10.445  12.277  65.825  1.00  0.00    -0.255 C  
BRANCH   8   9
HETATM    9  N   UNL     1     -10.703  10.949  66.373  1.00  0.00    -0.229 N  
HETATM   10  C   UNL     1      -9.680  10.118  66.802  1.00  0.00    -0.187 C  
HETATM   11  H   UNL     1     -11.666  10.622  66.442  1.00  0.00     0.000 HD 
HETATM   12  O   UNL     1      -8.503  10.440  66.704  1.00  0.00    -0.124 OA 
BRANCH  10  13
HETATM   13  C   UNL     1     -10.096   8.789  67.371  1.00  0.00    -0.289 A  
HETATM   14  C   UNL     1     -10.656   8.683  68.666  1.00  0.00    -0.129 A  
HETATM   15  C   UNL     1     -11.014   7.416  69.159  1.00  0.00    -0.057 A  
HETATM   16  C   UNL     1      -9.878   7.620  66.616  1.00  0.00    -0.283 A  
HETATM   17  C   UNL     1     -10.250   6.374  67.127  1.00  0.00    -0.199 A  
HETATM   18  C   UNL     1     -10.813   6.266  68.396  1.00  0.00    -0.394 A  
BRANCH  14  19
HETATM   19  O   UNL     1     -10.849   9.836  69.379  1.00  0.00    -0.226 OA 
HETATM   20  C   UNL     1     -10.824   9.760  70.799  1.00  0.00    -0.333 C  
ENDBRANCH  14  19
BRANCH  17  21
HETATM   21  S   UNL     1      -9.939   4.903  66.193  1.00  0.00    -0.250 S  
HETATM   22  O   UNL     1      -9.875   3.776  67.093  1.00  0.00    -0.175 OA 
HETATM   23  N   UNL     1     -11.365   4.735  65.330  1.00  0.00    -0.977 N  
HETATM   24  O   UNL     1      -8.911   5.177  65.214  1.00  0.00    -0.156 OA 
HETATM   25  H1  UNL     1     -11.186   3.887  64.792  1.00  0.00     0.000 HD 
HETATM   26  H2  UNL     1     -12.196   5.326  65.340  1.00  0.00     0.000 HD 
ENDBRANCH  17  21
ENDBRANCH  10  13
ENDBRANCH   8   9
ENDBRANCH   7   8
ENDBRANCH   2   3
TORSDOF 6
ENDMDL
MODEL      119
REMARK 921   NORMALIZED FREE ENERGY PREDICTED BY IDOCK:   -4.65 KCAL/MOL
REMARK 922        TOTAL FREE ENERGY PREDICTED BY IDOCK:   -7.36 KCAL/MOL
REMARK 923 INTER-LIGAND FREE ENERGY PREDICTED BY IDOCK:   -6.21 KCAL/MOL
REMARK 924 INTRA-LIGAND FREE ENERGY PREDICTED BY IDOCK:   -1.15 KCAL/MOL
REMARK 927      BINDING AFFINITY PREDICTED BY RF-SCORE:    0.00 PKD
ROOT
HETATM    1  C   UNL     1     -12.443  13.176  65.494  1.00  0.00    -0.516 C  
HETATM    2  C   UNL     1     -11.325  12.177  65.782  1.00  0.00    -0.354 C  
ENDROOT
BRANCH   2   3
HETATM    3  N   UNL     1     -10.857  12.228  67.176  1.00  0.00    -0.236 NA 
HETATM    4  C   UNL     1     -11.782  11.562  68.098  1.00  0.00    -0.287 C  
HETATM    5  C   UNL     1     -10.926  11.342  69.326  1.00  0.00    -0.297 C  
HETATM    6  C   UNL     1      -9.579  10.946  68.752  1.00  0.00    -0.195 C  
HETATM    7  C   UNL     1      -9.546  11.544  67.337  1.00  0.00    -0.168 C  
BRANCH   7   8
HETATM    8  C   UNL     1      -8.362  12.522  67.153  1.00  0.00    -0.179 C  
BRANCH   8   9
HETATM    9  N   UNL     1      -8.725  13.930  67.274  1.00  0.00    -0.207 N  
HETATM   10  C   UNL     1      -8.246  14.728  68.300  1.00  0.00    -0.142 C  
HETATM   11  H   UNL     1      -9.352  14.340  66.581  1.00  0.00     0.000 HD 
HETATM   12  O   UNL     1      -7.526  14.281  69.184  1.00  0.00    -0.123 OA 
BRANCH  10  13
HETATM   13  C   UNL     1      -8.682  16.169  68.282  1.00  0.00    -0.180 A  
HETATM   14  C   UNL     1     -10.048  16.526  68.201  1.00  0.00    -0.255 A  
HETATM   15  C   UNL     1     -10.402  17.886  68.172  1.00  0.00    -0.395 A  
HETATM   16  C   UNL     1      -7.703  17.182  68.298  1.00  0.00    -0.220 A  
HETATM   17  C   UNL     1      -8.083  18.526  68.275  1.00  0.00    -0.303 A  
HETATM   18  C   UNL     1      -9.428  18.883  68.208  1.00  0.00    -0.395 A  
BRANCH  14  19
HETATM   19  O   UNL     1     -10.975  15.519  68.180  1.00  0.00    -0.287 OA 
HETATM   20  C   UNL     1     -11.691  15.239  69.376  1.00  0.00    -0.341 C  
ENDBRANCH  14  19
BRANCH  17  21
HETATM   21  S   UNL     1      -6.851  19.797  68.256  1.00  0.00    -0.299 S  
HETATM   22  O   UNL     1      -6.509  20.143  69.615  1.00  0.00    -0.336 OA 
HETATM   23  N   UNL     1      -5.527  18.984  67.630  1.00  0.00    -0.171 N  
HETATM   24  O   UNL     1      -7.214  20.788  67.268  1.00  0.00    -0.328 OA 
HETATM   25  H1  UNL     1      -4.817  19.716  67.619  1.00  0.00     0.000 HD 
HETATM   26  H2  UNL     1      -5.451  18.011  67.336  1.00  0.00     0.000 HD 
ENDBRANCH  17  21
ENDBRANCH  10  13
ENDBRANCH   8   9
ENDBRANCH   7   8
ENDBRANCH   2   3
TORSDOF 6
ENDMDL
MODEL      120
REMARK 921   NORMALIZED FREE ENERGY PREDICTED BY IDOCK:   -4.64 KCAL/MOL
REMARK 922        TOTAL FREE ENERGY PREDICTED BY IDOCK:   -7.34 KCAL/MOL
REMARK 923 INTER-LIGAND FREE ENERGY PREDICTED BY IDOCK:   -6.75 KCAL/MOL
REMARK 924 INTRA-LIGAND FREE ENERGY PREDICTED BY IDOCK:   -0.59 KCAL/MOL
REMARK 927      BINDING AFFINITY PREDICTED BY RF-SCORE:    0.00 PKD
ROOT
HETATM    1  C   UNL     1     -12.274  11.989  63.461  1.00  0.00    -0.653 C  
HETATM    2  C   UNL     1     -10.780  11.682  63.509  1.00  0.00    -0.428 C  
ENDROOT
BRANCH   2   3
HETATM    3  N   UNL     1     -10.397  10.893  64.690  1.00  0.00    -0.337 NA 
HETATM    4  C   UNL     1      -9.582   9.726  64.339  1.00  0.00    -0.090 C  
HETATM    5  C   UNL     1      -8.951   9.350  65.662  1.00  0.00    -0.236 C  
HETATM    6  C   UNL     1      -8.616  10.691  66.288  1.00  0.00    -0.156 C  
HETATM    7  C   UNL     1      -9.583  11.696  65.642  1.00  0.00    -0.229 C  
BRANCH   7   8
HETATM    8  C   UNL     1     -10.466  12.404  66.696  1.00  0.00    -0.229 C  
BRANCH   8   9
HETATM    9  N   UNL     1      -9.889  13.634  67.229  1.00  0.00    -0.236 N  
HETATM   10  C   UNL     1      -9.693  14.758  66.443  1.00  0.00    -0.291 C  
HETATM   11  H   UNL     1      -9.622  13.668  68.213  1.00  0.00     0.000 HD 
HETATM   12  O   UNL     1      -9.955  14.762  65.246  1.00  0.00    -0.361 OA 
BRANCH  10  13
HETATM   13  C   UNL     1      -9.116  15.963  67.135  1.00  0.00    -0.226 A  
HETATM   14  C   UNL     1      -8.101  15.838  68.112  1.00  0.00    -0.140 A  
HETATM   15  C   UNL     1      -7.606  16.993  68.741  1.00  0.00    -0.243 A  
HETATM   16  C   UNL     1      -9.633  17.239  66.836  1.00  0.00    -0.272 A  
HETATM   17  C   UNL     1      -9.118  18.372  67.471  1.00  0.00    -0.271 A  
HETATM   18  C   UNL     1      -8.110  18.254  68.425  1.00  0.00    -0.322 A  
BRANCH  14  19
HETATM   19  O   UNL     1      -7.624  14.584  68.386  1.00  0.00    -0.108 OA 
HETATM   20  C   UNL     1      -6.332  14.237  67.905  1.00  0.00    -0.163 C  
ENDBRANCH  14  19
BRANCH  17  21
HETATM   21  S   UNL     1      -9.795  19.970  67.123  1.00  0.00    -0.455 S  
HETATM   22  O   UNL     1     -10.515  20.440  68.282  1.00  0.00    -0.256 OA 
HETATM   23  N   UNL     1      -8.415  20.913  67.012  1.00  0.00    -0.563 N  
HETATM   24  O   UNL     1     -10.375  19.955  65.799  1.00  0.00    -0.489 OA 
HETATM   25  H1  UNL     1      -8.805  21.833  66.811  1.00  0.00     0.000 HD 
HETATM   26  H2  UNL     1      -7.439  20.638  67.117  1.00  0.00     0.000 HD 
ENDBRANCH  17  21
ENDBRANCH  10  13
ENDBRANCH   8   9
ENDBRANCH   7   8
ENDBRANCH   2   3
TORSDOF 6
ENDMDL
MODEL      121
REMARK 921   NORMALIZED FREE ENERGY PREDICTED BY IDOCK:   -4.62 KCAL/MOL
REMARK 922        TOTAL FREE ENERGY PREDICTED BY IDOCK:   -7.32 KCAL/MOL
REMARK 923 INTER-LIGAND FREE ENERGY PREDICTED BY IDOCK:   -6.30 KCAL/MOL
REMARK 924 INTRA-LIGAND FREE ENERGY PREDICTED BY IDOCK:   -1.02 KCAL/MOL
REMARK 927      BINDING AFFINITY PREDICTED BY RF-SCORE:    0.00 PKD
ROOT
HETATM    1  C   UNL     1      -6.629  14.103  68.263  1.00  0.00    -0.114 C  
HETATM    2  C   UNL     1      -7.583  15.135  68.858  1.00  0.00    -0.148 C  
ENDROOT
BRANCH   2   3
HETATM    3  N   UNL     1      -8.728  15.428  67.981  1.00  0.00    -0.159 NA 
HETATM    4  C   UNL     1      -8.318  16.071  66.729  1.00  0.00    -0.270 C  
HETATM    5  C   UNL     1      -9.525  15.866  65.839  1.00  0.00    -0.372 C  
HETATM    6  C   UNL     1      -9.978  14.458  66.176  1.00  0.00    -0.328 C  
HETATM    7  C   UNL     1      -9.451  14.187  67.594  1.00  0.00    -0.213 C  
BRANCH   7   8
HETATM    8  C   UNL     1     -10.595  13.858  68.580  1.00  0.00    -0.257 C  
BRANCH   8   9
HETATM    9  N   UNL     1     -10.588  12.482  69.066  1.00  0.00    -0.419 N  
HETATM   10  C   UNL     1     -11.200  11.452  68.371  1.00  0.00    -0.263 C  
HETATM   11  H   UNL     1     -10.116  12.272  69.946  1.00  0.00     0.000 HD 
HETATM   12  O   UNL     1     -11.817  11.652  67.332  1.00  0.00    -0.603 OA 
BRANCH  10  13
HETATM   13  C   UNL     1     -11.088  10.079  68.978  1.00  0.00    -0.221 A  
HETATM   14  C   UNL     1     -11.444   9.836  70.325  1.00  0.00    -0.255 A  
HETATM   15  C   UNL     1     -11.306   8.539  70.849  1.00  0.00    -0.304 A  
HETATM   16  C   UNL     1     -10.571   9.025  68.199  1.00  0.00    -0.225 A  
HETATM   17  C   UNL     1     -10.451   7.744  68.743  1.00  0.00    -0.181 A  
HETATM   18  C   UNL     1     -10.812   7.497  70.065  1.00  0.00    -0.260 A  
BRANCH  14  19
HETATM   19  O   UNL     1     -11.936  10.882  71.058  1.00  0.00    -0.326 OA 
HETATM   20  C   UNL     1     -13.248  10.769  71.593  1.00  0.00    -0.383 C  
ENDBRANCH  14  19
BRANCH  17  21
HETATM   21  S   UNL     1      -9.765   6.429  67.775  1.00  0.00    -0.124 S  
HETATM   22  O   UNL     1      -9.586   5.269  68.615  1.00  0.00    -0.122 OA 
HETATM   23  N   UNL     1     -11.030   6.069  66.739  1.00  0.00    -0.641 N  
HETATM   24  O   UNL     1      -8.708   6.961  66.945  1.00  0.00    -0.113 OA 
HETATM   25  H1  UNL     1     -10.635   5.311  66.181  1.00  0.00     0.000 HD 
HETATM   26  H2  UNL     1     -11.955   6.495  66.680  1.00  0.00     0.000 HD 
ENDBRANCH  17  21
ENDBRANCH  10  13
ENDBRANCH   8   9
ENDBRANCH   7   8
ENDBRANCH   2   3
TORSDOF 6
ENDMDL
MODEL      122
REMARK 921   NORMALIZED FREE ENERGY PREDICTED BY IDOCK:   -4.57 KCAL/MOL
REMARK 922        TOTAL FREE ENERGY PREDICTED BY IDOCK:   -7.26 KCAL/MOL
REMARK 923 INTER-LIGAND FREE ENERGY PREDICTED BY IDOCK:   -6.43 KCAL/MOL
REMARK 924 INTRA-LIGAND FREE ENERGY PREDICTED BY IDOCK:   -0.83 KCAL/MOL
REMARK 927      BINDING AFFINITY PREDICTED BY RF-SCORE:    0.00 PKD
ROOT
HETATM    1  C   UNL     1     -10.805  19.571  66.908  1.00  0.00    -0.523 C  
HETATM    2  C   UNL     1     -10.172  18.354  67.577  1.00  0.00    -0.374 C  
ENDROOT
BRANCH   2   3
HETATM    3  N   UNL     1      -9.216  17.654  66.704  1.00  0.00    -0.263 NA 
HETATM    4  C   UNL     1      -7.973  18.409  66.523  1.00  0.00    -0.271 C  
HETATM    5  C   UNL     1      -7.016  17.356  66.007  1.00  0.00    -0.246 C  
HETATM    6  C   UNL     1      -7.368  16.127  66.824  1.00  0.00    -0.220 C  
HETATM    7  C   UNL     1      -8.824  16.336  67.270  1.00  0.00    -0.188 C  
BRANCH   7   8
HETATM    8  C   UNL     1      -9.747  15.200  66.772  1.00  0.00    -0.242 C  
BRANCH   8   9
HETATM    9  N   UNL     1     -10.178  14.279  67.818  1.00  0.00    -0.233 N  
HETATM   10  C   UNL     1     -10.747  13.049  67.528  1.00  0.00    -0.238 C  
HETATM   11  H   UNL     1     -10.057  14.548  68.794  1.00  0.00     0.000 HD 
HETATM   12  O   UNL     1     -10.957  12.690  66.376  1.00  0.00    -0.260 OA 
BRANCH  10  13
HETATM   13  C   UNL     1     -11.117  12.191  68.708  1.00  0.00    -0.297 A  
HETATM   14  C   UNL     1     -11.971  12.669  69.729  1.00  0.00    -0.295 A  
HETATM   15  C   UNL     1     -12.274  11.834  70.818  1.00  0.00    -0.424 A  
HETATM   16  C   UNL     1     -10.563  10.901  68.820  1.00  0.00    -0.231 A  
HETATM   17  C   UNL     1     -10.886  10.089  69.910  1.00  0.00    -0.285 A  
HETATM   18  C   UNL     1     -11.736  10.551  70.911  1.00  0.00    -0.431 A  
BRANCH  14  19
HETATM   19  O   UNL     1     -12.489  13.929  69.596  1.00  0.00    -0.300 OA 
HETATM   20  C   UNL     1     -12.490  14.779  70.736  1.00  0.00    -0.337 C  
ENDBRANCH  14  19
BRANCH  17  21
HETATM   21  S   UNL     1     -10.157   8.484  70.069  1.00  0.00    -0.197 S  
HETATM   22  O   UNL     1     -10.086   7.867  68.765  1.00  0.00    -0.183 OA 
HETATM   23  N   UNL     1      -8.582   8.861  70.497  1.00  0.00    -0.164 N  
HETATM   24  O   UNL     1     -10.734   7.818  71.215  1.00  0.00    -0.225 OA 
HETATM   25  H1  UNL     1      -8.162   7.936  70.589  1.00  0.00     0.000 HD 
HETATM   26  H2  UNL     1      -8.155   9.777  70.632  1.00  0.00     0.000 HD 
ENDBRANCH  17  21
ENDBRANCH  10  13
ENDBRANCH   8   9
ENDBRANCH   7   8
ENDBRANCH   2   3
TORSDOF 6
ENDMDL
MODEL      123
REMARK 921   NORMALIZED FREE ENERGY PREDICTED BY IDOCK:   -4.57 KCAL/MOL
REMARK 922        TOTAL FREE ENERGY PREDICTED BY IDOCK:   -7.25 KCAL/MOL
REMARK 923 INTER-LIGAND FREE ENERGY PREDICTED BY IDOCK:   -6.60 KCAL/MOL
REMARK 924 INTRA-LIGAND FREE ENERGY PREDICTED BY IDOCK:   -0.66 KCAL/MOL
REMARK 927      BINDING AFFINITY PREDICTED BY RF-SCORE:    0.00 PKD
ROOT
HETATM    1  C   UNL     1      -9.862  10.347  69.570  1.00  0.00    -0.211 C  
HETATM    2  C   UNL     1     -11.213  10.594  68.905  1.00  0.00    -0.275 C  
ENDROOT
BRANCH   2   3
HETATM    3  N   UNL     1     -12.341  10.482  69.842  1.00  0.00    -0.236 NA 
HETATM    4  C   UNL     1     -12.498   9.121  70.363  1.00  0.00     0.371 C  
HETATM    5  C   UNL     1     -13.366   9.331  71.586  1.00  0.00    -0.461 C  
HETATM    6  C   UNL     1     -12.820  10.610  72.191  1.00  0.00    -0.239 C  
HETATM    7  C   UNL     1     -12.154  11.361  71.028  1.00  0.00    -0.198 C  
BRANCH   7   8
HETATM    8  C   UNL     1     -12.781  12.758  70.811  1.00  0.00    -0.136 C  
BRANCH   8   9
HETATM    9  N   UNL     1     -12.125  13.554  69.779  1.00  0.00    -0.328 N  
HETATM   10  C   UNL     1     -12.231  14.935  69.735  1.00  0.00    -0.287 C  
HETATM   11  H   UNL     1     -11.570  13.079  69.067  1.00  0.00     0.000 HD 
HETATM   12  O   UNL     1     -12.917  15.556  70.537  1.00  0.00    -0.427 OA 
BRANCH  10  13
HETATM   13  C   UNL     1     -11.476  15.626  68.631  1.00  0.00    -0.381 A  
HETATM   14  C   UNL     1     -11.381  15.063  67.337  1.00  0.00    -0.332 A  
HETATM   15  C   UNL     1     -10.652  15.740  66.345  1.00  0.00    -0.307 A  
HETATM   16  C   UNL     1     -10.812  16.837  68.907  1.00  0.00    -0.301 A  
HETATM   17  C   UNL     1     -10.100  17.494  67.901  1.00  0.00    -0.330 A  
HETATM   18  C   UNL     1     -10.013  16.949  66.622  1.00  0.00    -0.302 A  
BRANCH  14  19
HETATM   19  O   UNL     1     -12.031  13.881  67.102  1.00  0.00    -0.392 OA 
HETATM   20  C   UNL     1     -11.700  13.156  65.924  1.00  0.00    -0.384 C  
ENDBRANCH  14  19
BRANCH  17  21
HETATM   21  S   UNL     1      -9.234  18.995  68.260  1.00  0.00    -0.349 S  
HETATM   22  O   UNL     1      -7.820  18.715  68.347  1.00  0.00    -0.298 OA 
HETATM   23  N   UNL     1      -9.454  19.867  66.847  1.00  0.00    -0.361 N  
HETATM   24  O   UNL     1      -9.950  19.715  69.288  1.00  0.00    -0.436 OA 
HETATM   25  H1  UNL     1      -8.955  20.732  67.054  1.00  0.00     0.000 HD 
HETATM   26  H2  UNL     1      -9.956  19.602  66.000  1.00  0.00     0.000 HD 
ENDBRANCH  17  21
ENDBRANCH  10  13
ENDBRANCH   8   9
ENDBRANCH   7   8
ENDBRANCH   2   3
TORSDOF 6
ENDMDL
MODEL      124
REMARK 921   NORMALIZED FREE ENERGY PREDICTED BY IDOCK:   -4.56 KCAL/MOL
REMARK 922        TOTAL FREE ENERGY PREDICTED BY IDOCK:   -7.24 KCAL/MOL
REMARK 923 INTER-LIGAND FREE ENERGY PREDICTED BY IDOCK:   -6.44 KCAL/MOL
REMARK 924 INTRA-LIGAND FREE ENERGY PREDICTED BY IDOCK:   -0.80 KCAL/MOL
REMARK 927      BINDING AFFINITY PREDICTED BY RF-SCORE:    0.00 PKD
ROOT
HETATM    1  C   UNL     1     -10.381  18.837  67.118  1.00  0.00    -0.455 C  
HETATM    2  C   UNL     1      -9.642  17.646  66.514  1.00  0.00    -0.292 C  
ENDROOT
BRANCH   2   3
HETATM    3  N   UNL     1     -10.546  16.561  66.102  1.00  0.00    -0.278 NA 
HETATM    4  C   UNL     1     -10.983  16.700  64.710  1.00  0.00    -0.109 C  
HETATM    5  C   UNL     1     -11.494  15.313  64.382  1.00  0.00    -0.244 C  
HETATM    6  C   UNL     1     -10.495  14.398  65.064  1.00  0.00    -0.454 C  
HETATM    7  C   UNL     1      -9.884  15.233  66.200  1.00  0.00    -0.307 C  
BRANCH   7   8
HETATM    8  C   UNL     1     -10.113  14.578  67.582  1.00  0.00    -0.228 C  
BRANCH   8   9
HETATM    9  N   UNL     1      -9.839  13.146  67.618  1.00  0.00    -0.214 N  
HETATM   10  C   UNL     1     -10.854  12.202  67.613  1.00  0.00    -0.233 C  
HETATM   11  H   UNL     1      -8.871  12.828  67.647  1.00  0.00     0.000 HD 
HETATM   12  O   UNL     1     -12.035  12.524  67.622  1.00  0.00    -0.414 OA 
BRANCH  10  13
HETATM   13  C   UNL     1     -10.423  10.760  67.623  1.00  0.00    -0.252 A  
HETATM   14  C   UNL     1      -9.763  10.179  66.514  1.00  0.00    -0.200 A  
HETATM   15  C   UNL     1      -9.395   8.824  66.566  1.00  0.00    -0.260 A  
HETATM   16  C   UNL     1     -10.726   9.960  68.742  1.00  0.00    -0.247 A  
HETATM   17  C   UNL     1     -10.342   8.617  68.770  1.00  0.00    -0.208 A  
HETATM   18  C   UNL     1      -9.681   8.044  67.686  1.00  0.00    -0.198 A  
BRANCH  14  19
HETATM   19  O   UNL     1      -9.489  10.980  65.438  1.00  0.00    -0.205 OA 
HETATM   20  C   UNL     1      -9.797  10.489  64.139  1.00  0.00    -0.337 C  
ENDBRANCH  14  19
BRANCH  17  21
HETATM   21  S   UNL     1     -10.758   7.603  70.161  1.00  0.00    -0.240 S  
HETATM   22  O   UNL     1     -11.711   8.305  70.987  1.00  0.00    -0.281 OA 
HETATM   23  N   UNL     1     -11.597   6.349  69.435  1.00  0.00    -0.618 N  
HETATM   24  O   UNL     1      -9.548   7.018  70.693  1.00  0.00    -0.166 OA 
HETATM   25  H1  UNL     1     -11.837   5.765  70.236  1.00  0.00     0.000 HD 
HETATM   26  H2  UNL     1     -11.812   6.206  68.448  1.00  0.00     0.000 HD 
ENDBRANCH  17  21
ENDBRANCH  10  13
ENDBRANCH   8   9
ENDBRANCH   7   8
ENDBRANCH   2   3
TORSDOF 6
ENDMDL
MODEL      125
REMARK 921   NORMALIZED FREE ENERGY PREDICTED BY IDOCK:   -4.50 KCAL/MOL
REMARK 922        TOTAL FREE ENERGY PREDICTED BY IDOCK:   -7.16 KCAL/MOL
REMARK 923 INTER-LIGAND FREE ENERGY PREDICTED BY IDOCK:   -6.30 KCAL/MOL
REMARK 924 INTRA-LIGAND FREE ENERGY PREDICTED BY IDOCK:   -0.86 KCAL/MOL
REMARK 927      BINDING AFFINITY PREDICTED BY RF-SCORE:    0.00 PKD
ROOT
HETATM    1  C   UNL     1      -6.746   5.662  73.437  1.00  0.00    -0.078 C  
HETATM    2  C   UNL     1      -7.285   7.018  72.989  1.00  0.00    -0.073 C  
ENDROOT
BRANCH   2   3
HETATM    3  N   UNL     1      -8.697   6.965  72.578  1.00  0.00    -0.125 NA 
HETATM    4  C   UNL     1      -9.593   6.678  73.702  1.00  0.00    -0.185 C  
HETATM    5  C   UNL     1     -10.943   7.108  73.170  1.00  0.00    -0.344 C  
HETATM    6  C   UNL     1     -10.631   8.375  72.396  1.00  0.00    -0.405 C  
HETATM    7  C   UNL     1      -9.148   8.262  72.007  1.00  0.00    -0.202 C  
BRANCH   7   8
HETATM    8  C   UNL     1      -8.950   8.314  70.474  1.00  0.00    -0.147 C  
BRANCH   8   9
HETATM    9  N   UNL     1      -9.493   9.512  69.842  1.00  0.00    -0.206 N  
HETATM   10  C   UNL     1     -10.291   9.451  68.711  1.00  0.00    -0.209 C  
HETATM   11  H   UNL     1      -9.278  10.424  70.245  1.00  0.00     0.000 HD 
HETATM   12  O   UNL     1     -10.547   8.388  68.158  1.00  0.00    -0.197 OA 
BRANCH  10  13
HETATM   13  C   UNL     1     -10.803  10.764  68.185  1.00  0.00    -0.284 A  
HETATM   14  C   UNL     1     -11.516  11.663  69.013  1.00  0.00    -0.294 A  
HETATM   15  C   UNL     1     -11.988  12.871  68.470  1.00  0.00    -0.272 A  
HETATM   16  C   UNL     1     -10.610  11.083  66.827  1.00  0.00    -0.317 A  
HETATM   17  C   UNL     1     -11.084  12.293  66.315  1.00  0.00    -0.302 A  
HETATM   18  C   UNL     1     -11.775  13.187  67.129  1.00  0.00    -0.430 A  
BRANCH  14  19
HETATM   19  O   UNL     1     -11.694  11.322  70.327  1.00  0.00    -0.316 OA 
HETATM   20  C   UNL     1     -12.459  12.195  71.149  1.00  0.00    -0.234 C  
ENDBRANCH  14  19
BRANCH  17  21
HETATM   21  S   UNL     1     -10.874  12.674  64.598  1.00  0.00    -0.341 S  
HETATM   22  O   UNL     1     -10.261  11.547  63.937  1.00  0.00    -0.292 OA 
HETATM   23  N   UNL     1     -12.460  12.730  64.061  1.00  0.00    -0.633 N  
HETATM   24  O   UNL     1     -10.364  14.021  64.476  1.00  0.00    -0.419 OA 
HETATM   25  H1  UNL     1     -12.339  12.950  63.073  1.00  0.00     0.000 HD 
HETATM   26  H2  UNL     1     -13.321  12.583  64.586  1.00  0.00     0.000 HD 
ENDBRANCH  17  21
ENDBRANCH  10  13
ENDBRANCH   8   9
ENDBRANCH   7   8
ENDBRANCH   2   3
TORSDOF 6
ENDMDL
MODEL      126
REMARK 921   NORMALIZED FREE ENERGY PREDICTED BY IDOCK:   -4.49 KCAL/MOL
REMARK 922        TOTAL FREE ENERGY PREDICTED BY IDOCK:   -7.15 KCAL/MOL
REMARK 923 INTER-LIGAND FREE ENERGY PREDICTED BY IDOCK:   -6.02 KCAL/MOL
REMARK 924 INTRA-LIGAND FREE ENERGY PREDICTED BY IDOCK:   -1.12 KCAL/MOL
REMARK 927      BINDING AFFINITY PREDICTED BY RF-SCORE:    0.00 PKD
ROOT
HETATM    1  C   UNL     1      -9.395   7.085  74.115  1.00  0.00    -0.276 C  
HETATM    2  C   UNL     1     -10.631   6.620  73.350  1.00  0.00    -0.309 C  
ENDROOT
BRANCH   2   3
HETATM    3  N   UNL     1     -10.487   6.757  71.892  1.00  0.00    -0.199 NA 
HETATM    4  C   UNL     1     -10.073   5.505  71.253  1.00  0.00    -0.207 C  
HETATM    5  C   UNL     1     -10.421   5.742  69.800  1.00  0.00    -0.363 C  
HETATM    6  C   UNL     1     -11.747   6.475  69.869  1.00  0.00    -0.349 C  
HETATM    7  C   UNL     1     -11.772   7.146  71.251  1.00  0.00    -0.306 C  
BRANCH   7   8
HETATM    8  C   UNL     1     -11.919   8.681  71.144  1.00  0.00    -0.279 C  
BRANCH   8   9
HETATM    9  N   UNL     1     -11.642   9.217  69.815  1.00  0.00    -0.426 N  
HETATM   10  C   UNL     1     -10.438   9.828  69.504  1.00  0.00    -0.232 C  
HETATM   11  H   UNL     1     -12.357   9.138  69.092  1.00  0.00     0.000 HD 
HETATM   12  O   UNL     1      -9.559   9.989  70.341  1.00  0.00    -0.150 OA 
BRANCH  10  13
HETATM   13  C   UNL     1     -10.281  10.307  68.085  1.00  0.00    -0.192 A  
HETATM   14  C   UNL     1     -11.120  11.312  67.548  1.00  0.00    -0.286 A  
HETATM   15  C   UNL     1     -10.944  11.713  66.213  1.00  0.00    -0.338 A  
HETATM   16  C   UNL     1      -9.309   9.708  67.262  1.00  0.00    -0.163 A  
HETATM   17  C   UNL     1      -9.150  10.131  65.940  1.00  0.00    -0.156 A  
HETATM   18  C   UNL     1      -9.965  11.128  65.411  1.00  0.00    -0.309 A  
BRANCH  14  19
HETATM   19  O   UNL     1     -12.061  11.870  68.371  1.00  0.00    -0.448 OA 
HETATM   20  C   UNL     1     -11.870  13.214  68.795  1.00  0.00    -0.324 C  
ENDBRANCH  14  19
BRANCH  17  21
HETATM   21  S   UNL     1      -7.953   9.349  64.895  1.00  0.00    -0.128 S  
HETATM   22  O   UNL     1      -6.818   8.952  65.693  1.00  0.00    -0.074 OA 
HETATM   23  N   UNL     1      -8.742   7.936  64.464  1.00  0.00    -0.358 N  
HETATM   24  O   UNL     1      -7.819  10.118  63.678  1.00  0.00    -0.154 OA 
HETATM   25  H1  UNL     1      -8.053   7.486  63.862  1.00  0.00     0.000 HD 
HETATM   26  H2  UNL     1      -9.671   7.611  64.732  1.00  0.00     0.000 HD 
ENDBRANCH  17  21
ENDBRANCH  10  13
ENDBRANCH   8   9
ENDBRANCH   7   8
ENDBRANCH   2   3
TORSDOF 6
ENDMDL
MODEL      127
REMARK 921   NORMALIZED FREE ENERGY PREDICTED BY IDOCK:   -4.45 KCAL/MOL
REMARK 922        TOTAL FREE ENERGY PREDICTED BY IDOCK:   -7.09 KCAL/MOL
REMARK 923 INTER-LIGAND FREE ENERGY PREDICTED BY IDOCK:   -6.10 KCAL/MOL
REMARK 924 INTRA-LIGAND FREE ENERGY PREDICTED BY IDOCK:   -0.99 KCAL/MOL
REMARK 927      BINDING AFFINITY PREDICTED BY RF-SCORE:    0.00 PKD
ROOT
HETATM    1  C   UNL     1     -12.187  14.043  64.322  1.00  0.00    -0.453 C  
HETATM    2  C   UNL     1     -11.216  12.980  63.817  1.00  0.00    -0.349 C  
ENDROOT
BRANCH   2   3
HETATM    3  N   UNL     1     -10.759  12.071  64.880  1.00  0.00    -0.289 NA 
HETATM    4  C   UNL     1     -10.935  10.661  64.519  1.00  0.00     0.457 C  
HETATM    5  C   UNL     1     -10.025   9.952  65.499  1.00  0.00    -0.363 C  
HETATM    6  C   UNL     1      -8.808  10.854  65.569  1.00  0.00    -0.199 C  
HETATM    7  C   UNL     1      -9.310  12.250  65.165  1.00  0.00     0.237 C  
BRANCH   7   8
HETATM    8  C   UNL     1      -9.069  13.293  66.280  1.00  0.00     0.029 C  
BRANCH   8   9
HETATM    9  N   UNL     1      -9.774  13.010  67.526  1.00  0.00    -0.202 N  
HETATM   10  C   UNL     1     -10.895  13.724  67.918  1.00  0.00    -0.244 C  
HETATM   11  H   UNL     1      -9.430  12.263  68.129  1.00  0.00     0.000 HD 
HETATM   12  O   UNL     1     -11.328  14.660  67.257  1.00  0.00    -0.327 OA 
BRANCH  10  13
HETATM   13  C   UNL     1     -11.535  13.303  69.213  1.00  0.00    -0.345 A  
HETATM   14  C   UNL     1     -11.895  11.956  69.454  1.00  0.00    -0.327 A  
HETATM   15  C   UNL     1     -12.505  11.616  70.674  1.00  0.00    -0.386 A  
HETATM   16  C   UNL     1     -11.824  14.279  70.186  1.00  0.00    -0.379 A  
HETATM   17  C   UNL     1     -12.425  13.912  71.393  1.00  0.00    -0.340 A  
HETATM   18  C   UNL     1     -12.770  12.586  71.640  1.00  0.00    -0.297 A  
BRANCH  14  19
HETATM   19  O   UNL     1     -11.608  11.031  68.487  1.00  0.00    -0.287 OA 
HETATM   20  C   UNL     1     -11.146   9.751  68.898  1.00  0.00    -0.099 C  
ENDBRANCH  14  19
BRANCH  17  21
HETATM   21  S   UNL     1     -12.823  15.147  72.598  1.00  0.00    -0.430 S  
HETATM   22  O   UNL     1     -12.027  16.325  72.347  1.00  0.00    -0.516 OA 
HETATM   23  N   UNL     1     -14.395  15.543  72.179  1.00  0.00    -0.545 N  
HETATM   24  O   UNL     1     -12.902  14.523  73.900  1.00  0.00    -0.450 OA 
HETATM   25  H1  UNL     1     -14.625  16.254  72.873  1.00  0.00     0.000 HD 
HETATM   26  H2  UNL     1     -14.973  15.170  71.426  1.00  0.00     0.000 HD 
ENDBRANCH  17  21
ENDBRANCH  10  13
ENDBRANCH   8   9
ENDBRANCH   7   8
ENDBRANCH   2   3
TORSDOF 6
ENDMDL
MODEL      128
REMARK 921   NORMALIZED FREE ENERGY PREDICTED BY IDOCK:   -4.44 KCAL/MOL
REMARK 922        TOTAL FREE ENERGY PREDICTED BY IDOCK:   -7.08 KCAL/MOL
REMARK 923 INTER-LIGAND FREE ENERGY PREDICTED BY IDOCK:   -6.83 KCAL/MOL
REMARK 924 INTRA-LIGAND FREE ENERGY PREDICTED BY IDOCK:   -0.25 KCAL/MOL
REMARK 927      BINDING AFFINITY PREDICTED BY RF-SCORE:    0.00 PKD
ROOT
HETATM    1  C   UNL     1     -13.801  15.320  71.437  1.00  0.00    -0.603 C  
HETATM    2  C   UNL     1     -12.455  15.695  70.823  1.00  0.00    -0.435 C  
ENDROOT
BRANCH   2   3
HETATM    3  N   UNL     1     -12.208  15.025  69.536  1.00  0.00    -0.266 NA 
HETATM    4  C   UNL     1     -11.533  15.901  68.573  1.00  0.00    -0.377 C  
HETATM    5  C   UNL     1     -10.994  14.921  67.554  1.00  0.00    -0.302 C  
HETATM    6  C   UNL     1     -10.515  13.757  68.400  1.00  0.00    -0.256 C  
HETATM    7  C   UNL     1     -11.331  13.835  69.701  1.00  0.00    -0.178 C  
BRANCH   7   8
HETATM    8  C   UNL     1     -12.150  12.547  69.944  1.00  0.00    -0.252 C  
BRANCH   8   9
HETATM    9  N   UNL     1     -11.339  11.350  70.142  1.00  0.00    -0.499 N  
HETATM   10  C   UNL     1     -11.745  10.312  70.964  1.00  0.00    -0.370 C  
HETATM   11  H   UNL     1     -10.444  11.276  69.659  1.00  0.00     0.000 HD 
HETATM   12  O   UNL     1     -12.789  10.364  71.602  1.00  0.00    -0.404 OA 
BRANCH  10  13
HETATM   13  C   UNL     1     -10.820   9.128  71.049  1.00  0.00    -0.362 A  
HETATM   14  C   UNL     1      -9.690   9.012  70.206  1.00  0.00    -0.196 A  
HETATM   15  C   UNL     1      -8.866   7.879  70.314  1.00  0.00    -0.140 A  
HETATM   16  C   UNL     1     -11.114   8.091  71.956  1.00  0.00    -0.353 A  
HETATM   17  C   UNL     1     -10.273   6.978  72.047  1.00  0.00    -0.190 A  
HETATM   18  C   UNL     1      -9.153   6.866  71.228  1.00  0.00    -0.149 A  
BRANCH  14  19
HETATM   19  O   UNL     1      -9.435  10.033  69.330  1.00  0.00    -0.198 OA 
HETATM   20  C   UNL     1      -8.086  10.446  69.155  1.00  0.00    -0.151 C  
ENDBRANCH  14  19
BRANCH  17  21
HETATM   21  S   UNL     1     -10.666   5.658  73.159  1.00  0.00    -0.286 S  
HETATM   22  O   UNL     1     -10.497   6.118  74.517  1.00  0.00    -0.265 OA 
HETATM   23  N   UNL     1     -12.315   5.487  72.923  1.00  0.00    -0.436 N  
HETATM   24  O   UNL     1     -10.064   4.438  72.670  1.00  0.00    -0.160 OA 
HETATM   25  H1  UNL     1     -12.542   4.726  73.563  1.00  0.00     0.000 HD 
HETATM   26  H2  UNL     1     -12.933   6.007  72.300  1.00  0.00     0.000 HD 
ENDBRANCH  17  21
ENDBRANCH  10  13
ENDBRANCH   8   9
ENDBRANCH   7   8
ENDBRANCH   2   3
TORSDOF 6
ENDMDL
MODEL      129
REMARK 921   NORMALIZED FREE ENERGY PREDICTED BY IDOCK:   -4.43 KCAL/MOL
REMARK 922        TOTAL FREE ENERGY PREDICTED BY IDOCK:   -7.07 KCAL/MOL
REMARK 923 INTER-LIGAND FREE ENERGY PREDICTED BY IDOCK:   -6.43 KCAL/MOL
REMARK 924 INTRA-LIGAND FREE ENERGY PREDICTED BY IDOCK:   -0.64 KCAL/MOL
REMARK 927      BINDING AFFINITY PREDICTED BY RF-SCORE:    0.00 PKD
ROOT
HETATM    1  C   UNL     1     -12.324  15.150  70.068  1.00  0.00    -0.356 C  
HETATM    2  C   UNL     1     -11.299  14.389  69.231  1.00  0.00    -0.284 C  
ENDROOT
BRANCH   2   3
HETATM    3  N   UNL     1     -11.919  13.542  68.200  1.00  0.00    -0.361 NA 
HETATM    4  C   UNL     1     -11.682  14.051  66.846  1.00  0.00    -0.410 C  
HETATM    5  C   UNL     1     -11.989  12.848  65.980  1.00  0.00    -0.505 C  
HETATM    6  C   UNL     1     -11.403  11.689  66.764  1.00  0.00    -0.354 C  
HETATM    7  C   UNL     1     -11.371  12.160  68.226  1.00  0.00    -0.289 C  
BRANCH   7   8
HETATM    8  C   UNL     1     -12.196  11.232  69.148  1.00  0.00    -0.183 C  
BRANCH   8   9
HETATM    9  N   UNL     1     -11.781   9.834  69.115  1.00  0.00    -0.388 N  
HETATM   10  C   UNL     1     -10.997   9.274  70.111  1.00  0.00    -0.246 C  
HETATM   11  H   UNL     1     -12.078   9.250  68.333  1.00  0.00     0.000 HD 
HETATM   12  O   UNL     1     -10.576   9.937  71.050  1.00  0.00    -0.290 OA 
BRANCH  10  13
HETATM   13  C   UNL     1     -10.671   7.813  69.960  1.00  0.00    -0.245 A  
HETATM   14  C   UNL     1     -10.573   7.206  68.685  1.00  0.00    -0.189 A  
HETATM   15  C   UNL     1     -10.282   5.834  68.598  1.00  0.00    -0.254 A  
HETATM   16  C   UNL     1     -10.506   7.023  71.114  1.00  0.00    -0.229 A  
HETATM   17  C   UNL     1     -10.210   5.663  70.998  1.00  0.00    -0.220 A  
HETATM   18  C   UNL     1     -10.101   5.064  69.746  1.00  0.00    -0.337 A  
BRANCH  14  19
HETATM   19  O   UNL     1     -10.746   7.998  67.582  1.00  0.00    -0.216 OA 
HETATM   20  C   UNL     1      -9.700   8.047  66.620  1.00  0.00    -0.243 C  
ENDBRANCH  14  19
BRANCH  17  21
HETATM   21  S   UNL     1     -10.042   4.664  72.451  1.00  0.00    -0.186 S  
HETATM   22  O   UNL     1      -8.746   4.904  73.041  1.00  0.00    -0.113 OA 
HETATM   23  N   UNL     1     -11.164   5.361  73.480  1.00  0.00    -0.469 N  
HETATM   24  O   UNL     1     -10.534   3.335  72.165  1.00  0.00    -0.064 OA 
HETATM   25  H1  UNL     1     -11.067   4.786  74.317  1.00  0.00     0.000 HD 
HETATM   26  H2  UNL     1     -11.783   6.154  73.314  1.00  0.00     0.000 HD 
ENDBRANCH  17  21
ENDBRANCH  10  13
ENDBRANCH   8   9
ENDBRANCH   7   8
ENDBRANCH   2   3
TORSDOF 6
ENDMDL
MODEL      130
REMARK 921   NORMALIZED FREE ENERGY PREDICTED BY IDOCK:   -4.42 KCAL/MOL
REMARK 922        TOTAL FREE ENERGY PREDICTED BY IDOCK:   -7.05 KCAL/MOL
REMARK 923 INTER-LIGAND FREE ENERGY PREDICTED BY IDOCK:   -6.20 KCAL/MOL
REMARK 924 INTRA-LIGAND FREE ENERGY PREDICTED BY IDOCK:   -0.85 KCAL/MOL
REMARK 927      BINDING AFFINITY PREDICTED BY RF-SCORE:    0.00 PKD
ROOT
HETATM    1  C   UNL     1     -11.583  10.490  70.161  1.00  0.00    -0.408 C  
HETATM    2  C   UNL     1     -10.130  10.069  69.960  1.00  0.00    -0.239 C  
ENDROOT
BRANCH   2   3
HETATM    3  N   UNL     1      -9.696  10.164  68.557  1.00  0.00    -0.150 NA 
HETATM    4  C   UNL     1     -10.391   9.203  67.694  1.00  0.00    -0.255 C  
HETATM    5  C   UNL     1     -10.146   9.763  66.309  1.00  0.00    -0.313 C  
HETATM    6  C   UNL     1     -10.283  11.261  66.504  1.00  0.00    -0.269 C  
HETATM    7  C   UNL     1      -9.975  11.510  67.989  1.00  0.00    -0.189 C  
BRANCH   7   8
HETATM    8  C   UNL     1      -8.779  12.471  68.176  1.00  0.00    -0.190 C  
BRANCH   8   9
HETATM    9  N   UNL     1      -9.087  13.870  67.896  1.00  0.00    -0.186 N  
HETATM   10  C   UNL     1      -8.392  14.910  68.492  1.00  0.00    -0.160 C  
HETATM   11  H   UNL     1      -9.837  14.089  67.241  1.00  0.00     0.000 HD 
HETATM   12  O   UNL     1      -7.511  14.709  69.318  1.00  0.00    -0.146 OA 
BRANCH  10  13
HETATM   13  C   UNL     1      -8.799  16.302  68.087  1.00  0.00    -0.183 A  
HETATM   14  C   UNL     1     -10.143  16.732  68.174  1.00  0.00    -0.282 A  
HETATM   15  C   UNL     1     -10.475  18.036  67.769  1.00  0.00    -0.421 A  
HETATM   16  C   UNL     1      -7.827  17.177  67.564  1.00  0.00    -0.190 A  
HETATM   17  C   UNL     1      -8.183  18.471  67.175  1.00  0.00    -0.252 A  
HETATM   18  C   UNL     1      -9.503  18.903  67.271  1.00  0.00    -0.336 A  
BRANCH  14  19
HETATM   19  O   UNL     1     -11.067  15.857  68.679  1.00  0.00    -0.296 OA 
HETATM   20  C   UNL     1     -11.354  15.911  70.071  1.00  0.00    -0.358 C  
ENDBRANCH  14  19
BRANCH  17  21
HETATM   21  S   UNL     1      -6.967  19.555  66.482  1.00  0.00    -0.222 S  
HETATM   22  O   UNL     1      -6.905  19.345  65.056  1.00  0.00    -0.431 OA 
HETATM   23  N   UNL     1      -7.676  21.056  66.706  1.00  0.00    -0.548 N  
HETATM   24  O   UNL     1      -5.791  19.541  67.324  1.00  0.00    -0.178 OA 
HETATM   25  H1  UNL     1      -6.976  21.681  66.307  1.00  0.00     0.000 HD 
HETATM   26  H2  UNL     1      -8.575  21.285  67.131  1.00  0.00     0.000 HD 
ENDBRANCH  17  21
ENDBRANCH  10  13
ENDBRANCH   8   9
ENDBRANCH   7   8
ENDBRANCH   2   3
TORSDOF 6
ENDMDL
MODEL      131
REMARK 921   NORMALIZED FREE ENERGY PREDICTED BY IDOCK:   -4.37 KCAL/MOL
REMARK 922        TOTAL FREE ENERGY PREDICTED BY IDOCK:   -6.99 KCAL/MOL
REMARK 923 INTER-LIGAND FREE ENERGY PREDICTED BY IDOCK:   -5.92 KCAL/MOL
REMARK 924 INTRA-LIGAND FREE ENERGY PREDICTED BY IDOCK:   -1.07 KCAL/MOL
REMARK 927      BINDING AFFINITY PREDICTED BY RF-SCORE:    0.00 PKD
ROOT
HETATM    1  C   UNL     1     -11.838  14.668  70.529  1.00  0.00    -0.367 C  
HETATM    2  C   UNL     1     -10.804  15.731  70.167  1.00  0.00    -0.351 C  
ENDROOT
BRANCH   2   3
HETATM    3  N   UNL     1     -10.396  15.675  68.755  1.00  0.00    -0.211 NA 
HETATM    4  C   UNL     1     -10.924  16.801  67.979  1.00  0.00    -0.296 C  
HETATM    5  C   UNL     1     -10.049  16.793  66.744  1.00  0.00    -0.295 C  
HETATM    6  C   UNL     1      -8.670  16.471  67.289  1.00  0.00    -0.204 C  
HETATM    7  C   UNL     1      -8.917  15.728  68.612  1.00  0.00    -0.204 C  
BRANCH   7   8
HETATM    8  C   UNL     1      -8.290  14.315  68.603  1.00  0.00    -0.135 C  
BRANCH   8   9
HETATM    9  N   UNL     1      -8.491  13.579  67.359  1.00  0.00    -0.190 N  
HETATM   10  C   UNL     1      -9.381  12.521  67.265  1.00  0.00    -0.190 C  
HETATM   11  H   UNL     1      -7.959  13.851  66.533  1.00  0.00     0.000 HD 
HETATM   12  O   UNL     1     -10.015  12.122  68.233  1.00  0.00    -0.203 OA 
BRANCH  10  13
HETATM   13  C   UNL     1      -9.507  11.874  65.911  1.00  0.00    -0.227 A  
HETATM   14  C   UNL     1     -10.328  12.428  64.902  1.00  0.00    -0.293 A  
HETATM   15  C   UNL     1     -10.424  11.778  63.660  1.00  0.00    -0.490 A  
HETATM   16  C   UNL     1      -8.828  10.666  65.662  1.00  0.00    -0.201 A  
HETATM   17  C   UNL     1      -8.935  10.043  64.416  1.00  0.00    -0.231 A  
HETATM   18  C   UNL     1      -9.733  10.592  63.415  1.00  0.00    -0.368 A  
BRANCH  14  19
HETATM   19  O   UNL     1     -10.982  13.600  65.177  1.00  0.00    -0.305 OA 
HETATM   20  C   UNL     1     -12.392  13.557  65.355  1.00  0.00    -0.478 C  
ENDBRANCH  14  19
BRANCH  17  21
HETATM   21  S   UNL     1      -8.112   8.504  64.119  1.00  0.00    -0.135 S  
HETATM   22  O   UNL     1      -6.783   8.565  64.677  1.00  0.00    -0.068 OA 
HETATM   23  N   UNL     1      -8.983   7.454  65.090  1.00  0.00    -0.335 N  
HETATM   24  O   UNL     1      -8.368   8.092  62.757  1.00  0.00    -0.145 OA 
HETATM   25  H1  UNL     1      -8.510   6.567  64.919  1.00  0.00     0.000 HD 
HETATM   26  H2  UNL     1      -9.780   7.650  65.696  1.00  0.00     0.000 HD 
ENDBRANCH  17  21
ENDBRANCH  10  13
ENDBRANCH   8   9
ENDBRANCH   7   8
ENDBRANCH   2   3
TORSDOF 6
ENDMDL
MODEL      132
REMARK 921   NORMALIZED FREE ENERGY PREDICTED BY IDOCK:   -4.37 KCAL/MOL
REMARK 922        TOTAL FREE ENERGY PREDICTED BY IDOCK:   -6.99 KCAL/MOL
REMARK 923 INTER-LIGAND FREE ENERGY PREDICTED BY IDOCK:   -7.01 KCAL/MOL
REMARK 924 INTRA-LIGAND FREE ENERGY PREDICTED BY IDOCK:    0.02 KCAL/MOL
REMARK 927      BINDING AFFINITY PREDICTED BY RF-SCORE:    0.00 PKD
ROOT
HETATM    1  C   UNL     1     -12.298  11.013  70.203  1.00  0.00    -0.389 C  
HETATM    2  C   UNL     1     -11.358   9.899  69.750  1.00  0.00    -0.193 C  
ENDROOT
BRANCH   2   3
HETATM    3  N   UNL     1     -10.148   9.799  70.582  1.00  0.00    -0.246 NA 
HETATM    4  C   UNL     1     -10.342   8.922  71.741  1.00  0.00    -0.356 C  
HETATM    5  C   UNL     1      -8.922   8.615  72.166  1.00  0.00    -0.270 C  
HETATM    6  C   UNL     1      -8.189   8.438  70.850  1.00  0.00    -0.130 C  
HETATM    7  C   UNL     1      -9.006   9.231  69.817  1.00  0.00    -0.172 C  
BRANCH   7   8
HETATM    8  C   UNL     1      -8.162  10.336  69.141  1.00  0.00    -0.152 C  
BRANCH   8   9
HETATM    9  N   UNL     1      -8.768  10.899  67.939  1.00  0.00    -0.128 N  
HETATM   10  C   UNL     1      -8.823  10.200  66.744  1.00  0.00    -0.132 C  
HETATM   11  H   UNL     1      -9.163  11.839  67.980  1.00  0.00     0.000 HD 
HETATM   12  O   UNL     1      -8.328   9.087  66.624  1.00  0.00    -0.116 OA 
BRANCH  10  13
HETATM   13  C   UNL     1      -9.504  10.895  65.596  1.00  0.00    -0.252 A  
HETATM   14  C   UNL     1      -9.514  10.337  64.296  1.00  0.00    -0.307 A  
HETATM   15  C   UNL     1     -10.149  11.033  63.254  1.00  0.00    -0.400 A  
HETATM   16  C   UNL     1     -10.103  12.152  65.811  1.00  0.00    -0.272 A  
HETATM   17  C   UNL     1     -10.734  12.819  64.759  1.00  0.00    -0.316 A  
HETATM   18  C   UNL     1     -10.757  12.267  63.480  1.00  0.00    -0.497 A  
BRANCH  14  19
HETATM   19  O   UNL     1      -8.917   9.118  64.117  1.00  0.00    -0.158 OA 
HETATM   20  C   UNL     1      -8.296   8.851  62.865  1.00  0.00    -0.198 C  
ENDBRANCH  14  19
BRANCH  17  21
HETATM   21  S   UNL     1     -11.451  14.416  65.023  1.00  0.00    -0.391 S  
HETATM   22  O   UNL     1     -10.412  15.416  64.964  1.00  0.00    -0.406 OA 
HETATM   23  N   UNL     1     -12.373  14.613  63.638  1.00  0.00    -1.089 N  
HETATM   24  O   UNL     1     -12.391  14.333  66.118  1.00  0.00    -0.437 OA 
HETATM   25  H1  UNL     1     -12.787  15.533  63.790  1.00  0.00     0.000 HD 
HETATM   26  H2  UNL     1     -12.491  13.978  62.848  1.00  0.00     0.000 HD 
ENDBRANCH  17  21
ENDBRANCH  10  13
ENDBRANCH   8   9
ENDBRANCH   7   8
ENDBRANCH   2   3
TORSDOF 6
ENDMDL
MODEL      133
REMARK 921   NORMALIZED FREE ENERGY PREDICTED BY IDOCK:   -4.37 KCAL/MOL
REMARK 922        TOTAL FREE ENERGY PREDICTED BY IDOCK:   -6.98 KCAL/MOL
REMARK 923 INTER-LIGAND FREE ENERGY PREDICTED BY IDOCK:   -6.14 KCAL/MOL
REMARK 924 INTRA-LIGAND FREE ENERGY PREDICTED BY IDOCK:   -0.84 KCAL/MOL
REMARK 927      BINDING AFFINITY PREDICTED BY RF-SCORE:    0.00 PKD
ROOT
HETATM    1  C   UNL     1      -7.656   8.118  72.510  1.00  0.00    -0.157 C  
HETATM    2  C   UNL     1      -9.150   8.433  72.523  1.00  0.00    -0.256 C  
ENDROOT
BRANCH   2   3
HETATM    3  N   UNL     1      -9.968   7.345  71.967  1.00  0.00    -0.165 NA 
HETATM    4  C   UNL     1     -11.116   7.019  72.820  1.00  0.00    -0.284 C  
HETATM    5  C   UNL     1     -12.019   6.248  71.882  1.00  0.00    -0.342 C  
HETATM    6  C   UNL     1     -11.889   6.996  70.570  1.00  0.00    -0.337 C  
HETATM    7  C   UNL     1     -10.529   7.708  70.638  1.00  0.00    -0.216 C  
BRANCH   7   8
HETATM    8  C   UNL     1      -9.595   7.277  69.484  1.00  0.00    -0.155 C  
BRANCH   8   9
HETATM    9  N   UNL     1      -9.477   8.260  68.412  1.00  0.00    -0.139 N  
HETATM   10  C   UNL     1     -10.241   8.187  67.258  1.00  0.00    -0.278 C  
HETATM   11  H   UNL     1      -8.810   9.025  68.514  1.00  0.00     0.000 HD 
HETATM   12  O   UNL     1     -11.026   7.268  67.060  1.00  0.00    -0.358 OA 
BRANCH  10  13
HETATM   13  C   UNL     1     -10.033   9.285  66.250  1.00  0.00    -0.357 A  
HETATM   14  C   UNL     1      -8.949   9.259  65.342  1.00  0.00    -0.207 A  
HETATM   15  C   UNL     1      -8.790  10.317  64.431  1.00  0.00    -0.229 A  
HETATM   16  C   UNL     1     -10.911  10.387  66.245  1.00  0.00    -0.022 A  
HETATM   17  C   UNL     1     -10.733  11.422  65.324  1.00  0.00    -0.265 A  
HETATM   18  C   UNL     1      -9.675  11.394  64.419  1.00  0.00    -0.266 A  
BRANCH  14  19
HETATM   19  O   UNL     1      -8.109   8.178  65.376  1.00  0.00    -0.114 OA 
HETATM   20  C   UNL     1      -7.084   8.093  64.394  1.00  0.00    -0.078 C  
ENDBRANCH  14  19
BRANCH  17  21
HETATM   21  S   UNL     1     -11.814  12.824  65.345  1.00  0.00    -0.438 S  
HETATM   22  O   UNL     1     -13.105  12.433  64.831  1.00  0.00    -0.765 OA 
HETATM   23  N   UNL     1     -12.019  13.078  66.988  1.00  0.00    -0.375 N  
HETATM   24  O   UNL     1     -11.096  13.978  64.850  1.00  0.00    -0.340 OA 
HETATM   25  H1  UNL     1     -12.641  13.885  67.000  1.00  0.00     0.000 HD 
HETATM   26  H2  UNL     1     -11.624  12.559  67.772  1.00  0.00     0.000 HD 
ENDBRANCH  17  21
ENDBRANCH  10  13
ENDBRANCH   8   9
ENDBRANCH   7   8
ENDBRANCH   2   3
TORSDOF 6
ENDMDL
MODEL      134
REMARK 921   NORMALIZED FREE ENERGY PREDICTED BY IDOCK:   -4.35 KCAL/MOL
REMARK 922        TOTAL FREE ENERGY PREDICTED BY IDOCK:   -6.95 KCAL/MOL
REMARK 923 INTER-LIGAND FREE ENERGY PREDICTED BY IDOCK:   -5.94 KCAL/MOL
REMARK 924 INTRA-LIGAND FREE ENERGY PREDICTED BY IDOCK:   -1.02 KCAL/MOL
REMARK 927      BINDING AFFINITY PREDICTED BY RF-SCORE:    0.00 PKD
ROOT
HETATM    1  C   UNL     1      -7.701   8.542  65.161  1.00  0.00    -0.102 C  
HETATM    2  C   UNL     1      -8.427   9.363  66.224  1.00  0.00    -0.126 C  
ENDROOT
BRANCH   2   3
HETATM    3  N   UNL     1      -9.110  10.542  65.667  1.00  0.00    -0.174 NA 
HETATM    4  C   UNL     1      -9.976  10.200  64.535  1.00  0.00    -0.205 C  
HETATM    5  C   UNL     1     -10.878  11.410  64.429  1.00  0.00    -0.397 C  
HETATM    6  C   UNL     1     -11.164  11.766  65.875  1.00  0.00    -0.345 C  
HETATM    7  C   UNL     1      -9.986  11.193  66.678  1.00  0.00    -0.207 C  
BRANCH   7   8
HETATM    8  C   UNL     1      -9.236  12.292  67.464  1.00  0.00    -0.181 C  
BRANCH   8   9
HETATM    9  N   UNL     1      -9.696  13.648  67.183  1.00  0.00    -0.238 N  
HETATM   10  C   UNL     1      -8.815  14.702  66.998  1.00  0.00    -0.241 C  
HETATM   11  H   UNL     1     -10.698  13.826  67.121  1.00  0.00     0.000 HD 
HETATM   12  O   UNL     1      -7.604  14.557  67.103  1.00  0.00    -0.166 OA 
BRANCH  10  13
HETATM   13  C   UNL     1      -9.432  16.039  66.686  1.00  0.00    -0.259 A  
HETATM   14  C   UNL     1     -10.315  16.207  65.593  1.00  0.00    -0.382 A  
HETATM   15  C   UNL     1     -10.852  17.480  65.334  1.00  0.00     0.058 A  
HETATM   16  C   UNL     1      -9.084  17.155  67.470  1.00  0.00    -0.225 A  
HETATM   17  C   UNL     1      -9.638  18.408  67.195  1.00  0.00    -0.295 A  
HETATM   18  C   UNL     1     -10.517  18.576  66.128  1.00  0.00    -0.447 A  
BRANCH  14  19
HETATM   19  O   UNL     1     -10.628  15.105  64.844  1.00  0.00    -0.411 OA 
HETATM   20  C   UNL     1     -11.950  14.994  64.332  1.00  0.00    -0.353 C  
ENDBRANCH  14  19
BRANCH  17  21
HETATM   21  S   UNL     1      -9.170  19.817  68.158  1.00  0.00    -0.297 S  
HETATM   22  O   UNL     1     -10.208  20.096  69.122  1.00  0.00    -0.321 OA 
HETATM   23  N   UNL     1      -7.867  19.223  69.028  1.00  0.00    -0.321 N  
HETATM   24  O   UNL     1      -8.632  20.830  67.277  1.00  0.00    -0.300 OA 
HETATM   25  H1  UNL     1      -7.597  20.035  69.583  1.00  0.00     0.000 HD 
HETATM   26  H2  UNL     1      -7.452  18.292  69.007  1.00  0.00     0.000 HD 
ENDBRANCH  17  21
ENDBRANCH  10  13
ENDBRANCH   8   9
ENDBRANCH   7   8
ENDBRANCH   2   3
TORSDOF 6
ENDMDL
MODEL      135
REMARK 921   NORMALIZED FREE ENERGY PREDICTED BY IDOCK:   -4.34 KCAL/MOL
REMARK 922        TOTAL FREE ENERGY PREDICTED BY IDOCK:   -6.95 KCAL/MOL
REMARK 923 INTER-LIGAND FREE ENERGY PREDICTED BY IDOCK:   -6.02 KCAL/MOL
REMARK 924 INTRA-LIGAND FREE ENERGY PREDICTED BY IDOCK:   -0.93 KCAL/MOL
REMARK 927      BINDING AFFINITY PREDICTED BY RF-SCORE:    0.00 PKD
ROOT
HETATM    1  C   UNL     1      -6.626  20.526  66.426  1.00  0.00    -0.294 C  
HETATM    2  C   UNL     1      -7.030  19.108  66.034  1.00  0.00    -0.256 C  
ENDROOT
BRANCH   2   3
HETATM    3  N   UNL     1      -7.922  18.475  67.018  1.00  0.00    -0.231 NA 
HETATM    4  C   UNL     1      -8.557  19.455  67.904  1.00  0.00    -0.313 C  
HETATM    5  C   UNL     1      -9.714  18.674  68.489  1.00  0.00    -0.409 C  
HETATM    6  C   UNL     1     -10.224  17.864  67.312  1.00  0.00    -0.360 C  
HETATM    7  C   UNL     1      -9.029  17.735  66.356  1.00  0.00    -0.229 C  
BRANCH   7   8
HETATM    8  C   UNL     1      -8.656  16.257  66.095  1.00  0.00    -0.307 C  
BRANCH   8   9
HETATM    9  N   UNL     1      -9.510  15.295  66.784  1.00  0.00    -0.232 N  
HETATM   10  C   UNL     1      -8.991  14.290  67.585  1.00  0.00    -0.194 C  
HETATM   11  H   UNL     1     -10.521  15.364  66.672  1.00  0.00     0.000 HD 
HETATM   12  O   UNL     1      -7.784  14.132  67.722  1.00  0.00    -0.135 OA 
BRANCH  10  13
HETATM   13  C   UNL     1      -9.992  13.389  68.256  1.00  0.00    -0.240 A  
HETATM   14  C   UNL     1     -11.075  13.913  68.999  1.00  0.00    -0.268 A  
HETATM   15  C   UNL     1     -11.974  13.029  69.621  1.00  0.00    -0.367 A  
HETATM   16  C   UNL     1      -9.818  11.993  68.181  1.00  0.00    -0.201 A  
HETATM   17  C   UNL     1     -10.730  11.137  68.803  1.00  0.00    -0.199 A  
HETATM   18  C   UNL     1     -11.805  11.649  69.525  1.00  0.00    -0.414 A  
BRANCH  14  19
HETATM   19  O   UNL     1     -11.214  15.274  69.060  1.00  0.00    -0.248 OA 
HETATM   20  C   UNL     1     -12.128  15.815  70.006  1.00  0.00    -0.324 C  
ENDBRANCH  14  19
BRANCH  17  21
HETATM   21  S   UNL     1     -10.488   9.384  68.740  1.00  0.00    -0.201 S  
HETATM   22  O   UNL     1     -10.887   8.899  67.441  1.00  0.00    -0.218 OA 
HETATM   23  N   UNL     1      -8.818   9.265  68.795  1.00  0.00    -0.131 N  
HETATM   24  O   UNL     1     -10.969   8.800  69.972  1.00  0.00    -0.245 OA 
HETATM   25  H1  UNL     1      -8.678   8.256  68.759  1.00  0.00     0.000 HD 
HETATM   26  H2  UNL     1      -8.122  10.009  68.850  1.00  0.00     0.000 HD 
ENDBRANCH  17  21
ENDBRANCH  10  13
ENDBRANCH   8   9
ENDBRANCH   7   8
ENDBRANCH   2   3
TORSDOF 6
ENDMDL
MODEL      136
REMARK 921   NORMALIZED FREE ENERGY PREDICTED BY IDOCK:   -4.33 KCAL/MOL
REMARK 922        TOTAL FREE ENERGY PREDICTED BY IDOCK:   -6.94 KCAL/MOL
REMARK 923 INTER-LIGAND FREE ENERGY PREDICTED BY IDOCK:   -6.11 KCAL/MOL
REMARK 924 INTRA-LIGAND FREE ENERGY PREDICTED BY IDOCK:   -0.82 KCAL/MOL
REMARK 927      BINDING AFFINITY PREDICTED BY RF-SCORE:    0.00 PKD
ROOT
HETATM    1  C   UNL     1     -11.957  14.823  70.825  1.00  0.00    -0.371 C  
HETATM    2  C   UNL     1     -10.622  15.162  70.168  1.00  0.00    -0.202 C  
ENDROOT
BRANCH   2   3
HETATM    3  N   UNL     1     -10.778  15.799  68.851  1.00  0.00    -0.235 NA 
HETATM    4  C   UNL     1     -10.444  17.226  68.880  1.00  0.00    -0.327 C  
HETATM    5  C   UNL     1     -10.237  17.549  67.416  1.00  0.00    -0.337 C  
HETATM    6  C   UNL     1      -9.508  16.330  66.884  1.00  0.00    -0.245 C  
HETATM    7  C   UNL     1      -9.881  15.183  67.837  1.00  0.00    -0.216 C  
BRANCH   7   8
HETATM    8  C   UNL     1     -10.572  14.018  67.092  1.00  0.00    -0.274 C  
BRANCH   8   9
HETATM    9  N   UNL     1     -10.458  12.728  67.764  1.00  0.00    -0.219 N  
HETATM   10  C   UNL     1     -11.259  11.648  67.426  1.00  0.00    -0.298 C  
HETATM   11  H   UNL     1      -9.768  12.617  68.506  1.00  0.00     0.000 HD 
HETATM   12  O   UNL     1     -12.134  11.734  66.574  1.00  0.00    -0.498 OA 
BRANCH  10  13
HETATM   13  C   UNL     1     -11.011  10.372  68.184  1.00  0.00    -0.334 A  
HETATM   14  C   UNL     1     -11.163  10.306  69.589  1.00  0.00    -0.269 A  
HETATM   15  C   UNL     1     -10.904   9.094  70.252  1.00  0.00    -0.282 A  
HETATM   16  C   UNL     1     -10.571   9.231  67.483  1.00  0.00    -0.329 A  
HETATM   17  C   UNL     1     -10.328   8.037  68.167  1.00  0.00    -0.200 A  
HETATM   18  C   UNL     1     -10.488   7.965  69.548  1.00  0.00    -0.226 A  
BRANCH  14  19
HETATM   19  O   UNL     1     -11.584  11.432  70.243  1.00  0.00    -0.307 OA 
HETATM   20  C   UNL     1     -12.809  11.373  70.963  1.00  0.00    -0.286 C  
ENDBRANCH  14  19
BRANCH  17  21
HETATM   21  S   UNL     1      -9.738   6.617  67.289  1.00  0.00    -0.142 S  
HETATM   22  O   UNL     1     -10.830   6.034  66.547  1.00  0.00    -0.257 OA 
HETATM   23  N   UNL     1      -8.717   7.310  66.157  1.00  0.00    -0.151 N  
HETATM   24  O   UNL     1      -8.891   5.841  68.168  1.00  0.00    -0.107 OA 
HETATM   25  H1  UNL     1      -8.377   6.492  65.652  1.00  0.00     0.000 HD 
HETATM   26  H2  UNL     1      -8.493   8.294  66.011  1.00  0.00     0.000 HD 
ENDBRANCH  17  21
ENDBRANCH  10  13
ENDBRANCH   8   9
ENDBRANCH   7   8
ENDBRANCH   2   3
TORSDOF 6
ENDMDL
MODEL      137
REMARK 921   NORMALIZED FREE ENERGY PREDICTED BY IDOCK:   -4.33 KCAL/MOL
REMARK 922        TOTAL FREE ENERGY PREDICTED BY IDOCK:   -6.93 KCAL/MOL
REMARK 923 INTER-LIGAND FREE ENERGY PREDICTED BY IDOCK:   -6.03 KCAL/MOL
REMARK 924 INTRA-LIGAND FREE ENERGY PREDICTED BY IDOCK:   -0.90 KCAL/MOL
REMARK 927      BINDING AFFINITY PREDICTED BY RF-SCORE:    0.00 PKD
ROOT
HETATM    1  C   UNL     1      -8.989  19.866  66.332  1.00  0.00    -0.434 C  
HETATM    2  C   UNL     1      -9.152  18.390  66.683  1.00  0.00    -0.297 C  
ENDROOT
BRANCH   2   3
HETATM    3  N   UNL     1      -7.870  17.669  66.733  1.00  0.00    -0.219 NA 
HETATM    4  C   UNL     1      -6.928  18.140  65.714  1.00  0.00    -0.244 C  
HETATM    5  C   UNL     1      -5.601  17.619  66.223  1.00  0.00    -0.245 C  
HETATM    6  C   UNL     1      -5.689  17.831  67.722  1.00  0.00    -0.146 C  
HETATM    7  C   UNL     1      -7.191  17.854  68.044  1.00  0.00    -0.220 C  
BRANCH   7   8
HETATM    8  C   UNL     1      -7.581  16.749  69.053  1.00  0.00    -0.218 C  
BRANCH   8   9
HETATM    9  N   UNL     1      -8.590  15.818  68.560  1.00  0.00    -0.175 N  
HETATM   10  C   UNL     1      -8.343  14.459  68.441  1.00  0.00    -0.155 C  
HETATM   11  H   UNL     1      -9.506  16.178  68.293  1.00  0.00     0.000 HD 
HETATM   12  O   UNL     1      -7.249  13.977  68.704  1.00  0.00    -0.102 OA 
BRANCH  10  13
HETATM   13  C   UNL     1      -9.486  13.615  67.945  1.00  0.00    -0.213 A  
HETATM   14  C   UNL     1     -10.745  13.627  68.589  1.00  0.00    -0.256 A  
HETATM   15  C   UNL     1     -11.776  12.808  68.097  1.00  0.00    -0.392 A  
HETATM   16  C   UNL     1      -9.281  12.759  66.845  1.00  0.00    -0.229 A  
HETATM   17  C   UNL     1     -10.326  11.961  66.372  1.00  0.00    -0.219 A  
HETATM   18  C   UNL     1     -11.571  11.978  66.995  1.00  0.00    -0.387 A  
BRANCH  14  19
HETATM   19  O   UNL     1     -10.911  14.463  69.660  1.00  0.00    -0.233 OA 
HETATM   20  C   UNL     1     -12.034  15.336  69.663  1.00  0.00    -0.338 C  
ENDBRANCH  14  19
BRANCH  17  21
HETATM   21  S   UNL     1     -10.055  10.857  65.014  1.00  0.00    -0.318 S  
HETATM   22  O   UNL     1     -10.791  11.332  63.867  1.00  0.00    -0.375 OA 
HETATM   23  N   UNL     1      -8.435  11.118  64.676  1.00  0.00    -0.360 N  
HETATM   24  O   UNL     1     -10.148   9.496  65.491  1.00  0.00    -0.260 OA 
HETATM   25  H1  UNL     1      -8.279  10.483  63.894  1.00  0.00     0.000 HD 
HETATM   26  H2  UNL     1      -7.777  11.748  65.133  1.00  0.00     0.000 HD 
ENDBRANCH  17  21
ENDBRANCH  10  13
ENDBRANCH   8   9
ENDBRANCH   7   8
ENDBRANCH   2   3
TORSDOF 6
ENDMDL
MODEL      138
REMARK 921   NORMALIZED FREE ENERGY PREDICTED BY IDOCK:   -4.32 KCAL/MOL
REMARK 922        TOTAL FREE ENERGY PREDICTED BY IDOCK:   -6.92 KCAL/MOL
REMARK 923 INTER-LIGAND FREE ENERGY PREDICTED BY IDOCK:   -6.30 KCAL/MOL
REMARK 924 INTRA-LIGAND FREE ENERGY PREDICTED BY IDOCK:   -0.62 KCAL/MOL
REMARK 927      BINDING AFFINITY PREDICTED BY RF-SCORE:    0.00 PKD
ROOT
HETATM    1  C   UNL     1     -11.471  14.612  65.999  1.00  0.00    -0.332 C  
HETATM    2  C   UNL     1     -12.032  14.011  67.284  1.00  0.00    -0.413 C  
ENDROOT
BRANCH   2   3
HETATM    3  N   UNL     1     -11.415  14.574  68.495  1.00  0.00    -0.285 NA 
HETATM    4  C   UNL     1     -11.124  16.005  68.358  1.00  0.00    -0.351 C  
HETATM    5  C   UNL     1     -10.939  16.446  69.793  1.00  0.00    -0.341 C  
HETATM    6  C   UNL     1     -12.014  15.680  70.540  1.00  0.00    -0.417 C  
HETATM    7  C   UNL     1     -12.312  14.445  69.675  1.00  0.00    -0.255 C  
BRANCH   7   8
HETATM    8  C   UNL     1     -12.060  13.128  70.446  1.00  0.00    -0.317 C  
BRANCH   8   9
HETATM    9  N   UNL     1     -11.202  12.180  69.744  1.00  0.00    -0.488 N  
HETATM   10  C   UNL     1     -11.678  10.970  69.265  1.00  0.00    -0.326 C  
HETATM   11  H   UNL     1     -10.219  12.414  69.601  1.00  0.00     0.000 HD 
HETATM   12  O   UNL     1     -12.836  10.616  69.444  1.00  0.00    -0.144 OA 
BRANCH  10  13
HETATM   13  C   UNL     1     -10.686  10.105  68.535  1.00  0.00    -0.264 A  
HETATM   14  C   UNL     1     -10.222   8.888  69.087  1.00  0.00    -0.206 A  
HETATM   15  C   UNL     1      -9.283   8.123  68.373  1.00  0.00    -0.135 A  
HETATM   16  C   UNL     1     -10.174  10.541  67.298  1.00  0.00    -0.260 A  
HETATM   17  C   UNL     1      -9.246   9.758  66.605  1.00  0.00    -0.150 A  
HETATM   18  C   UNL     1      -8.796   8.553  67.139  1.00  0.00    -0.139 A  
BRANCH  14  19
HETATM   19  O   UNL     1     -10.732   8.494  70.295  1.00  0.00    -0.223 OA 
HETATM   20  C   UNL     1     -10.009   8.831  71.472  1.00  0.00    -0.300 C  
ENDBRANCH  14  19
BRANCH  17  21
HETATM   21  S   UNL     1      -8.575  10.327  65.069  1.00  0.00    -0.187 S  
HETATM   22  O   UNL     1      -9.150   9.560  63.990  1.00  0.00    -0.228 OA 
HETATM   23  N   UNL     1      -9.230  11.864  64.955  1.00  0.00    -0.413 N  
HETATM   24  O   UNL     1      -7.149  10.511  65.220  1.00  0.00    -0.124 OA 
HETATM   25  H1  UNL     1      -8.843  12.192  64.070  1.00  0.00     0.000 HD 
HETATM   26  H2  UNL     1      -9.853  12.347  65.602  1.00  0.00     0.000 HD 
ENDBRANCH  17  21
ENDBRANCH  10  13
ENDBRANCH   8   9
ENDBRANCH   7   8
ENDBRANCH   2   3
TORSDOF 6
ENDMDL
MODEL      139
REMARK 921   NORMALIZED FREE ENERGY PREDICTED BY IDOCK:   -4.31 KCAL/MOL
REMARK 922        TOTAL FREE ENERGY PREDICTED BY IDOCK:   -6.91 KCAL/MOL
REMARK 923 INTER-LIGAND FREE ENERGY PREDICTED BY IDOCK:   -6.22 KCAL/MOL
REMARK 924 INTRA-LIGAND FREE ENERGY PREDICTED BY IDOCK:   -0.69 KCAL/MOL
REMARK 927      BINDING AFFINITY PREDICTED BY RF-SCORE:    0.00 PKD
ROOT
HETATM    1  C   UNL     1      -8.967   4.805  70.993  1.00  0.00    -0.163 C  
HETATM    2  C   UNL     1     -10.321   5.374  70.578  1.00  0.00    -0.274 C  
ENDROOT
BRANCH   2   3
HETATM    3  N   UNL     1     -10.356   6.844  70.607  1.00  0.00    -0.199 NA 
HETATM    4  C   UNL     1     -10.810   7.365  71.900  1.00  0.00    -0.229 C  
HETATM    5  C   UNL     1     -10.349   8.806  71.860  1.00  0.00    -0.414 C  
HETATM    6  C   UNL     1      -8.983   8.721  71.204  1.00  0.00    -0.280 C  
HETATM    7  C   UNL     1      -9.007   7.427  70.376  1.00  0.00    -0.150 C  
BRANCH   7   8
HETATM    8  C   UNL     1      -8.748   7.698  68.876  1.00  0.00    -0.135 C  
BRANCH   8   9
HETATM    9  N   UNL     1      -9.155   9.026  68.430  1.00  0.00    -0.133 N  
HETATM   10  C   UNL     1     -10.107   9.211  67.440  1.00  0.00    -0.230 C  
HETATM   11  H   UNL     1      -8.726   9.845  68.860  1.00  0.00     0.000 HD 
HETATM   12  O   UNL     1     -10.625   8.267  66.858  1.00  0.00    -0.321 OA 
BRANCH  10  13
HETATM   13  C   UNL     1     -10.449  10.637  67.102  1.00  0.00    -0.295 A  
HETATM   14  C   UNL     1     -10.406  11.111  65.770  1.00  0.00    -0.260 A  
HETATM   15  C   UNL     1     -10.720  12.456  65.508  1.00  0.00    -0.315 A  
HETATM   16  C   UNL     1     -10.772  11.531  68.142  1.00  0.00    -0.242 A  
HETATM   17  C   UNL     1     -11.086  12.861  67.853  1.00  0.00    -0.252 A  
HETATM   18  C   UNL     1     -11.057  13.329  66.541  1.00  0.00    -0.313 A  
BRANCH  14  19
HETATM   19  O   UNL     1     -10.082  10.220  64.782  1.00  0.00    -0.344 OA 
HETATM   20  C   UNL     1      -9.570  10.733  63.558  1.00  0.00    -0.320 C  
ENDBRANCH  14  19
BRANCH  17  21
HETATM   21  S   UNL     1     -11.454  13.992  69.165  1.00  0.00    -0.315 S  
HETATM   22  O   UNL     1     -12.067  13.269  70.253  1.00  0.00    -0.343 OA 
HETATM   23  N   UNL     1      -9.922  14.421  69.689  1.00  0.00    -0.380 N  
HETATM   24  O   UNL     1     -12.033  15.191  68.602  1.00  0.00    -0.315 OA 
HETATM   25  H1  UNL     1     -10.134  15.073  70.445  1.00  0.00     0.000 HD 
HETATM   26  H2  UNL     1      -9.014  14.112  69.343  1.00  0.00     0.000 HD 
ENDBRANCH  17  21
ENDBRANCH  10  13
ENDBRANCH   8   9
ENDBRANCH   7   8
ENDBRANCH   2   3
TORSDOF 6
ENDMDL
MODEL      140
REMARK 921   NORMALIZED FREE ENERGY PREDICTED BY IDOCK:   -4.30 KCAL/MOL
REMARK 922        TOTAL FREE ENERGY PREDICTED BY IDOCK:   -6.90 KCAL/MOL
REMARK 923 INTER-LIGAND FREE ENERGY PREDICTED BY IDOCK:   -5.64 KCAL/MOL
REMARK 924 INTRA-LIGAND FREE ENERGY PREDICTED BY IDOCK:   -1.25 KCAL/MOL
REMARK 927      BINDING AFFINITY PREDICTED BY RF-SCORE:    0.00 PKD
ROOT
HETATM    1  C   UNL     1      -7.668   6.596  66.792  1.00  0.00    -0.106 C  
HETATM    2  C   UNL     1      -8.423   7.866  66.409  1.00  0.00    -0.138 C  
ENDROOT
BRANCH   2   3
HETATM    3  N   UNL     1      -8.384   8.894  67.461  1.00  0.00    -0.109 NA 
HETATM    4  C   UNL     1      -8.849   8.384  68.754  1.00  0.00    -0.140 C  
HETATM    5  C   UNL     1      -8.313   9.411  69.728  1.00  0.00    -0.161 C  
HETATM    6  C   UNL     1      -6.936   9.733  69.181  1.00  0.00    -0.055 C  
HETATM    7  C   UNL     1      -7.001   9.394  67.684  1.00  0.00    -0.081 C  
BRANCH   7   8
HETATM    8  C   UNL     1      -6.685  10.623  66.800  1.00  0.00    -0.103 C  
BRANCH   8   9
HETATM    9  N   UNL     1      -7.843  11.460  66.506  1.00  0.00    -0.262 N  
HETATM   10  C   UNL     1      -8.135  12.599  67.240  1.00  0.00    -0.178 C  
HETATM   11  H   UNL     1      -8.458  11.200  65.735  1.00  0.00     0.000 HD 
HETATM   12  O   UNL     1      -7.458  12.937  68.203  1.00  0.00    -0.103 OA 
BRANCH  10  13
HETATM   13  C   UNL     1      -9.344  13.381  66.804  1.00  0.00    -0.260 A  
HETATM   14  C   UNL     1     -10.583  12.746  66.553  1.00  0.00    -0.254 A  
HETATM   15  C   UNL     1     -11.679  13.519  66.133  1.00  0.00    -0.397 A  
HETATM   16  C   UNL     1      -9.226  14.770  66.596  1.00  0.00    -0.300 A  
HETATM   17  C   UNL     1     -10.334  15.515  66.185  1.00  0.00    -0.315 A  
HETATM   18  C   UNL     1     -11.558  14.896  65.948  1.00  0.00    -0.228 A  
BRANCH  14  19
HETATM   19  O   UNL     1     -10.665  11.395  66.756  1.00  0.00    -0.247 OA 
HETATM   20  C   UNL     1     -11.355  10.930  67.909  1.00  0.00    -0.308 C  
ENDBRANCH  14  19
BRANCH  17  21
HETATM   21  S   UNL     1     -10.173  17.253  65.887  1.00  0.00    -0.189 S  
HETATM   22  O   UNL     1     -11.159  17.658  64.914  1.00  0.00    -0.854 OA 
HETATM   23  N   UNL     1     -10.663  17.901  67.352  1.00  0.00    -0.343 N  
HETATM   24  O   UNL     1      -8.770  17.579  65.757  1.00  0.00    -0.514 OA 
HETATM   25  H1  UNL     1     -10.571  18.902  67.181  1.00  0.00     0.000 HD 
HETATM   26  H2  UNL     1     -10.973  17.420  68.196  1.00  0.00     0.000 HD 
ENDBRANCH  17  21
ENDBRANCH  10  13
ENDBRANCH   8   9
ENDBRANCH   7   8
ENDBRANCH   2   3
TORSDOF 6
ENDMDL
MODEL      141
REMARK 921   NORMALIZED FREE ENERGY PREDICTED BY IDOCK:   -4.30 KCAL/MOL
REMARK 922        TOTAL FREE ENERGY PREDICTED BY IDOCK:   -6.89 KCAL/MOL
REMARK 923 INTER-LIGAND FREE ENERGY PREDICTED BY IDOCK:   -5.92 KCAL/MOL
REMARK 924 INTRA-LIGAND FREE ENERGY PREDICTED BY IDOCK:   -0.97 KCAL/MOL
REMARK 927      BINDING AFFINITY PREDICTED BY RF-SCORE:    0.00 PKD
ROOT
HETATM    1  C   UNL     1      -7.060   7.649  63.642  1.00  0.00    -0.070 C  
HETATM    2  C   UNL     1      -7.914   8.391  64.667  1.00  0.00    -0.147 C  
ENDROOT
BRANCH   2   3
HETATM    3  N   UNL     1      -8.337   9.722  64.202  1.00  0.00    -0.155 NA 
HETATM    4  C   UNL     1      -8.821   9.699  62.818  1.00  0.00    -0.247 C  
HETATM    5  C   UNL     1      -9.592  10.998  62.715  1.00  0.00    -0.337 C  
HETATM    6  C   UNL     1     -10.298  11.098  64.053  1.00  0.00    -0.437 C  
HETATM    7  C   UNL     1      -9.454  10.257  65.025  1.00  0.00    -0.257 C  
BRANCH   7   8
HETATM    8  C   UNL     1      -8.939  11.098  66.215  1.00  0.00    -0.193 C  
BRANCH   8   9
HETATM    9  N   UNL     1      -9.126  12.536  66.057  1.00  0.00    -0.433 N  
HETATM   10  C   UNL     1      -9.099  13.406  67.136  1.00  0.00    -0.235 C  
HETATM   11  H   UNL     1      -9.281  12.914  65.123  1.00  0.00     0.000 HD 
HETATM   12  O   UNL     1      -8.959  13.006  68.284  1.00  0.00    -0.194 OA 
BRANCH  10  13
HETATM   13  C   UNL     1      -9.278  14.866  66.819  1.00  0.00    -0.281 A  
HETATM   14  C   UNL     1     -10.435  15.342  66.159  1.00  0.00    -0.316 A  
HETATM   15  C   UNL     1     -10.547  16.713  65.872  1.00  0.00    -0.257 A  
HETATM   16  C   UNL     1      -8.248  15.771  67.145  1.00  0.00    -0.237 A  
HETATM   17  C   UNL     1      -8.389  17.130  66.854  1.00  0.00    -0.224 A  
HETATM   18  C   UNL     1      -9.532  17.605  66.216  1.00  0.00    -0.232 A  
BRANCH  14  19
HETATM   19  O   UNL     1     -11.415  14.438  65.848  1.00  0.00    -0.331 OA 
HETATM   20  C   UNL     1     -11.956  14.459  64.533  1.00  0.00    -0.472 C  
ENDBRANCH  14  19
BRANCH  17  21
HETATM   21  S   UNL     1      -7.077  18.259  67.229  1.00  0.00    -0.200 S  
HETATM   22  O   UNL     1      -5.859  17.514  67.436  1.00  0.00    -0.129 OA 
HETATM   23  N   UNL     1      -6.893  19.068  65.775  1.00  0.00    -0.268 N  
HETATM   24  O   UNL     1      -7.560  19.241  68.174  1.00  0.00    -0.269 OA 
HETATM   25  H1  UNL     1      -6.137  19.719  65.991  1.00  0.00     0.000 HD 
HETATM   26  H2  UNL     1      -7.403  18.944  64.901  1.00  0.00     0.000 HD 
ENDBRANCH  17  21
ENDBRANCH  10  13
ENDBRANCH   8   9
ENDBRANCH   7   8
ENDBRANCH   2   3
TORSDOF 6
ENDMDL
MODEL      142
REMARK 921   NORMALIZED FREE ENERGY PREDICTED BY IDOCK:   -4.30 KCAL/MOL
REMARK 922        TOTAL FREE ENERGY PREDICTED BY IDOCK:   -6.89 KCAL/MOL
REMARK 923 INTER-LIGAND FREE ENERGY PREDICTED BY IDOCK:   -5.95 KCAL/MOL
REMARK 924 INTRA-LIGAND FREE ENERGY PREDICTED BY IDOCK:   -0.93 KCAL/MOL
REMARK 927      BINDING AFFINITY PREDICTED BY RF-SCORE:    0.00 PKD
ROOT
HETATM    1  C   UNL     1     -12.850  10.859  71.656  1.00  0.00    -0.554 C  
HETATM    2  C   UNL     1     -12.658   9.346  71.602  1.00  0.00    -0.375 C  
ENDROOT
BRANCH   2   3
HETATM    3  N   UNL     1     -11.281   8.955  71.265  1.00  0.00    -0.274 NA 
HETATM    4  C   UNL     1     -10.448   8.765  72.457  1.00  0.00    -0.026 C  
HETATM    5  C   UNL     1      -9.281   7.963  71.923  1.00  0.00    -0.202 C  
HETATM    6  C   UNL     1      -9.931   6.994  70.954  1.00  0.00    -0.200 C  
HETATM    7  C   UNL     1     -11.245   7.666  70.523  1.00  0.00    -0.261 C  
BRANCH   7   8
HETATM    8  C   UNL     1     -11.307   7.882  68.993  1.00  0.00     0.561 C  
BRANCH   8   9
HETATM    9  N   UNL     1     -10.961   9.233  68.566  1.00  0.00    -0.456 N  
HETATM   10  C   UNL     1     -10.618   9.527  67.256  1.00  0.00    -0.248 C  
HETATM   11  H   UNL     1     -10.972   9.987  69.253  1.00  0.00     0.000 HD 
HETATM   12  O   UNL     1     -10.547   8.657  66.397  1.00  0.00    -0.115 OA 
BRANCH  10  13
HETATM   13  C   UNL     1     -10.314  10.969  66.953  1.00  0.00    -0.279 A  
HETATM   14  C   UNL     1      -9.220  11.634  67.555  1.00  0.00    -0.172 A  
HETATM   15  C   UNL     1      -8.987  12.987  67.252  1.00  0.00    -0.212 A  
HETATM   16  C   UNL     1     -11.165  11.684  66.089  1.00  0.00    -0.314 A  
HETATM   17  C   UNL     1     -10.906  13.026  65.799  1.00  0.00    -0.272 A  
HETATM   18  C   UNL     1      -9.824  13.682  66.379  1.00  0.00    -0.302 A  
BRANCH  14  19
HETATM   19  O   UNL     1      -8.414  10.915  68.396  1.00  0.00    -0.127 OA 
HETATM   20  C   UNL     1      -7.015  10.904  68.141  1.00  0.00    -0.069 C  
ENDBRANCH  14  19
BRANCH  17  21
HETATM   21  S   UNL     1     -12.000  13.934  64.743  1.00  0.00    -0.430 S  
HETATM   22  O   UNL     1     -12.299  13.137  63.577  1.00  0.00    -0.680 OA 
HETATM   23  N   UNL     1     -13.404  13.976  65.656  1.00  0.00    -0.544 N  
HETATM   24  O   UNL     1     -11.540  15.301  64.656  1.00  0.00    -0.404 OA 
HETATM   25  H1  UNL     1     -14.034  14.499  65.048  1.00  0.00     0.000 HD 
HETATM   26  H2  UNL     1     -13.582  13.582  66.580  1.00  0.00     0.000 HD 
ENDBRANCH  17  21
ENDBRANCH  10  13
ENDBRANCH   8   9
ENDBRANCH   7   8
ENDBRANCH   2   3
TORSDOF 6
ENDMDL
MODEL      143
REMARK 921   NORMALIZED FREE ENERGY PREDICTED BY IDOCK:   -4.27 KCAL/MOL
REMARK 922        TOTAL FREE ENERGY PREDICTED BY IDOCK:   -6.85 KCAL/MOL
REMARK 923 INTER-LIGAND FREE ENERGY PREDICTED BY IDOCK:   -5.72 KCAL/MOL
REMARK 924 INTRA-LIGAND FREE ENERGY PREDICTED BY IDOCK:   -1.13 KCAL/MOL
REMARK 927      BINDING AFFINITY PREDICTED BY RF-SCORE:    0.00 PKD
ROOT
HETATM    1  C   UNL     1     -10.862  19.699  65.502  1.00  0.00    -0.262 C  
HETATM    2  C   UNL     1      -9.753  20.202  66.422  1.00  0.00    -0.415 C  
ENDROOT
BRANCH   2   3
HETATM    3  N   UNL     1      -8.834  19.134  66.847  1.00  0.00    -0.294 NA 
HETATM    4  C   UNL     1      -7.430  19.479  66.605  1.00  0.00    -0.250 C  
HETATM    5  C   UNL     1      -6.690  18.500  67.491  1.00  0.00    -0.203 C  
HETATM    6  C   UNL     1      -7.537  18.449  68.747  1.00  0.00    -0.295 C  
HETATM    7  C   UNL     1      -8.950  18.862  68.304  1.00  0.00    -0.328 C  
BRANCH   7   8
HETATM    8  C   UNL     1      -9.992  17.760  68.602  1.00  0.00    -0.379 C  
BRANCH   8   9
HETATM    9  N   UNL     1      -9.472  16.401  68.493  1.00  0.00    -0.219 N  
HETATM   10  C   UNL     1      -9.701  15.612  67.377  1.00  0.00    -0.222 C  
HETATM   11  H   UNL     1      -8.923  16.019  69.263  1.00  0.00     0.000 HD 
HETATM   12  O   UNL     1     -10.388  16.001  66.441  1.00  0.00    -0.286 OA 
BRANCH  10  13
HETATM   13  C   UNL     1      -9.079  14.242  67.390  1.00  0.00    -0.199 A  
HETATM   14  C   UNL     1      -7.677  14.068  67.466  1.00  0.00    -0.182 A  
HETATM   15  C   UNL     1      -7.144  12.768  67.459  1.00  0.00    -0.148 A  
HETATM   16  C   UNL     1      -9.909  13.109  67.277  1.00  0.00    -0.232 A  
HETATM   17  C   UNL     1      -9.353  11.827  67.281  1.00  0.00    -0.171 A  
HETATM   18  C   UNL     1      -7.974  11.652  67.367  1.00  0.00    -0.147 A  
BRANCH  14  19
HETATM   19  O   UNL     1      -6.896  15.188  67.567  1.00  0.00    -0.166 OA 
HETATM   20  C   UNL     1      -5.668  15.089  68.278  1.00  0.00    -0.121 C  
ENDBRANCH  14  19
BRANCH  17  21
HETATM   21  S   UNL     1     -10.395  10.408  67.100  1.00  0.00    -0.252 S  
HETATM   22  O   UNL     1     -10.178   9.826  65.797  1.00  0.00    -0.264 OA 
HETATM   23  N   UNL     1      -9.725   9.345  68.207  1.00  0.00    -0.143 N  
HETATM   24  O   UNL     1     -11.713  10.726  67.600  1.00  0.00    -0.538 OA 
HETATM   25  H1  UNL     1     -10.325   8.527  68.103  1.00  0.00     0.000 HD 
HETATM   26  H2  UNL     1      -8.925   9.480  68.825  1.00  0.00     0.000 HD 
ENDBRANCH  17  21
ENDBRANCH  10  13
ENDBRANCH   8   9
ENDBRANCH   7   8
ENDBRANCH   2   3
TORSDOF 6
ENDMDL
MODEL      144
REMARK 921   NORMALIZED FREE ENERGY PREDICTED BY IDOCK:   -4.26 KCAL/MOL
REMARK 922        TOTAL FREE ENERGY PREDICTED BY IDOCK:   -6.84 KCAL/MOL
REMARK 923 INTER-LIGAND FREE ENERGY PREDICTED BY IDOCK:   -5.90 KCAL/MOL
REMARK 924 INTRA-LIGAND FREE ENERGY PREDICTED BY IDOCK:   -0.94 KCAL/MOL
REMARK 927      BINDING AFFINITY PREDICTED BY RF-SCORE:    0.00 PKD
ROOT
HETATM    1  C   UNL     1      -7.803   6.343  66.620  1.00  0.00    -0.104 C  
HETATM    2  C   UNL     1      -7.111   7.206  67.672  1.00  0.00    -0.089 C  
ENDROOT
BRANCH   2   3
HETATM    3  N   UNL     1      -8.057   8.000  68.471  1.00  0.00    -0.124 NA 
HETATM    4  C   UNL     1      -7.969   7.696  69.902  1.00  0.00    -0.115 C  
HETATM    5  C   UNL     1      -8.652   8.886  70.539  1.00  0.00    -0.208 C  
HETATM    6  C   UNL     1      -8.174  10.058  69.702  1.00  0.00    -0.185 C  
HETATM    7  C   UNL     1      -7.792   9.458  68.340  1.00  0.00    -0.090 C  
BRANCH   7   8
HETATM    8  C   UNL     1      -8.606  10.087  67.185  1.00  0.00    -0.128 C  
BRANCH   8   9
HETATM    9  N   UNL     1      -9.184  11.389  67.502  1.00  0.00    -0.159 N  
HETATM   10  C   UNL     1     -10.553  11.599  67.534  1.00  0.00    -0.209 C  
HETATM   11  H   UNL     1      -8.561  12.170  67.706  1.00  0.00     0.000 HD 
HETATM   12  O   UNL     1     -11.349  10.711  67.256  1.00  0.00    -0.380 OA 
BRANCH  10  13
HETATM   13  C   UNL     1     -11.007  12.985  67.904  1.00  0.00    -0.264 A  
HETATM   14  C   UNL     1     -10.803  14.084  67.037  1.00  0.00    -0.290 A  
HETATM   15  C   UNL     1     -11.231  15.362  67.436  1.00  0.00    -0.287 A  
HETATM   16  C   UNL     1     -11.604  13.200  69.161  1.00  0.00    -0.368 A  
HETATM   17  C   UNL     1     -12.027  14.479  69.530  1.00  0.00    -0.319 A  
HETATM   18  C   UNL     1     -11.839  15.562  68.674  1.00  0.00    -0.318 A  
BRANCH  14  19
HETATM   19  O   UNL     1     -10.213  13.846  65.825  1.00  0.00    -0.298 OA 
HETATM   20  C   UNL     1     -10.895  14.269  64.651  1.00  0.00    -0.368 C  
ENDBRANCH  14  19
BRANCH  17  21
HETATM   21  S   UNL     1     -12.742  14.753  71.126  1.00  0.00    -0.363 S  
HETATM   22  O   UNL     1     -14.006  15.431  70.966  1.00  0.00    -0.470 OA 
HETATM   23  N   UNL     1     -13.103  13.192  71.614  1.00  0.00    -0.383 N  
HETATM   24  O   UNL     1     -11.714  15.225  72.026  1.00  0.00    -0.385 OA 
HETATM   25  H1  UNL     1     -13.515  13.350  72.534  1.00  0.00     0.000 HD 
HETATM   26  H2  UNL     1     -12.951  12.313  71.121  1.00  0.00     0.000 HD 
ENDBRANCH  17  21
ENDBRANCH  10  13
ENDBRANCH   8   9
ENDBRANCH   7   8
ENDBRANCH   2   3
TORSDOF 6
ENDMDL
MODEL      145
REMARK 921   NORMALIZED FREE ENERGY PREDICTED BY IDOCK:   -4.26 KCAL/MOL
REMARK 922        TOTAL FREE ENERGY PREDICTED BY IDOCK:   -6.84 KCAL/MOL
REMARK 923 INTER-LIGAND FREE ENERGY PREDICTED BY IDOCK:   -5.89 KCAL/MOL
REMARK 924 INTRA-LIGAND FREE ENERGY PREDICTED BY IDOCK:   -0.95 KCAL/MOL
REMARK 927      BINDING AFFINITY PREDICTED BY RF-SCORE:    0.00 PKD
ROOT
HETATM    1  C   UNL     1      -7.729   6.407  65.041  1.00  0.00    -0.098 C  
HETATM    2  C   UNL     1      -8.637   7.028  66.099  1.00  0.00    -0.143 C  
ENDROOT
BRANCH   2   3
HETATM    3  N   UNL     1      -8.646   8.498  66.054  1.00  0.00    -0.135 NA 
HETATM    4  C   UNL     1      -8.064   9.020  64.813  1.00  0.00    -0.144 C  
HETATM    5  C   UNL     1      -8.573  10.445  64.781  1.00  0.00    -0.190 C  
HETATM    6  C   UNL     1     -10.001  10.322  65.279  1.00  0.00    -0.387 C  
HETATM    7  C   UNL     1     -10.030   9.038  66.123  1.00  0.00    -0.241 C  
BRANCH   7   8
HETATM    8  C   UNL     1     -10.466   9.316  67.580  1.00  0.00    -0.274 C  
BRANCH   8   9
HETATM    9  N   UNL     1     -10.887  10.692  67.826  1.00  0.00    -0.263 N  
HETATM   10  C   UNL     1     -10.016  11.652  68.314  1.00  0.00    -0.201 C  
HETATM   11  H   UNL     1     -11.853  10.955  67.631  1.00  0.00     0.000 HD 
HETATM   12  O   UNL     1      -8.857  11.384  68.606  1.00  0.00    -0.164 OA 
BRANCH  10  13
HETATM   13  C   UNL     1     -10.581  13.036  68.492  1.00  0.00    -0.274 A  
HETATM   14  C   UNL     1     -11.658  13.286  69.374  1.00  0.00    -0.305 A  
HETATM   15  C   UNL     1     -12.160  14.593  69.492  1.00  0.00    -0.335 A  
HETATM   16  C   UNL     1     -10.056  14.095  67.726  1.00  0.00    -0.239 A  
HETATM   17  C   UNL     1     -10.569  15.387  67.868  1.00  0.00    -0.267 A  
HETATM   18  C   UNL     1     -11.621  15.640  68.745  1.00  0.00    -0.393 A  
BRANCH  14  19
HETATM   19  O   UNL     1     -12.151  12.235  70.099  1.00  0.00    -0.327 OA 
HETATM   20  C   UNL     1     -12.826  12.518  71.319  1.00  0.00    -0.241 C  
ENDBRANCH  14  19
BRANCH  17  21
HETATM   21  S   UNL     1      -9.934  16.709  66.877  1.00  0.00    -0.280 S  
HETATM   22  O   UNL     1     -10.707  17.901  67.129  1.00  0.00    -0.331 OA 
HETATM   23  N   UNL     1      -8.431  16.968  67.570  1.00  0.00    -0.198 N  
HETATM   24  O   UNL     1      -9.677  16.214  65.543  1.00  0.00    -0.455 OA 
HETATM   25  H1  UNL     1      -8.065  17.730  66.999  1.00  0.00     0.000 HD 
HETATM   26  H2  UNL     1      -7.995  16.489  68.357  1.00  0.00     0.000 HD 
ENDBRANCH  17  21
ENDBRANCH  10  13
ENDBRANCH   8   9
ENDBRANCH   7   8
ENDBRANCH   2   3
TORSDOF 6
ENDMDL
MODEL      146
REMARK 921   NORMALIZED FREE ENERGY PREDICTED BY IDOCK:   -4.26 KCAL/MOL
REMARK 922        TOTAL FREE ENERGY PREDICTED BY IDOCK:   -6.83 KCAL/MOL
REMARK 923 INTER-LIGAND FREE ENERGY PREDICTED BY IDOCK:   -5.90 KCAL/MOL
REMARK 924 INTRA-LIGAND FREE ENERGY PREDICTED BY IDOCK:   -0.93 KCAL/MOL
REMARK 927      BINDING AFFINITY PREDICTED BY RF-SCORE:    0.00 PKD
ROOT
HETATM    1  C   UNL     1      -7.615   7.087  70.309  1.00  0.00    -0.087 C  
HETATM    2  C   UNL     1      -7.578   8.588  70.034  1.00  0.00    -0.064 C  
ENDROOT
BRANCH   2   3
HETATM    3  N   UNL     1      -8.108   8.939  68.707  1.00  0.00    -0.112 NA 
HETATM    4  C   UNL     1      -7.046   9.091  67.707  1.00  0.00    -0.079 C  
HETATM    5  C   UNL     1      -7.804   8.995  66.401  1.00  0.00    -0.099 C  
HETATM    6  C   UNL     1      -8.825   7.905  66.663  1.00  0.00    -0.166 C  
HETATM    7  C   UNL     1      -9.020   7.885  68.187  1.00  0.00    -0.131 C  
BRANCH   7   8
HETATM    8  C   UNL     1     -10.490   8.153  68.583  1.00  0.00    -0.165 C  
BRANCH   8   9
HETATM    9  N   UNL     1     -10.826   9.566  68.716  1.00  0.00    -0.377 N  
HETATM   10  C   UNL     1     -11.001  10.169  69.952  1.00  0.00    -0.293 C  
HETATM   11  H   UNL     1     -10.936  10.129  67.873  1.00  0.00     0.000 HD 
HETATM   12  O   UNL     1     -10.924   9.534  70.996  1.00  0.00    -0.298 OA 
BRANCH  10  13
HETATM   13  C   UNL     1     -11.315  11.640  69.937  1.00  0.00    -0.230 A  
HETATM   14  C   UNL     1     -10.770  12.502  68.956  1.00  0.00    -0.097 A  
HETATM   15  C   UNL     1     -11.082  13.872  68.995  1.00  0.00    -0.302 A  
HETATM   16  C   UNL     1     -12.133  12.178  70.950  1.00  0.00    -0.181 A  
HETATM   17  C   UNL     1     -12.433  13.543  70.961  1.00  0.00    -0.369 A  
HETATM   18  C   UNL     1     -11.908  14.392  69.991  1.00  0.00    -0.377 A  
BRANCH  14  19
HETATM   19  O   UNL     1      -9.973  11.951  67.989  1.00  0.00    -0.179 OA 
HETATM   20  C   UNL     1      -8.698  12.536  67.755  1.00  0.00    -0.178 C  
ENDBRANCH  14  19
BRANCH  17  21
HETATM   21  S   UNL     1     -13.428  14.223  72.258  1.00  0.00    -0.504 S  
HETATM   22  O   UNL     1     -12.592  15.013  73.130  1.00  0.00    -0.401 OA 
HETATM   23  N   UNL     1     -14.391  15.307  71.420  1.00  0.00    -0.652 N  
HETATM   24  O   UNL     1     -14.319  13.197  72.752  1.00  0.00    -0.551 OA 
HETATM   25  H1  UNL     1     -14.965  15.699  72.167  1.00  0.00     0.000 HD 
HETATM   26  H2  UNL     1     -14.402  15.520  70.423  1.00  0.00     0.000 HD 
ENDBRANCH  17  21
ENDBRANCH  10  13
ENDBRANCH   8   9
ENDBRANCH   7   8
ENDBRANCH   2   3
TORSDOF 6
ENDMDL
MODEL      147
REMARK 921   NORMALIZED FREE ENERGY PREDICTED BY IDOCK:   -4.24 KCAL/MOL
REMARK 922        TOTAL FREE ENERGY PREDICTED BY IDOCK:   -6.81 KCAL/MOL
REMARK 923 INTER-LIGAND FREE ENERGY PREDICTED BY IDOCK:   -6.14 KCAL/MOL
REMARK 924 INTRA-LIGAND FREE ENERGY PREDICTED BY IDOCK:   -0.67 KCAL/MOL
REMARK 927      BINDING AFFINITY PREDICTED BY RF-SCORE:    0.00 PKD
ROOT
HETATM    1  C   UNL     1     -11.760  14.565  64.081  1.00  0.00    -0.222 C  
HETATM    2  C   UNL     1     -12.338  13.206  63.695  1.00  0.00    -0.404 C  
ENDROOT
BRANCH   2   3
HETATM    3  N   UNL     1     -11.782  12.102  64.494  1.00  0.00    -0.348 NA 
HETATM    4  C   UNL     1     -10.837  11.283  63.729  1.00  0.00    -0.350 C  
HETATM    5  C   UNL     1     -10.085  10.542  64.813  1.00  0.00    -0.406 C  
HETATM    6  C   UNL     1      -9.901  11.589  65.895  1.00  0.00    -0.262 C  
HETATM    7  C   UNL     1     -11.032  12.606  65.675  1.00  0.00    -0.280 C  
BRANCH   7   8
HETATM    8  C   UNL     1     -11.941  12.735  66.920  1.00  0.00    -0.310 C  
BRANCH   8   9
HETATM    9  N   UNL     1     -11.746  11.685  67.913  1.00  0.00    -0.288 N  
HETATM   10  C   UNL     1     -11.412  11.967  69.228  1.00  0.00    -0.301 C  
HETATM   11  H   UNL     1     -11.858  10.711  67.631  1.00  0.00     0.000 HD 
HETATM   12  O   UNL     1     -11.223  13.114  69.614  1.00  0.00    -0.153 OA 
BRANCH  10  13
HETATM   13  C   UNL     1     -11.271  10.785  70.149  1.00  0.00    -0.345 A  
HETATM   14  C   UNL     1     -12.285  10.447  71.076  1.00  0.00    -0.393 A  
HETATM   15  C   UNL     1     -12.099   9.343  71.925  1.00  0.00    -0.427 A  
HETATM   16  C   UNL     1     -10.083  10.029  70.119  1.00  0.00    -0.266 A  
HETATM   17  C   UNL     1      -9.927   8.932  70.970  1.00  0.00    -0.256 A  
HETATM   18  C   UNL     1     -10.927   8.588  71.875  1.00  0.00    -0.394 A  
BRANCH  14  19
HETATM   19  O   UNL     1     -13.425  11.205  71.087  1.00  0.00     0.003 OA 
HETATM   20  C   UNL     1     -13.542  12.228  72.069  1.00  0.00    -0.208 C  
ENDBRANCH  14  19
BRANCH  17  21
HETATM   21  S   UNL     1      -8.418   8.007  70.957  1.00  0.00    -0.135 S  
HETATM   22  O   UNL     1      -7.404   8.749  71.668  1.00  0.00    -0.143 OA 
HETATM   23  N   UNL     1      -8.808   6.697  71.926  1.00  0.00    -0.133 N  
HETATM   24  O   UNL     1      -8.206   7.472  69.631  1.00  0.00    -0.125 OA 
HETATM   25  H1  UNL     1      -7.939   6.164  71.919  1.00  0.00     0.000 HD 
HETATM   26  H2  UNL     1      -9.686   6.487  72.400  1.00  0.00     0.000 HD 
ENDBRANCH  17  21
ENDBRANCH  10  13
ENDBRANCH   8   9
ENDBRANCH   7   8
ENDBRANCH   2   3
TORSDOF 6
ENDMDL
MODEL      148
REMARK 921   NORMALIZED FREE ENERGY PREDICTED BY IDOCK:   -4.23 KCAL/MOL
REMARK 922        TOTAL FREE ENERGY PREDICTED BY IDOCK:   -6.80 KCAL/MOL
REMARK 923 INTER-LIGAND FREE ENERGY PREDICTED BY IDOCK:   -5.74 KCAL/MOL
REMARK 924 INTRA-LIGAND FREE ENERGY PREDICTED BY IDOCK:   -1.06 KCAL/MOL
REMARK 927      BINDING AFFINITY PREDICTED BY RF-SCORE:    0.00 PKD
ROOT
HETATM    1  C   UNL     1     -12.005  15.220  69.689  1.00  0.00    -0.364 C  
HETATM    2  C   UNL     1     -10.682  14.673  69.161  1.00  0.00    -0.255 C  
ENDROOT
BRANCH   2   3
HETATM    3  N   UNL     1     -10.851  13.469  68.333  1.00  0.00    -0.258 NA 
HETATM    4  C   UNL     1     -12.005  13.569  67.435  1.00  0.00    -0.357 C  
HETATM    5  C   UNL     1     -11.726  12.488  66.413  1.00  0.00    -0.458 C  
HETATM    6  C   UNL     1     -10.231  12.592  66.186  1.00  0.00    -0.272 C  
HETATM    7  C   UNL     1      -9.667  13.234  67.464  1.00  0.00    -0.224 C  
BRANCH   7   8
HETATM    8  C   UNL     1      -8.621  12.327  68.151  1.00  0.00    -0.181 C  
BRANCH   8   9
HETATM    9  N   UNL     1      -9.188  11.366  69.091  1.00  0.00    -0.404 N  
HETATM   10  C   UNL     1      -9.425  10.046  68.742  1.00  0.00    -0.162 C  
HETATM   11  H   UNL     1      -9.418  11.675  70.035  1.00  0.00     0.000 HD 
HETATM   12  O   UNL     1      -9.209   9.628  67.611  1.00  0.00    -0.131 OA 
BRANCH  10  13
HETATM   13  C   UNL     1      -9.987   9.161  69.822  1.00  0.00    -0.204 A  
HETATM   14  C   UNL     1     -10.940   9.644  70.750  1.00  0.00    -0.327 A  
HETATM   15  C   UNL     1     -11.422   8.782  71.750  1.00  0.00    -0.413 A  
HETATM   16  C   UNL     1      -9.517   7.839  69.940  1.00  0.00    -0.160 A  
HETATM   17  C   UNL     1     -10.019   7.002  70.940  1.00  0.00    -0.193 A  
HETATM   18  C   UNL     1     -10.966   7.468  71.847  1.00  0.00    -0.272 A  
BRANCH  14  19
HETATM   19  O   UNL     1     -11.372  10.936  70.614  1.00  0.00    -0.256 OA 
HETATM   20  C   UNL     1     -12.764  11.196  70.741  1.00  0.00    -0.297 C  
ENDBRANCH  14  19
BRANCH  17  21
HETATM   21  S   UNL     1      -9.398   5.352  71.111  1.00  0.00    -0.153 S  
HETATM   22  O   UNL     1      -9.098   4.823  69.802  1.00  0.00    -0.098 OA 
HETATM   23  N   UNL     1      -7.924   5.614  71.862  1.00  0.00    -0.110 N  
HETATM   24  O   UNL     1     -10.214   4.641  72.070  1.00  0.00    -0.190 OA 
HETATM   25  H1  UNL     1      -7.567   4.664  71.960  1.00  0.00     0.000 HD 
HETATM   26  H2  UNL     1      -7.496   6.495  72.147  1.00  0.00     0.000 HD 
ENDBRANCH  17  21
ENDBRANCH  10  13
ENDBRANCH   8   9
ENDBRANCH   7   8
ENDBRANCH   2   3
TORSDOF 6
ENDMDL
MODEL      149
REMARK 921   NORMALIZED FREE ENERGY PREDICTED BY IDOCK:   -4.22 KCAL/MOL
REMARK 922        TOTAL FREE ENERGY PREDICTED BY IDOCK:   -6.78 KCAL/MOL
REMARK 923 INTER-LIGAND FREE ENERGY PREDICTED BY IDOCK:   -6.01 KCAL/MOL
REMARK 924 INTRA-LIGAND FREE ENERGY PREDICTED BY IDOCK:   -0.77 KCAL/MOL
REMARK 927      BINDING AFFINITY PREDICTED BY RF-SCORE:    0.00 PKD
ROOT
HETATM    1  C   UNL     1     -10.920  12.504  64.331  1.00  0.00    -0.378 C  
HETATM    2  C   UNL     1     -11.987  12.591  65.418  1.00  0.00    -0.437 C  
ENDROOT
BRANCH   2   3
HETATM    3  N   UNL     1     -11.419  12.689  66.771  1.00  0.00    -0.330 NA 
HETATM    4  C   UNL     1     -11.928  13.852  67.506  1.00  0.00    -0.386 C  
HETATM    5  C   UNL     1     -11.591  13.512  68.942  1.00  0.00    -0.364 C  
HETATM    6  C   UNL     1     -11.883  12.026  69.032  1.00  0.00    -0.372 C  
HETATM    7  C   UNL     1     -11.758  11.497  67.594  1.00  0.00    -0.208 C  
BRANCH   7   8
HETATM    8  C   UNL     1     -10.681  10.394  67.478  1.00  0.00    -0.287 C  
BRANCH   8   9
HETATM    9  N   UNL     1     -10.707   9.417  68.561  1.00  0.00    -0.357 N  
HETATM   10  C   UNL     1     -10.839   8.058  68.325  1.00  0.00     0.086 C  
HETATM   11  H   UNL     1     -10.624   9.745  69.524  1.00  0.00     0.000 HD 
HETATM   12  O   UNL     1     -10.984   7.611  67.195  1.00  0.00    -0.266 OA 
BRANCH  10  13
HETATM   13  C   UNL     1     -10.820   7.166  69.537  1.00  0.00    -0.244 A  
HETATM   14  C   UNL     1     -11.450   7.548  70.745  1.00  0.00    -0.284 A  
HETATM   15  C   UNL     1     -11.391   6.687  71.853  1.00  0.00    -0.318 A  
HETATM   16  C   UNL     1     -10.118   5.946  69.481  1.00  0.00    -0.262 A  
HETATM   17  C   UNL     1     -10.081   5.105  70.596  1.00  0.00    -0.239 A  
HETATM   18  C   UNL     1     -10.711   5.472  71.783  1.00  0.00    -0.289 A  
BRANCH  14  19
HETATM   19  O   UNL     1     -12.118   8.743  70.770  1.00  0.00    -0.218 OA 
HETATM   20  C   UNL     1     -12.567   9.235  72.027  1.00  0.00    -0.390 C  
ENDBRANCH  14  19
BRANCH  17  21
HETATM   21  S   UNL     1      -9.166   3.591  70.536  1.00  0.00    -0.158 S  
HETATM   22  O   UNL     1      -7.771   3.872  70.775  1.00  0.00    -0.050 OA 
HETATM   23  N   UNL     1      -9.726   2.795  71.899  1.00  0.00    -0.143 N  
HETATM   24  O   UNL     1      -9.621   2.813  69.405  1.00  0.00    -0.121 OA 
HETATM   25  H1  UNL     1      -9.199   1.922  71.864  1.00  0.00     0.000 HD 
HETATM   26  H2  UNL     1     -10.415   3.102  72.585  1.00  0.00     0.000 HD 
ENDBRANCH  17  21
ENDBRANCH  10  13
ENDBRANCH   8   9
ENDBRANCH   7   8
ENDBRANCH   2   3
TORSDOF 6
ENDMDL
MODEL      150
REMARK 921   NORMALIZED FREE ENERGY PREDICTED BY IDOCK:   -4.21 KCAL/MOL
REMARK 922        TOTAL FREE ENERGY PREDICTED BY IDOCK:   -6.77 KCAL/MOL
REMARK 923 INTER-LIGAND FREE ENERGY PREDICTED BY IDOCK:   -5.97 KCAL/MOL
REMARK 924 INTRA-LIGAND FREE ENERGY PREDICTED BY IDOCK:   -0.80 KCAL/MOL
REMARK 927      BINDING AFFINITY PREDICTED BY RF-SCORE:    0.00 PKD
ROOT
HETATM    1  C   UNL     1      -8.030  14.471  67.806  1.00  0.00    -0.168 C  
HETATM    2  C   UNL     1      -9.397  14.964  68.272  1.00  0.00    -0.195 C  
ENDROOT
BRANCH   2   3
HETATM    3  N   UNL     1     -10.376  15.051  67.178  1.00  0.00    -0.254 NA 
HETATM    4  C   UNL     1     -10.222  16.277  66.390  1.00  0.00    -0.313 C  
HETATM    5  C   UNL     1     -10.976  15.952  65.118  1.00  0.00    -0.389 C  
HETATM    6  C   UNL     1     -10.615  14.503  64.853  1.00  0.00    -0.450 C  
HETATM    7  C   UNL     1     -10.229  13.921  66.223  1.00  0.00    -0.297 C  
BRANCH   7   8
HETATM    8  C   UNL     1     -11.123  12.721  66.611  1.00  0.00    -0.276 C  
BRANCH   8   9
HETATM    9  N   UNL     1     -10.419  11.444  66.665  1.00  0.00    -0.234 N  
HETATM   10  C   UNL     1     -10.212  10.668  65.536  1.00  0.00    -0.262 C  
HETATM   11  H   UNL     1     -10.068  11.112  67.563  1.00  0.00     0.000 HD 
HETATM   12  O   UNL     1     -10.648  10.995  64.439  1.00  0.00    -0.352 OA 
BRANCH  10  13
HETATM   13  C   UNL     1      -9.445   9.389  65.738  1.00  0.00    -0.325 A  
HETATM   14  C   UNL     1      -8.108   9.253  65.297  1.00  0.00    -0.121 A  
HETATM   15  C   UNL     1      -7.440   8.033  65.495  1.00  0.00    -0.081 A  
HETATM   16  C   UNL     1     -10.090   8.288  66.336  1.00  0.00    -0.222 A  
HETATM   17  C   UNL     1      -9.399   7.089  66.527  1.00  0.00    -0.159 A  
HETATM   18  C   UNL     1      -8.079   6.955  66.106  1.00  0.00    -0.115 A  
BRANCH  14  19
HETATM   19  O   UNL     1      -7.511  10.338  64.713  1.00  0.00    -0.143 OA 
HETATM   20  C   UNL     1      -6.781  10.135  63.509  1.00  0.00    -0.124 C  
ENDBRANCH  14  19
BRANCH  17  21
HETATM   21  S   UNL     1     -10.223   5.695  67.244  1.00  0.00    -0.232 S  
HETATM   22  O   UNL     1     -11.220   6.164  68.176  1.00  0.00    -0.314 OA 
HETATM   23  N   UNL     1     -11.060   5.077  65.931  1.00  0.00    -0.825 N  
HETATM   24  O   UNL     1      -9.238   4.697  67.594  1.00  0.00    -0.117 OA 
HETATM   25  H1  UNL     1     -11.534   4.274  66.344  1.00  0.00     0.000 HD 
HETATM   26  H2  UNL     1     -11.087   5.415  64.970  1.00  0.00     0.000 HD 
ENDBRANCH  17  21
ENDBRANCH  10  13
ENDBRANCH   8   9
ENDBRANCH   7   8
ENDBRANCH   2   3
TORSDOF 6
ENDMDL
MODEL      151
REMARK 921   NORMALIZED FREE ENERGY PREDICTED BY IDOCK:   -4.19 KCAL/MOL
REMARK 922        TOTAL FREE ENERGY PREDICTED BY IDOCK:   -6.74 KCAL/MOL
REMARK 923 INTER-LIGAND FREE ENERGY PREDICTED BY IDOCK:   -5.52 KCAL/MOL
REMARK 924 INTRA-LIGAND FREE ENERGY PREDICTED BY IDOCK:   -1.21 KCAL/MOL
REMARK 927      BINDING AFFINITY PREDICTED BY RF-SCORE:    0.00 PKD
ROOT
HETATM    1  C   UNL     1      -6.521  19.891  65.220  1.00  0.00    -0.308 C  
HETATM    2  C   UNL     1      -6.508  18.388  65.484  1.00  0.00    -0.268 C  
ENDROOT
BRANCH   2   3
HETATM    3  N   UNL     1      -7.218  18.018  66.719  1.00  0.00    -0.197 NA 
HETATM    4  C   UNL     1      -6.425  18.296  67.920  1.00  0.00    -0.195 C  
HETATM    5  C   UNL     1      -7.466  18.277  69.018  1.00  0.00    -0.189 C  
HETATM    6  C   UNL     1      -8.659  18.970  68.387  1.00  0.00    -0.383 C  
HETATM    7  C   UNL     1      -8.484  18.784  66.871  1.00  0.00    -0.279 C  
BRANCH   7   8
HETATM    8  C   UNL     1      -9.683  18.040  66.240  1.00  0.00    -0.270 C  
BRANCH   8   9
HETATM    9  N   UNL     1      -9.497  16.598  66.119  1.00  0.00    -0.294 N  
HETATM   10  C   UNL     1      -9.966  15.712  67.076  1.00  0.00    -0.240 C  
HETATM   11  H   UNL     1      -9.005  16.231  65.305  1.00  0.00     0.000 HD 
HETATM   12  O   UNL     1     -10.526  16.098  68.094  1.00  0.00    -0.259 OA 
BRANCH  10  13
HETATM   13  C   UNL     1      -9.727  14.251  66.805  1.00  0.00    -0.282 A  
HETATM   14  C   UNL     1     -10.472  13.550  65.828  1.00  0.00    -0.291 A  
HETATM   15  C   UNL     1     -10.221  12.182  65.623  1.00  0.00    -0.285 A  
HETATM   16  C   UNL     1      -8.774  13.557  67.576  1.00  0.00    -0.208 A  
HETATM   17  C   UNL     1      -8.540  12.199  67.347  1.00  0.00    -0.175 A  
HETATM   18  C   UNL     1      -9.262  11.507  66.377  1.00  0.00    -0.218 A  
BRANCH  14  19
HETATM   19  O   UNL     1     -11.396  14.250  65.100  1.00  0.00    -0.318 OA 
HETATM   20  C   UNL     1     -12.772  14.066  65.407  1.00  0.00    -0.471 C  
ENDBRANCH  14  19
BRANCH  17  21
HETATM   21  S   UNL     1      -7.370  11.319  68.343  1.00  0.00    -0.104 S  
HETATM   22  O   UNL     1      -6.873  12.198  69.374  1.00  0.00    -0.090 OA 
HETATM   23  N   UNL     1      -8.347  10.196  69.112  1.00  0.00    -0.142 N  
HETATM   24  O   UNL     1      -6.495  10.560  67.478  1.00  0.00    -0.057 OA 
HETATM   25  H1  UNL     1      -7.673   9.690  69.686  1.00  0.00     0.000 HD 
HETATM   26  H2  UNL     1      -9.353  10.056  69.028  1.00  0.00     0.000 HD 
ENDBRANCH  17  21
ENDBRANCH  10  13
ENDBRANCH   8   9
ENDBRANCH   7   8
ENDBRANCH   2   3
TORSDOF 6
ENDMDL
MODEL      152
REMARK 921   NORMALIZED FREE ENERGY PREDICTED BY IDOCK:   -4.18 KCAL/MOL
REMARK 922        TOTAL FREE ENERGY PREDICTED BY IDOCK:   -6.73 KCAL/MOL
REMARK 923 INTER-LIGAND FREE ENERGY PREDICTED BY IDOCK:   -6.31 KCAL/MOL
REMARK 924 INTRA-LIGAND FREE ENERGY PREDICTED BY IDOCK:   -0.42 KCAL/MOL
REMARK 927      BINDING AFFINITY PREDICTED BY RF-SCORE:    0.00 PKD
ROOT
HETATM    1  C   UNL     1     -12.710  10.382  71.232  1.00  0.00    -0.536 C  
HETATM    2  C   UNL     1     -12.606   8.870  71.413  1.00  0.00    -0.300 C  
ENDROOT
BRANCH   2   3
HETATM    3  N   UNL     1     -11.267   8.348  71.099  1.00  0.00    -0.255 NA 
HETATM    4  C   UNL     1     -10.327   8.522  72.211  1.00  0.00    -0.332 C  
HETATM    5  C   UNL     1      -9.217   7.554  71.863  1.00  0.00    -0.159 C  
HETATM    6  C   UNL     1      -9.958   6.347  71.319  1.00  0.00    -0.204 C  
HETATM    7  C   UNL     1     -11.304   6.889  70.812  1.00  0.00    -0.310 C  
BRANCH   7   8
HETATM    8  C   UNL     1     -11.509   6.605  69.306  1.00  0.00    -0.186 C  
BRANCH   8   9
HETATM    9  N   UNL     1     -10.924   7.609  68.424  1.00  0.00    -0.424 N  
HETATM   10  C   UNL     1     -10.426   7.288  67.171  1.00  0.00    -0.324 C  
HETATM   11  H   UNL     1     -10.880   8.578  68.739  1.00  0.00     0.000 HD 
HETATM   12  O   UNL     1     -10.412   6.136  66.757  1.00  0.00    -0.225 OA 
BRANCH  10  13
HETATM   13  C   UNL     1      -9.878   8.431  66.359  1.00  0.00    -0.310 A  
HETATM   14  C   UNL     1      -8.813   8.245  65.447  1.00  0.00    -0.073 A  
HETATM   15  C   UNL     1      -8.327   9.347  64.723  1.00  0.00    -0.159 A  
HETATM   16  C   UNL     1     -10.407   9.723  66.548  1.00  0.00    -0.262 A  
HETATM   17  C   UNL     1      -9.910  10.800  65.810  1.00  0.00    -0.240 A  
HETATM   18  C   UNL     1      -8.870  10.619  64.902  1.00  0.00    -0.204 A  
BRANCH  14  19
HETATM   19  O   UNL     1      -8.315   6.979  65.291  1.00  0.00    -0.136 OA 
HETATM   20  C   UNL     1      -8.023   6.529  63.974  1.00  0.00    -0.081 C  
ENDBRANCH  14  19
BRANCH  17  21
HETATM   21  S   UNL     1     -10.549  12.429  66.077  1.00  0.00    -0.264 S  
HETATM   22  O   UNL     1      -9.654  13.151  66.949  1.00  0.00    -0.233 OA 
HETATM   23  N   UNL     1     -10.383  13.118  64.559  1.00  0.00    -0.504 N  
HETATM   24  O   UNL     1     -11.971  12.341  66.320  1.00  0.00    -0.588 OA 
HETATM   25  H1  UNL     1     -10.751  14.057  64.712  1.00  0.00     0.000 HD 
HETATM   26  H2  UNL     1     -10.010  12.706  63.704  1.00  0.00     0.000 HD 
ENDBRANCH  17  21
ENDBRANCH  10  13
ENDBRANCH   8   9
ENDBRANCH   7   8
ENDBRANCH   2   3
TORSDOF 6
ENDMDL
MODEL      153
REMARK 921   NORMALIZED FREE ENERGY PREDICTED BY IDOCK:   -4.18 KCAL/MOL
REMARK 922        TOTAL FREE ENERGY PREDICTED BY IDOCK:   -6.73 KCAL/MOL
REMARK 923 INTER-LIGAND FREE ENERGY PREDICTED BY IDOCK:   -5.96 KCAL/MOL
REMARK 924 INTRA-LIGAND FREE ENERGY PREDICTED BY IDOCK:   -0.77 KCAL/MOL
REMARK 927      BINDING AFFINITY PREDICTED BY RF-SCORE:    0.00 PKD
ROOT
HETATM    1  C   UNL     1      -7.695   7.123  74.349  1.00  0.00    -0.145 C  
HETATM    2  C   UNL     1      -8.908   6.219  74.553  1.00  0.00    -0.147 C  
ENDROOT
BRANCH   2   3
HETATM    3  N   UNL     1      -8.877   5.021  73.699  1.00  0.00    -0.109 NA 
HETATM    4  C   UNL     1      -8.945   3.781  74.477  1.00  0.00    -0.089 C  
HETATM    5  C   UNL     1      -9.348   2.757  73.438  1.00  0.00    -0.106 C  
HETATM    6  C   UNL     1     -10.362   3.497  72.587  1.00  0.00    -0.222 C  
HETATM    7  C   UNL     1     -10.034   4.988  72.764  1.00  0.00    -0.163 C  
BRANCH   7   8
HETATM    8  C   UNL     1      -9.702   5.669  71.416  1.00  0.00    -0.162 C  
BRANCH   8   9
HETATM    9  N   UNL     1     -10.148   7.055  71.320  1.00  0.00    -0.191 N  
HETATM   10  C   UNL     1     -11.261   7.421  70.582  1.00  0.00    -0.270 C  
HETATM   11  H   UNL     1      -9.623   7.777  71.813  1.00  0.00     0.000 HD 
HETATM   12  O   UNL     1     -11.905   6.604  69.935  1.00  0.00    -0.340 OA 
BRANCH  10  13
HETATM   13  C   UNL     1     -11.620   8.883  70.597  1.00  0.00    -0.251 A  
HETATM   14  C   UNL     1     -12.497   9.417  71.569  1.00  0.00    -0.366 A  
HETATM   15  C   UNL     1     -12.813  10.786  71.532  1.00  0.00    -0.567 A  
HETATM   16  C   UNL     1     -11.107   9.727  69.593  1.00  0.00    -0.251 A  
HETATM   17  C   UNL     1     -11.432  11.086  69.583  1.00  0.00    -0.303 A  
HETATM   18  C   UNL     1     -12.286  11.618  70.545  1.00  0.00    -0.451 A  
BRANCH  14  19
HETATM   19  O   UNL     1     -12.986   8.571  72.528  1.00  0.00    -0.337 OA 
HETATM   20  C   UNL     1     -14.330   8.123  72.408  1.00  0.00    -0.198 C  
ENDBRANCH  14  19
BRANCH  17  21
HETATM   21  S   UNL     1     -10.817  12.136  68.297  1.00  0.00    -0.237 S  
HETATM   22  O   UNL     1     -11.811  12.237  67.255  1.00  0.00    -0.500 OA 
HETATM   23  N   UNL     1     -10.781  13.628  69.058  1.00  0.00    -0.377 N  
HETATM   24  O   UNL     1      -9.439  11.792  68.028  1.00  0.00    -0.175 OA 
HETATM   25  H1  UNL     1     -10.427  14.233  68.318  1.00  0.00     0.000 HD 
HETATM   26  H2  UNL     1     -11.043  13.868  70.014  1.00  0.00     0.000 HD 
ENDBRANCH  17  21
ENDBRANCH  10  13
ENDBRANCH   8   9
ENDBRANCH   7   8
ENDBRANCH   2   3
TORSDOF 6
ENDMDL
MODEL      154
REMARK 921   NORMALIZED FREE ENERGY PREDICTED BY IDOCK:   -4.15 KCAL/MOL
REMARK 922        TOTAL FREE ENERGY PREDICTED BY IDOCK:   -6.69 KCAL/MOL
REMARK 923 INTER-LIGAND FREE ENERGY PREDICTED BY IDOCK:   -5.64 KCAL/MOL
REMARK 924 INTRA-LIGAND FREE ENERGY PREDICTED BY IDOCK:   -1.05 KCAL/MOL
REMARK 927      BINDING AFFINITY PREDICTED BY RF-SCORE:    0.00 PKD
ROOT
HETATM    1  C   UNL     1     -11.373  16.107  69.478  1.00  0.00    -0.321 C  
HETATM    2  C   UNL     1     -10.147  16.916  69.063  1.00  0.00    -0.292 C  
ENDROOT
BRANCH   2   3
HETATM    3  N   UNL     1     -10.370  17.707  67.843  1.00  0.00    -0.355 NA 
HETATM    4  C   UNL     1     -10.560  19.132  68.130  1.00  0.00    -0.250 C  
HETATM    5  C   UNL     1     -10.319  19.778  66.783  1.00  0.00    -0.604 C  
HETATM    6  C   UNL     1      -9.157  18.987  66.214  1.00  0.00    -0.298 C  
HETATM    7  C   UNL     1      -9.208  17.622  66.917  1.00  0.00    -0.263 C  
BRANCH   7   8
HETATM    8  C   UNL     1      -9.362  16.460  65.908  1.00  0.00    -0.227 C  
BRANCH   8   9
HETATM    9  N   UNL     1      -8.892  15.171  66.404  1.00  0.00    -0.421 N  
HETATM   10  C   UNL     1      -9.751  14.104  66.612  1.00  0.00    -0.288 C  
HETATM   11  H   UNL     1      -7.899  15.052  66.605  1.00  0.00     0.000 HD 
HETATM   12  O   UNL     1     -10.958  14.201  66.429  1.00  0.00    -0.304 OA 
BRANCH  10  13
HETATM   13  C   UNL     1      -9.121  12.826  67.098  1.00  0.00    -0.219 A  
HETATM   14  C   UNL     1      -8.205  12.819  68.176  1.00  0.00    -0.167 A  
HETATM   15  C   UNL     1      -7.632  11.602  68.583  1.00  0.00    -0.133 A  
HETATM   16  C   UNL     1      -9.414  11.619  66.434  1.00  0.00    -0.232 A  
HETATM   17  C   UNL     1      -8.836  10.422  66.863  1.00  0.00    -0.133 A  
HETATM   18  C   UNL     1      -7.943  10.409  67.932  1.00  0.00    -0.102 A  
BRANCH  14  19
HETATM   19  O   UNL     1      -7.935  14.009  68.797  1.00  0.00    -0.136 OA 
HETATM   20  C   UNL     1      -6.618  14.224  69.291  1.00  0.00    -0.120 C  
ENDBRANCH  14  19
BRANCH  17  21
HETATM   21  S   UNL     1      -9.175   8.913  66.003  1.00  0.00    -0.239 S  
HETATM   22  O   UNL     1      -8.907   9.101  64.597  1.00  0.00    -0.192 OA 
HETATM   23  N   UNL     1      -7.968   7.907  66.582  1.00  0.00    -0.101 N  
HETATM   24  O   UNL     1     -10.420   8.364  66.491  1.00  0.00    -0.249 OA 
HETATM   25  H1  UNL     1      -8.164   7.037  66.086  1.00  0.00     0.000 HD 
HETATM   26  H2  UNL     1      -7.230   8.110  67.255  1.00  0.00     0.000 HD 
ENDBRANCH  17  21
ENDBRANCH  10  13
ENDBRANCH   8   9
ENDBRANCH   7   8
ENDBRANCH   2   3
TORSDOF 6
ENDMDL
MODEL      155
REMARK 921   NORMALIZED FREE ENERGY PREDICTED BY IDOCK:   -4.15 KCAL/MOL
REMARK 922        TOTAL FREE ENERGY PREDICTED BY IDOCK:   -6.69 KCAL/MOL
REMARK 923 INTER-LIGAND FREE ENERGY PREDICTED BY IDOCK:   -5.89 KCAL/MOL
REMARK 924 INTRA-LIGAND FREE ENERGY PREDICTED BY IDOCK:   -0.80 KCAL/MOL
REMARK 927      BINDING AFFINITY PREDICTED BY RF-SCORE:    0.00 PKD
ROOT
HETATM    1  C   UNL     1     -11.955  14.849  70.826  1.00  0.00    -0.372 C  
HETATM    2  C   UNL     1     -10.647  15.262  70.157  1.00  0.00    -0.257 C  
ENDROOT
BRANCH   2   3
HETATM    3  N   UNL     1     -10.853  15.916  68.855  1.00  0.00    -0.255 NA 
HETATM    4  C   UNL     1     -10.585  17.356  68.907  1.00  0.00    -0.243 C  
HETATM    5  C   UNL     1     -10.415  17.716  67.446  1.00  0.00    -0.356 C  
HETATM    6  C   UNL     1      -9.638  16.542  66.881  1.00  0.00    -0.253 C  
HETATM    7  C   UNL     1      -9.943  15.362  67.816  1.00  0.00    -0.225 C  
BRANCH   7   8
HETATM    8  C   UNL     1     -10.590  14.179  67.059  1.00  0.00    -0.276 C  
BRANCH   8   9
HETATM    9  N   UNL     1     -10.387  12.881  67.692  1.00  0.00    -0.216 N  
HETATM   10  C   UNL     1     -11.163  11.777  67.375  1.00  0.00    -0.297 C  
HETATM   11  H   UNL     1      -9.651  12.782  68.391  1.00  0.00     0.000 HD 
HETATM   12  O   UNL     1     -12.088  11.846  66.576  1.00  0.00    -0.568 OA 
BRANCH  10  13
HETATM   13  C   UNL     1     -10.821  10.495  68.087  1.00  0.00    -0.300 A  
HETATM   14  C   UNL     1      -9.814   9.629  67.603  1.00  0.00    -0.164 A  
HETATM   15  C   UNL     1      -9.542   8.436  68.295  1.00  0.00    -0.156 A  
HETATM   16  C   UNL     1     -11.554  10.130  69.233  1.00  0.00    -0.120 A  
HETATM   17  C   UNL     1     -11.259   8.941  69.905  1.00  0.00    -0.065 A  
HETATM   18  C   UNL     1     -10.260   8.091  69.440  1.00  0.00    -0.210 A  
BRANCH  14  19
HETATM   19  O   UNL     1      -9.124  10.008  66.482  1.00  0.00    -0.145 OA 
HETATM   20  C   UNL     1      -7.718  10.198  66.591  1.00  0.00    -0.106 C  
ENDBRANCH  14  19
BRANCH  17  21
HETATM   21  S   UNL     1     -12.207   8.465  71.323  1.00  0.00    -0.243 S  
HETATM   22  O   UNL     1     -11.796   9.261  72.455  1.00  0.00    -0.194 OA 
HETATM   23  N   UNL     1     -13.740   8.996  70.906  1.00  0.00    -0.543 N  
HETATM   24  O   UNL     1     -12.285   7.022  71.372  1.00  0.00    -0.325 OA 
HETATM   25  H1  UNL     1     -14.287   8.721  71.722  1.00  0.00     0.000 HD 
HETATM   26  H2  UNL     1     -14.048   9.470  70.057  1.00  0.00     0.000 HD 
ENDBRANCH  17  21
ENDBRANCH  10  13
ENDBRANCH   8   9
ENDBRANCH   7   8
ENDBRANCH   2   3
TORSDOF 6
ENDMDL
MODEL      156
REMARK 921   NORMALIZED FREE ENERGY PREDICTED BY IDOCK:   -4.15 KCAL/MOL
REMARK 922        TOTAL FREE ENERGY PREDICTED BY IDOCK:   -6.69 KCAL/MOL
REMARK 923 INTER-LIGAND FREE ENERGY PREDICTED BY IDOCK:   -5.88 KCAL/MOL
REMARK 924 INTRA-LIGAND FREE ENERGY PREDICTED BY IDOCK:   -0.81 KCAL/MOL
REMARK 927      BINDING AFFINITY PREDICTED BY RF-SCORE:    0.00 PKD
ROOT
HETATM    1  C   UNL     1      -7.911   4.671  70.493  1.00  0.00    -0.054 C  
HETATM    2  C   UNL     1      -8.176   4.872  71.982  1.00  0.00    -0.115 C  
ENDROOT
BRANCH   2   3
HETATM    3  N   UNL     1      -9.249   5.844  72.245  1.00  0.00    -0.145 NA 
HETATM    4  C   UNL     1      -9.886   5.630  73.548  1.00  0.00    -0.167 C  
HETATM    5  C   UNL     1     -10.593   6.946  73.793  1.00  0.00    -0.333 C  
HETATM    6  C   UNL     1      -9.605   7.978  73.285  1.00  0.00    -0.322 C  
HETATM    7  C   UNL     1      -8.731   7.238  72.260  1.00  0.00    -0.119 C  
BRANCH   7   8
HETATM    8  C   UNL     1      -8.804   7.893  70.861  1.00  0.00    -0.138 C  
BRANCH   8   9
HETATM    9  N   UNL     1      -9.536   9.154  70.829  1.00  0.00    -0.253 N  
HETATM   10  C   UNL     1     -10.399   9.480  69.795  1.00  0.00    -0.230 C  
HETATM   11  H   UNL     1      -9.408   9.819  71.593  1.00  0.00     0.000 HD 
HETATM   12  O   UNL     1     -10.560   8.741  68.832  1.00  0.00    -0.215 OA 
BRANCH  10  13
HETATM   13  C   UNL     1     -11.108  10.802  69.910  1.00  0.00    -0.339 A  
HETATM   14  C   UNL     1     -12.034  11.056  70.949  1.00  0.00    -0.286 A  
HETATM   15  C   UNL     1     -12.682  12.302  71.004  1.00  0.00    -0.319 A  
HETATM   16  C   UNL     1     -10.880  11.791  68.933  1.00  0.00    -0.265 A  
HETATM   17  C   UNL     1     -11.532  13.024  69.015  1.00  0.00    -0.303 A  
HETATM   18  C   UNL     1     -12.435  13.282  70.043  1.00  0.00    -0.166 A  
BRANCH  14  19
HETATM   19  O   UNL     1     -12.240  10.073  71.879  1.00  0.00    -0.351 OA 
HETATM   20  C   UNL     1     -13.515   9.444  71.920  1.00  0.00    -0.426 C  
ENDBRANCH  14  19
BRANCH  17  21
HETATM   21  S   UNL     1     -11.274  14.250  67.764  1.00  0.00    -0.306 S  
HETATM   22  O   UNL     1     -12.365  14.200  66.821  1.00  0.00    -0.438 OA 
HETATM   23  N   UNL     1     -11.465  15.671  68.630  1.00  0.00    -0.359 N  
HETATM   24  O   UNL     1      -9.887  14.217  67.355  1.00  0.00    -0.230 OA 
HETATM   25  H1  UNL     1     -11.316  16.378  67.910  1.00  0.00     0.000 HD 
HETATM   26  H2  UNL     1     -11.676  15.797  69.620  1.00  0.00     0.000 HD 
ENDBRANCH  17  21
ENDBRANCH  10  13
ENDBRANCH   8   9
ENDBRANCH   7   8
ENDBRANCH   2   3
TORSDOF 6
ENDMDL
MODEL      157
REMARK 921   NORMALIZED FREE ENERGY PREDICTED BY IDOCK:   -4.14 KCAL/MOL
REMARK 922        TOTAL FREE ENERGY PREDICTED BY IDOCK:   -6.68 KCAL/MOL
REMARK 923 INTER-LIGAND FREE ENERGY PREDICTED BY IDOCK:   -6.02 KCAL/MOL
REMARK 924 INTRA-LIGAND FREE ENERGY PREDICTED BY IDOCK:   -0.66 KCAL/MOL
REMARK 927      BINDING AFFINITY PREDICTED BY RF-SCORE:    0.00 PKD
ROOT
HETATM    1  C   UNL     1     -10.537   8.234  72.041  1.00  0.00    -0.365 C  
HETATM    2  C   UNL     1     -10.847   7.533  70.721  1.00  0.00    -0.242 C  
ENDROOT
BRANCH   2   3
HETATM    3  N   UNL     1      -9.799   7.731  69.708  1.00  0.00    -0.177 NA 
HETATM    4  C   UNL     1      -8.469   7.363  70.206  1.00  0.00    -0.136 C  
HETATM    5  C   UNL     1      -7.668   7.211  68.931  1.00  0.00    -0.113 C  
HETATM    6  C   UNL     1      -8.637   6.533  67.982  1.00  0.00    -0.118 C  
HETATM    7  C   UNL     1     -10.038   6.892  68.504  1.00  0.00    -0.161 C  
BRANCH   7   8
HETATM    8  C   UNL     1     -10.874   7.640  67.440  1.00  0.00    -0.170 C  
BRANCH   8   9
HETATM    9  N   UNL     1     -11.135   9.039  67.760  1.00  0.00    -0.456 N  
HETATM   10  C   UNL     1     -10.297  10.060  67.339  1.00  0.00    -0.238 C  
HETATM   11  H   UNL     1     -11.960   9.274  68.312  1.00  0.00     0.000 HD 
HETATM   12  O   UNL     1      -9.270   9.834  66.711  1.00  0.00    -0.144 OA 
BRANCH  10  13
HETATM   13  C   UNL     1     -10.707  11.457  67.718  1.00  0.00    -0.254 A  
HETATM   14  C   UNL     1     -11.576  11.702  68.807  1.00  0.00    -0.313 A  
HETATM   15  C   UNL     1     -11.941  13.025  69.111  1.00  0.00    -0.320 A  
HETATM   16  C   UNL     1     -10.251  12.541  66.942  1.00  0.00    -0.237 A  
HETATM   17  C   UNL     1     -10.624  13.847  67.271  1.00  0.00    -0.276 A  
HETATM   18  C   UNL     1     -11.470  14.093  68.349  1.00  0.00    -0.334 A  
BRANCH  14  19
HETATM   19  O   UNL     1     -12.008  10.628  69.537  1.00  0.00    -0.288 OA 
HETATM   20  C   UNL     1     -12.717  10.878  70.745  1.00  0.00    -0.340 C  
ENDBRANCH  14  19
BRANCH  17  21
HETATM   21  S   UNL     1     -10.081  15.203  66.271  1.00  0.00    -0.302 S  
HETATM   22  O   UNL     1      -8.638  15.225  66.248  1.00  0.00    -0.241 OA 
HETATM   23  N   UNL     1     -10.570  14.722  64.743  1.00  0.00    -0.563 N  
HETATM   24  O   UNL     1     -10.873  16.369  66.594  1.00  0.00    -0.229 OA 
HETATM   25  H1  UNL     1     -10.257  15.504  64.167  1.00  0.00     0.000 HD 
HETATM   26  H2  UNL     1     -11.054  13.870  64.462  1.00  0.00     0.000 HD 
ENDBRANCH  17  21
ENDBRANCH  10  13
ENDBRANCH   8   9
ENDBRANCH   7   8
ENDBRANCH   2   3
TORSDOF 6
ENDMDL
MODEL      158
REMARK 921   NORMALIZED FREE ENERGY PREDICTED BY IDOCK:   -4.13 KCAL/MOL
REMARK 922        TOTAL FREE ENERGY PREDICTED BY IDOCK:   -6.66 KCAL/MOL
REMARK 923 INTER-LIGAND FREE ENERGY PREDICTED BY IDOCK:   -5.56 KCAL/MOL
REMARK 924 INTRA-LIGAND FREE ENERGY PREDICTED BY IDOCK:   -1.10 KCAL/MOL
REMARK 927      BINDING AFFINITY PREDICTED BY RF-SCORE:    0.00 PKD
ROOT
HETATM    1  C   UNL     1      -7.879   6.401  63.912  1.00  0.00    -0.109 C  
HETATM    2  C   UNL     1      -7.372   6.710  65.318  1.00  0.00    -0.080 C  
ENDROOT
BRANCH   2   3
HETATM    3  N   UNL     1      -8.398   6.505  66.353  1.00  0.00    -0.115 NA 
HETATM    4  C   UNL     1      -9.238   5.335  66.079  1.00  0.00    -0.157 C  
HETATM    5  C   UNL     1      -9.875   5.062  67.425  1.00  0.00    -0.207 C  
HETATM    6  C   UNL     1      -8.748   5.315  68.408  1.00  0.00    -0.099 C  
HETATM    7  C   UNL     1      -7.787   6.274  67.689  1.00  0.00    -0.106 C  
BRANCH   7   8
HETATM    8  C   UNL     1      -7.600   7.595  68.471  1.00  0.00    -0.110 C  
BRANCH   8   9
HETATM    9  N   UNL     1      -8.672   8.564  68.272  1.00  0.00    -0.142 N  
HETATM   10  C   UNL     1      -8.430   9.845  67.804  1.00  0.00    -0.118 C  
HETATM   11  H   UNL     1      -9.631   8.290  68.485  1.00  0.00     0.000 HD 
HETATM   12  O   UNL     1      -7.296  10.245  67.572  1.00  0.00    -0.088 OA 
BRANCH  10  13
HETATM   13  C   UNL     1      -9.636  10.727  67.620  1.00  0.00    -0.174 A  
HETATM   14  C   UNL     1     -10.532  10.984  68.685  1.00  0.00    -0.192 A  
HETATM   15  C   UNL     1     -11.652  11.801  68.459  1.00  0.00    -0.380 A  
HETATM   16  C   UNL     1      -9.904  11.269  66.348  1.00  0.00    -0.243 A  
HETATM   17  C   UNL     1     -11.022  12.084  66.152  1.00  0.00    -0.302 A  
HETATM   18  C   UNL     1     -11.899  12.349  67.201  1.00  0.00    -0.361 A  
BRANCH  14  19
HETATM   19  O   UNL     1     -10.249  10.437  69.908  1.00  0.00    -0.230 OA 
HETATM   20  C   UNL     1     -11.337  10.060  70.743  1.00  0.00    -0.360 C  
ENDBRANCH  14  19
BRANCH  17  21
HETATM   21  S   UNL     1     -11.377  12.732  64.544  1.00  0.00    -0.357 S  
HETATM   22  O   UNL     1     -12.628  13.451  64.590  1.00  0.00    -0.587 OA 
HETATM   23  N   UNL     1     -10.177  13.887  64.364  1.00  0.00    -0.644 N  
HETATM   24  O   UNL     1     -11.101  11.713  63.556  1.00  0.00    -0.405 OA 
HETATM   25  H1  UNL     1     -10.382  14.260  63.437  1.00  0.00     0.000 HD 
HETATM   26  H2  UNL     1      -9.435  14.148  65.012  1.00  0.00     0.000 HD 
ENDBRANCH  17  21
ENDBRANCH  10  13
ENDBRANCH   8   9
ENDBRANCH   7   8
ENDBRANCH   2   3
TORSDOF 6
ENDMDL
MODEL      159
REMARK 921   NORMALIZED FREE ENERGY PREDICTED BY IDOCK:   -4.13 KCAL/MOL
REMARK 922        TOTAL FREE ENERGY PREDICTED BY IDOCK:   -6.66 KCAL/MOL
REMARK 923 INTER-LIGAND FREE ENERGY PREDICTED BY IDOCK:   -5.67 KCAL/MOL
REMARK 924 INTRA-LIGAND FREE ENERGY PREDICTED BY IDOCK:   -0.99 KCAL/MOL
REMARK 927      BINDING AFFINITY PREDICTED BY RF-SCORE:    0.00 PKD
ROOT
HETATM    1  C   UNL     1     -11.986  10.225  70.819  1.00  0.00    -0.456 C  
HETATM    2  C   UNL     1     -10.707   9.465  71.161  1.00  0.00    -0.347 C  
ENDROOT
BRANCH   2   3
HETATM    3  N   UNL     1      -9.943   9.067  69.969  1.00  0.00    -0.180 NA 
HETATM    4  C   UNL     1     -10.481   7.857  69.341  1.00  0.00    -0.220 C  
HETATM    5  C   UNL     1      -9.867   7.898  67.958  1.00  0.00    -0.195 C  
HETATM    6  C   UNL     1      -9.930   9.367  67.587  1.00  0.00    -0.238 C  
HETATM    7  C   UNL     1      -9.972  10.125  68.924  1.00  0.00    -0.199 C  
BRANCH   7   8
HETATM    8  C   UNL     1      -8.785  11.106  69.066  1.00  0.00    -0.017 C  
BRANCH   8   9
HETATM    9  N   UNL     1      -9.051  12.445  68.552  1.00  0.00    -0.363 N  
HETATM   10  C   UNL     1      -8.285  13.014  67.548  1.00  0.00    -0.181 C  
HETATM   11  H   UNL     1      -9.827  12.979  68.943  1.00  0.00     0.000 HD 
HETATM   12  O   UNL     1      -7.316  12.438  67.069  1.00  0.00    -0.113 OA 
BRANCH  10  13
HETATM   13  C   UNL     1      -8.693  14.391  67.096  1.00  0.00    -0.243 A  
HETATM   14  C   UNL     1      -9.951  14.627  66.495  1.00  0.00    -0.281 A  
HETATM   15  C   UNL     1     -10.280  15.927  66.076  1.00  0.00    -0.353 A  
HETATM   16  C   UNL     1      -7.783  15.457  67.232  1.00  0.00    -0.245 A  
HETATM   17  C   UNL     1      -8.137  16.741  66.814  1.00  0.00    -0.238 A  
HETATM   18  C   UNL     1      -9.380  16.981  66.232  1.00  0.00    -0.276 A  
BRANCH  14  19
HETATM   19  O   UNL     1     -10.812  13.569  66.369  1.00  0.00    -0.287 OA 
HETATM   20  C   UNL     1     -12.075  13.649  67.018  1.00  0.00    -0.380 C  
ENDBRANCH  14  19
BRANCH  17  21
HETATM   21  S   UNL     1      -6.977  18.072  66.950  1.00  0.00    -0.200 S  
HETATM   22  O   UNL     1      -6.325  18.262  65.677  1.00  0.00    -0.232 OA 
HETATM   23  N   UNL     1      -7.988  19.390  67.163  1.00  0.00    -0.255 N  
HETATM   24  O   UNL     1      -6.244  17.929  68.188  1.00  0.00    -0.170 OA 
HETATM   25  H1  UNL     1      -7.320  20.157  67.241  1.00  0.00     0.000 HD 
HETATM   26  H2  UNL     1      -9.007  19.420  67.203  1.00  0.00     0.000 HD 
ENDBRANCH  17  21
ENDBRANCH  10  13
ENDBRANCH   8   9
ENDBRANCH   7   8
ENDBRANCH   2   3
TORSDOF 6
ENDMDL
MODEL      160
REMARK 921   NORMALIZED FREE ENERGY PREDICTED BY IDOCK:   -4.13 KCAL/MOL
REMARK 922        TOTAL FREE ENERGY PREDICTED BY IDOCK:   -6.66 KCAL/MOL
REMARK 923 INTER-LIGAND FREE ENERGY PREDICTED BY IDOCK:   -5.95 KCAL/MOL
REMARK 924 INTRA-LIGAND FREE ENERGY PREDICTED BY IDOCK:   -0.70 KCAL/MOL
REMARK 927      BINDING AFFINITY PREDICTED BY RF-SCORE:    0.00 PKD
ROOT
HETATM    1  C   UNL     1      -7.769   5.867  66.641  1.00  0.00    -0.100 C  
HETATM    2  C   UNL     1      -8.122   6.760  67.828  1.00  0.00    -0.113 C  
ENDROOT
BRANCH   2   3
HETATM    3  N   UNL     1      -9.535   6.653  68.224  1.00  0.00    -0.125 NA 
HETATM    4  C   UNL     1      -9.719   5.799  69.401  1.00  0.00    -0.155 C  
HETATM    5  C   UNL     1     -11.102   6.186  69.880  1.00  0.00    -0.481 C  
HETATM    6  C   UNL     1     -11.137   7.690  69.680  1.00  0.00    -0.074 C  
HETATM    7  C   UNL     1     -10.103   7.980  68.580  1.00  0.00    -0.199 C  
BRANCH   7   8
HETATM    8  C   UNL     1     -10.744   8.677  67.358  1.00  0.00    -0.142 C  
BRANCH   8   9
HETATM    9  N   UNL     1     -10.484  10.110  67.282  1.00  0.00    -0.240 N  
HETATM   10  C   UNL     1     -11.348  11.046  67.828  1.00  0.00    -0.292 C  
HETATM   11  H   UNL     1      -9.639  10.435  66.813  1.00  0.00     0.000 HD 
HETATM   12  O   UNL     1     -12.399  10.718  68.366  1.00  0.00    -0.396 OA 
BRANCH  10  13
HETATM   13  C   UNL     1     -10.937  12.488  67.701  1.00  0.00    -0.279 A  
HETATM   14  C   UNL     1     -10.214  12.953  66.577  1.00  0.00    -0.259 A  
HETATM   15  C   UNL     1      -9.840  14.306  66.512  1.00  0.00    -0.299 A  
HETATM   16  C   UNL     1     -11.237  13.383  68.746  1.00  0.00    -0.315 A  
HETATM   17  C   UNL     1     -10.859  14.725  68.653  1.00  0.00    -0.253 A  
HETATM   18  C   UNL     1     -10.158  15.189  67.543  1.00  0.00    -0.232 A  
BRANCH  14  19
HETATM   19  O   UNL     1      -9.931  12.057  65.581  1.00  0.00    -0.237 OA 
HETATM   20  C   UNL     1     -10.468  12.300  64.286  1.00  0.00    -0.346 C  
ENDBRANCH  14  19
BRANCH  17  21
HETATM   21  S   UNL     1     -11.203  15.839  69.985  1.00  0.00    -0.374 S  
HETATM   22  O   UNL     1     -10.731  17.157  69.632  1.00  0.00    -0.226 OA 
HETATM   23  N   UNL     1     -12.876  15.913  69.949  1.00  0.00    -0.599 N  
HETATM   24  O   UNL     1     -10.860  15.197  71.234  1.00  0.00    -0.219 OA 
HETATM   25  H1  UNL     1     -13.075  16.555  70.716  1.00  0.00     0.000 HD 
HETATM   26  H2  UNL     1     -13.527  15.440  69.323  1.00  0.00     0.000 HD 
ENDBRANCH  17  21
ENDBRANCH  10  13
ENDBRANCH   8   9
ENDBRANCH   7   8
ENDBRANCH   2   3
TORSDOF 6
ENDMDL
MODEL      161
REMARK 921   NORMALIZED FREE ENERGY PREDICTED BY IDOCK:   -4.12 KCAL/MOL
REMARK 922        TOTAL FREE ENERGY PREDICTED BY IDOCK:   -6.65 KCAL/MOL
REMARK 923 INTER-LIGAND FREE ENERGY PREDICTED BY IDOCK:   -5.78 KCAL/MOL
REMARK 924 INTRA-LIGAND FREE ENERGY PREDICTED BY IDOCK:   -0.88 KCAL/MOL
REMARK 927      BINDING AFFINITY PREDICTED BY RF-SCORE:    0.00 PKD
ROOT
HETATM    1  C   UNL     1     -12.259  13.859  66.094  1.00  0.00    -0.498 C  
HETATM    2  C   UNL     1     -11.996  14.391  67.500  1.00  0.00    -0.354 C  
ENDROOT
BRANCH   2   3
HETATM    3  N   UNL     1     -10.754  15.174  67.592  1.00  0.00    -0.278 NA 
HETATM    4  C   UNL     1     -11.000  16.561  67.996  1.00  0.00    -0.320 C  
HETATM    5  C   UNL     1      -9.633  17.022  68.452  1.00  0.00    -0.277 C  
HETATM    6  C   UNL     1      -9.080  15.817  69.188  1.00  0.00    -0.262 C  
HETATM    7  C   UNL     1      -9.824  14.605  68.604  1.00  0.00    -0.224 C  
BRANCH   7   8
HETATM    8  C   UNL     1      -8.852  13.579  67.978  1.00  0.00    -0.181 C  
BRANCH   8   9
HETATM    9  N   UNL     1      -9.365  12.214  67.940  1.00  0.00    -0.185 N  
HETATM   10  C   UNL     1      -8.716  11.165  68.570  1.00  0.00    -0.161 C  
HETATM   11  H   UNL     1     -10.231  12.026  67.435  1.00  0.00     0.000 HD 
HETATM   12  O   UNL     1      -7.652  11.323  69.156  1.00  0.00    -0.125 OA 
BRANCH  10  13
HETATM   13  C   UNL     1      -9.377   9.816  68.473  1.00  0.00    -0.142 A  
HETATM   14  C   UNL     1      -9.549   9.168  67.228  1.00  0.00    -0.154 A  
HETATM   15  C   UNL     1     -10.187   7.916  67.187  1.00  0.00    -0.360 A  
HETATM   16  C   UNL     1      -9.876   9.210  69.642  1.00  0.00    -0.188 A  
HETATM   17  C   UNL     1     -10.500   7.962  69.574  1.00  0.00    -0.226 A  
HETATM   18  C   UNL     1     -10.661   7.314  68.352  1.00  0.00    -0.209 A  
BRANCH  14  19
HETATM   19  O   UNL     1      -9.059   9.786  66.108  1.00  0.00    -0.149 OA 
HETATM   20  C   UNL     1      -9.982  10.175  65.098  1.00  0.00    -0.309 C  
ENDBRANCH  14  19
BRANCH  17  21
HETATM   21  S   UNL     1     -11.162   7.219  71.039  1.00  0.00    -0.275 S  
HETATM   22  O   UNL     1     -10.236   6.224  71.523  1.00  0.00    -0.195 OA 
HETATM   23  N   UNL     1     -11.099   8.490  72.128  1.00  0.00    -0.345 N  
HETATM   24  O   UNL     1     -12.566   6.942  70.831  1.00  0.00    -0.357 OA 
HETATM   25  H1  UNL     1     -11.480   8.063  72.972  1.00  0.00     0.000 HD 
HETATM   26  H2  UNL     1     -10.766   9.443  71.985  1.00  0.00     0.000 HD 
ENDBRANCH  17  21
ENDBRANCH  10  13
ENDBRANCH   8   9
ENDBRANCH   7   8
ENDBRANCH   2   3
TORSDOF 6
ENDMDL
MODEL      162
REMARK 921   NORMALIZED FREE ENERGY PREDICTED BY IDOCK:   -4.12 KCAL/MOL
REMARK 922        TOTAL FREE ENERGY PREDICTED BY IDOCK:   -6.65 KCAL/MOL
REMARK 923 INTER-LIGAND FREE ENERGY PREDICTED BY IDOCK:   -5.62 KCAL/MOL
REMARK 924 INTRA-LIGAND FREE ENERGY PREDICTED BY IDOCK:   -1.04 KCAL/MOL
REMARK 927      BINDING AFFINITY PREDICTED BY RF-SCORE:    0.00 PKD
ROOT
HETATM    1  C   UNL     1     -14.190   7.968  71.586  1.00  0.00    -0.549 C  
HETATM    2  C   UNL     1     -12.934   7.109  71.477  1.00  0.00    -0.383 C  
ENDROOT
BRANCH   2   3
HETATM    3  N   UNL     1     -11.711   7.905  71.288  1.00  0.00    -0.283 NA 
HETATM    4  C   UNL     1     -11.005   8.148  72.550  1.00  0.00    -0.369 C  
HETATM    5  C   UNL     1      -9.624   8.556  72.085  1.00  0.00    -0.382 C  
HETATM    6  C   UNL     1      -9.356   7.628  70.916  1.00  0.00    -0.158 C  
HETATM    7  C   UNL     1     -10.742   7.214  70.396  1.00  0.00    -0.235 C  
BRANCH   7   8
HETATM    8  C   UNL     1     -10.943   7.608  68.915  1.00  0.00     0.089 C  
BRANCH   8   9
HETATM    9  N   UNL     1     -10.164   8.768  68.494  1.00  0.00    -0.191 N  
HETATM   10  C   UNL     1     -10.643  10.062  68.617  1.00  0.00    -0.212 C  
HETATM   11  H   UNL     1      -9.237   8.621  68.095  1.00  0.00     0.000 HD 
HETATM   12  O   UNL     1     -11.765  10.296  69.048  1.00  0.00    -0.147 OA 
BRANCH  10  13
HETATM   13  C   UNL     1      -9.719  11.161  68.168  1.00  0.00    -0.186 A  
HETATM   14  C   UNL     1      -8.356  11.181  68.548  1.00  0.00    -0.154 A  
HETATM   15  C   UNL     1      -7.537  12.238  68.116  1.00  0.00    -0.127 A  
HETATM   16  C   UNL     1     -10.233  12.218  67.392  1.00  0.00    -0.213 A  
HETATM   17  C   UNL     1      -9.395  13.253  66.970  1.00  0.00    -0.242 A  
HETATM   18  C   UNL     1      -8.051  13.269  67.332  1.00  0.00    -0.179 A  
BRANCH  14  19
HETATM   19  O   UNL     1      -7.887  10.144  69.310  1.00  0.00    -0.108 OA 
HETATM   20  C   UNL     1      -6.796  10.395  70.187  1.00  0.00    -0.153 C  
ENDBRANCH  14  19
BRANCH  17  21
HETATM   21  S   UNL     1     -10.053  14.599  66.027  1.00  0.00    -0.328 S  
HETATM   22  O   UNL     1     -11.097  15.243  66.788  1.00  0.00    -0.320 OA 
HETATM   23  N   UNL     1      -8.762  15.666  66.004  1.00  0.00    -0.378 N  
HETATM   24  O   UNL     1     -10.238  14.168  64.660  1.00  0.00    -0.408 OA 
HETATM   25  H1  UNL     1      -9.140  16.442  65.461  1.00  0.00     0.000 HD 
HETATM   26  H2  UNL     1      -7.838  15.567  66.423  1.00  0.00     0.000 HD 
ENDBRANCH  17  21
ENDBRANCH  10  13
ENDBRANCH   8   9
ENDBRANCH   7   8
ENDBRANCH   2   3
TORSDOF 6
ENDMDL
MODEL      163
REMARK 921   NORMALIZED FREE ENERGY PREDICTED BY IDOCK:   -4.11 KCAL/MOL
REMARK 922        TOTAL FREE ENERGY PREDICTED BY IDOCK:   -6.64 KCAL/MOL
REMARK 923 INTER-LIGAND FREE ENERGY PREDICTED BY IDOCK:   -5.66 KCAL/MOL
REMARK 924 INTRA-LIGAND FREE ENERGY PREDICTED BY IDOCK:   -0.98 KCAL/MOL
REMARK 927      BINDING AFFINITY PREDICTED BY RF-SCORE:    0.00 PKD
ROOT
HETATM    1  C   UNL     1      -8.635   5.706  65.466  1.00  0.00    -0.151 C  
HETATM    2  C   UNL     1      -8.130   5.985  66.879  1.00  0.00    -0.105 C  
ENDROOT
BRANCH   2   3
HETATM    3  N   UNL     1      -8.752   5.116  67.890  1.00  0.00    -0.103 NA 
HETATM    4  C   UNL     1      -9.363   3.922  67.298  1.00  0.00    -0.191 C  
HETATM    5  C   UNL     1      -9.519   3.002  68.489  1.00  0.00    -0.204 C  
HETATM    6  C   UNL     1      -8.242   3.224  69.277  1.00  0.00    -0.076 C  
HETATM    7  C   UNL     1      -7.753   4.625  68.876  1.00  0.00    -0.071 C  
BRANCH   7   8
HETATM    8  C   UNL     1      -7.640   5.566  70.098  1.00  0.00    -0.074 C  
BRANCH   8   9
HETATM    9  N   UNL     1      -8.816   6.402  70.318  1.00  0.00    -0.149 N  
HETATM   10  C   UNL     1      -8.723   7.680  70.846  1.00  0.00    -0.138 C  
HETATM   11  H   UNL     1      -9.736   6.034  70.076  1.00  0.00     0.000 HD 
HETATM   12  O   UNL     1      -7.651   8.158  71.195  1.00  0.00    -0.072 OA 
BRANCH  10  13
HETATM   13  C   UNL     1     -10.016   8.437  70.990  1.00  0.00    -0.235 A  
HETATM   14  C   UNL     1     -11.068   7.953  71.802  1.00  0.00    -0.253 A  
HETATM   15  C   UNL     1     -12.261   8.689  71.892  1.00  0.00    -0.419 A  
HETATM   16  C   UNL     1     -10.198   9.629  70.263  1.00  0.00    -0.333 A  
HETATM   17  C   UNL     1     -11.392  10.345  70.376  1.00  0.00    -0.337 A  
HETATM   18  C   UNL     1     -12.426   9.879  71.184  1.00  0.00    -0.464 A  
BRANCH  14  19
HETATM   19  O   UNL     1     -10.863   6.787  72.491  1.00  0.00    -0.221 OA 
HETATM   20  C   UNL     1     -10.384   6.871  73.827  1.00  0.00    -0.376 C  
ENDBRANCH  14  19
BRANCH  17  21
HETATM   21  S   UNL     1     -11.634  11.823  69.431  1.00  0.00    -0.342 S  
HETATM   22  O   UNL     1     -12.130  12.863  70.301  1.00  0.00    -0.347 OA 
HETATM   23  N   UNL     1     -10.061  12.246  69.043  1.00  0.00    -0.422 N  
HETATM   24  O   UNL     1     -12.275  11.481  68.181  1.00  0.00    -0.576 OA 
HETATM   25  H1  UNL     1     -10.200  13.097  68.499  1.00  0.00     0.000 HD 
HETATM   26  H2  UNL     1      -9.190  11.774  69.287  1.00  0.00     0.000 HD 
ENDBRANCH  17  21
ENDBRANCH  10  13
ENDBRANCH   8   9
ENDBRANCH   7   8
ENDBRANCH   2   3
TORSDOF 6
ENDMDL
MODEL      164
REMARK 921   NORMALIZED FREE ENERGY PREDICTED BY IDOCK:   -4.11 KCAL/MOL
REMARK 922        TOTAL FREE ENERGY PREDICTED BY IDOCK:   -6.63 KCAL/MOL
REMARK 923 INTER-LIGAND FREE ENERGY PREDICTED BY IDOCK:   -5.90 KCAL/MOL
REMARK 924 INTRA-LIGAND FREE ENERGY PREDICTED BY IDOCK:   -0.73 KCAL/MOL
REMARK 927      BINDING AFFINITY PREDICTED BY RF-SCORE:    0.00 PKD
ROOT
HETATM    1  C   UNL     1      -9.880  20.564  67.327  1.00  0.00    -0.581 C  
HETATM    2  C   UNL     1      -8.946  19.613  68.069  1.00  0.00    -0.322 C  
ENDROOT
BRANCH   2   3
HETATM    3  N   UNL     1      -7.860  19.099  67.220  1.00  0.00    -0.251 NA 
HETATM    4  C   UNL     1      -7.849  19.724  65.893  1.00  0.00    -0.301 C  
HETATM    5  C   UNL     1      -6.457  19.408  65.389  1.00  0.00    -0.302 C  
HETATM    6  C   UNL     1      -5.587  19.583  66.619  1.00  0.00    -0.165 C  
HETATM    7  C   UNL     1      -6.525  19.369  67.817  1.00  0.00    -0.221 C  
BRANCH   7   8
HETATM    8  C   UNL     1      -6.053  18.203  68.717  1.00  0.00    -0.202 C  
BRANCH   8   9
HETATM    9  N   UNL     1      -6.866  16.997  68.608  1.00  0.00    -0.177 N  
HETATM   10  C   UNL     1      -6.634  16.037  67.636  1.00  0.00    -0.162 C  
HETATM   11  H   UNL     1      -7.630  16.855  69.269  1.00  0.00     0.000 HD 
HETATM   12  O   UNL     1      -5.759  16.173  66.790  1.00  0.00    -0.306 OA 
BRANCH  10  13
HETATM   13  C   UNL     1      -7.533  14.830  67.663  1.00  0.00    -0.203 A  
HETATM   14  C   UNL     1      -7.024  13.535  67.914  1.00  0.00    -0.144 A  
HETATM   15  C   UNL     1      -7.902  12.439  67.912  1.00  0.00    -0.145 A  
HETATM   16  C   UNL     1      -8.905  14.990  67.384  1.00  0.00    -0.202 A  
HETATM   17  C   UNL     1      -9.758  13.884  67.396  1.00  0.00    -0.234 A  
HETATM   18  C   UNL     1      -9.262  12.608  67.655  1.00  0.00    -0.191 A  
BRANCH  14  19
HETATM   19  O   UNL     1      -5.685  13.411  68.174  1.00  0.00    -0.087 OA 
HETATM   20  C   UNL     1      -5.141  12.102  68.286  1.00  0.00    -0.054 C  
ENDBRANCH  14  19
BRANCH  17  21
HETATM   21  S   UNL     1     -11.474  14.081  67.007  1.00  0.00    -0.370 S  
HETATM   22  O   UNL     1     -12.148  12.819  67.194  1.00  0.00    -0.415 OA 
HETATM   23  N   UNL     1     -11.995  15.081  68.246  1.00  0.00    -0.541 N  
HETATM   24  O   UNL     1     -11.593  14.856  65.792  1.00  0.00    -0.325 OA 
HETATM   25  H1  UNL     1     -12.983  15.194  68.022  1.00  0.00     0.000 HD 
HETATM   26  H2  UNL     1     -11.463  15.473  69.022  1.00  0.00     0.000 HD 
ENDBRANCH  17  21
ENDBRANCH  10  13
ENDBRANCH   8   9
ENDBRANCH   7   8
ENDBRANCH   2   3
TORSDOF 6
ENDMDL
MODEL      165
REMARK 921   NORMALIZED FREE ENERGY PREDICTED BY IDOCK:   -4.10 KCAL/MOL
REMARK 922        TOTAL FREE ENERGY PREDICTED BY IDOCK:   -6.63 KCAL/MOL
REMARK 923 INTER-LIGAND FREE ENERGY PREDICTED BY IDOCK:   -5.86 KCAL/MOL
REMARK 924 INTRA-LIGAND FREE ENERGY PREDICTED BY IDOCK:   -0.77 KCAL/MOL
REMARK 927      BINDING AFFINITY PREDICTED BY RF-SCORE:    0.00 PKD
ROOT
HETATM    1  C   UNL     1      -9.284   2.905  64.851  1.00  0.00    -0.148 C  
HETATM    2  C   UNL     1     -10.121   4.163  65.064  1.00  0.00    -0.208 C  
ENDROOT
BRANCH   2   3
HETATM    3  N   UNL     1      -9.939   4.751  66.401  1.00  0.00    -0.216 NA 
HETATM    4  C   UNL     1      -9.636   3.739  67.417  1.00  0.00    -0.161 C  
HETATM    5  C   UNL     1      -9.062   4.565  68.548  1.00  0.00    -0.161 C  
HETATM    6  C   UNL     1      -8.209   5.597  67.835  1.00  0.00    -0.101 C  
HETATM    7  C   UNL     1      -8.805   5.714  66.423  1.00  0.00    -0.129 C  
BRANCH   7   8
HETATM    8  C   UNL     1      -9.270   7.156  66.112  1.00  0.00    -0.082 C  
BRANCH   8   9
HETATM    9  N   UNL     1     -10.058   7.772  67.174  1.00  0.00    -0.229 N  
HETATM   10  C   UNL     1      -9.599   8.865  67.892  1.00  0.00    -0.148 C  
HETATM   11  H   UNL     1     -10.976   7.386  67.395  1.00  0.00     0.000 HD 
HETATM   12  O   UNL     1      -8.489   9.344  67.700  1.00  0.00    -0.118 OA 
BRANCH  10  13
HETATM   13  C   UNL     1     -10.531   9.414  68.938  1.00  0.00    -0.236 A  
HETATM   14  C   UNL     1     -10.920  10.774  68.940  1.00  0.00    -0.241 A  
HETATM   15  C   UNL     1     -11.780  11.242  69.948  1.00  0.00    -0.430 A  
HETATM   16  C   UNL     1     -10.988   8.564  69.965  1.00  0.00    -0.197 A  
HETATM   17  C   UNL     1     -11.849   9.054  70.951  1.00  0.00    -0.253 A  
HETATM   18  C   UNL     1     -12.243  10.389  70.950  1.00  0.00    -0.484 A  
BRANCH  14  19
HETATM   19  O   UNL     1     -10.453  11.576  67.934  1.00  0.00    -0.176 OA 
HETATM   20  C   UNL     1     -11.371  12.457  67.297  1.00  0.00    -0.323 C  
ENDBRANCH  14  19
BRANCH  17  21
HETATM   21  S   UNL     1     -12.390   7.994  72.262  1.00  0.00    -0.255 S  
HETATM   22  O   UNL     1     -11.373   7.952  73.285  1.00  0.00    -0.312 OA 
HETATM   23  N   UNL     1     -13.668   8.866  72.904  1.00  0.00    -0.906 N  
HETATM   24  O   UNL     1     -12.971   6.800  71.690  1.00  0.00    -0.345 OA 
HETATM   25  H1  UNL     1     -13.980   8.256  73.660  1.00  0.00     0.000 HD 
HETATM   26  H2  UNL     1     -14.038   9.772  72.616  1.00  0.00     0.000 HD 
ENDBRANCH  17  21
ENDBRANCH  10  13
ENDBRANCH   8   9
ENDBRANCH   7   8
ENDBRANCH   2   3
TORSDOF 6
ENDMDL
MODEL      166
REMARK 921   NORMALIZED FREE ENERGY PREDICTED BY IDOCK:   -4.10 KCAL/MOL
REMARK 922        TOTAL FREE ENERGY PREDICTED BY IDOCK:   -6.62 KCAL/MOL
REMARK 923 INTER-LIGAND FREE ENERGY PREDICTED BY IDOCK:   -5.97 KCAL/MOL
REMARK 924 INTRA-LIGAND FREE ENERGY PREDICTED BY IDOCK:   -0.65 KCAL/MOL
REMARK 927      BINDING AFFINITY PREDICTED BY RF-SCORE:    0.00 PKD
ROOT
HETATM    1  C   UNL     1     -11.460  13.338  64.548  1.00  0.00    -0.399 C  
HETATM    2  C   UNL     1     -11.254  11.967  65.188  1.00  0.00    -0.315 C  
ENDROOT
BRANCH   2   3
HETATM    3  N   UNL     1     -10.478  11.051  64.338  1.00  0.00    -0.354 NA 
HETATM    4  C   UNL     1      -9.923  11.721  63.158  1.00  0.00    -0.344 C  
HETATM    5  C   UNL     1      -8.844  10.762  62.707  1.00  0.00    -0.291 C  
HETATM    6  C   UNL     1      -8.226  10.286  64.008  1.00  0.00    -0.151 C  
HETATM    7  C   UNL     1      -9.319  10.476  65.072  1.00  0.00    -0.222 C  
BRANCH   7   8
HETATM    8  C   UNL     1      -9.683   9.144  65.768  1.00  0.00    -0.229 C  
BRANCH   8   9
HETATM    9  N   UNL     1     -10.128   9.293  67.149  1.00  0.00    -0.218 N  
HETATM   10  C   UNL     1     -10.652   8.234  67.873  1.00  0.00    -0.147 C  
HETATM   11  H   UNL     1     -10.050  10.206  67.597  1.00  0.00     0.000 HD 
HETATM   12  O   UNL     1     -10.809   7.127  67.374  1.00  0.00    -0.282 OA 
BRANCH  10  13
HETATM   13  C   UNL     1     -11.042   8.528  69.296  1.00  0.00     0.129 A  
HETATM   14  C   UNL     1     -11.623   9.765  69.662  1.00  0.00     0.020 A  
HETATM   15  C   UNL     1     -11.955   9.997  71.008  1.00  0.00    -0.469 A  
HETATM   16  C   UNL     1     -10.780   7.568  70.293  1.00  0.00    -0.247 A  
HETATM   17  C   UNL     1     -11.126   7.821  71.622  1.00  0.00    -0.237 A  
HETATM   18  C   UNL     1     -11.709   9.033  71.985  1.00  0.00    -0.417 A  
BRANCH  14  19
HETATM   19  O   UNL     1     -11.859  10.681  68.673  1.00  0.00    -0.371 OA 
HETATM   20  C   UNL     1     -11.355  12.000  68.844  1.00  0.00    -0.278 C  
ENDBRANCH  14  19
BRANCH  17  21
HETATM   21  S   UNL     1     -10.760   6.629  72.878  1.00  0.00    -0.270 S  
HETATM   22  O   UNL     1     -10.649   7.302  74.150  1.00  0.00    -0.253 OA 
HETATM   23  N   UNL     1     -12.180   5.742  72.937  1.00  0.00    -0.464 N  
HETATM   24  O   UNL     1      -9.746   5.724  72.385  1.00  0.00    -0.159 OA 
HETATM   25  H1  UNL     1     -11.969   5.055  73.661  1.00  0.00     0.000 HD 
HETATM   26  H2  UNL     1     -13.033   5.859  72.391  1.00  0.00     0.000 HD 
ENDBRANCH  17  21
ENDBRANCH  10  13
ENDBRANCH   8   9
ENDBRANCH   7   8
ENDBRANCH   2   3
TORSDOF 6
ENDMDL
MODEL      167
REMARK 921   NORMALIZED FREE ENERGY PREDICTED BY IDOCK:   -4.10 KCAL/MOL
REMARK 922        TOTAL FREE ENERGY PREDICTED BY IDOCK:   -6.62 KCAL/MOL
REMARK 923 INTER-LIGAND FREE ENERGY PREDICTED BY IDOCK:   -5.81 KCAL/MOL
REMARK 924 INTRA-LIGAND FREE ENERGY PREDICTED BY IDOCK:   -0.81 KCAL/MOL
REMARK 927      BINDING AFFINITY PREDICTED BY RF-SCORE:    0.00 PKD
ROOT
HETATM    1  C   UNL     1     -14.346  15.435  71.956  1.00  0.00    -0.653 C  
HETATM    2  C   UNL     1     -12.871  15.653  71.628  1.00  0.00    -0.463 C  
ENDROOT
BRANCH   2   3
HETATM    3  N   UNL     1     -12.514  15.202  70.274  1.00  0.00    -0.347 NA 
HETATM    4  C   UNL     1     -11.878  16.262  69.485  1.00  0.00    -0.006 C  
HETATM    5  C   UNL     1     -11.214  15.489  68.366  1.00  0.00    -0.341 C  
HETATM    6  C   UNL     1     -10.673  14.254  69.060  1.00  0.00    -0.259 C  
HETATM    7  C   UNL     1     -11.545  14.074  70.312  1.00  0.00    -0.171 C  
BRANCH   7   8
HETATM    8  C   UNL     1     -12.261  12.704  70.323  1.00  0.00    -0.271 C  
BRANCH   8   9
HETATM    9  N   UNL     1     -11.380  11.567  70.074  1.00  0.00    -0.492 N  
HETATM   10  C   UNL     1     -11.350  10.912  68.854  1.00  0.00    -0.288 C  
HETATM   11  H   UNL     1     -10.766  11.245  70.822  1.00  0.00     0.000 HD 
HETATM   12  O   UNL     1     -12.093  11.228  67.933  1.00  0.00    -0.634 OA 
BRANCH  10  13
HETATM   13  C   UNL     1     -10.371   9.776  68.731  1.00  0.00    -0.227 A  
HETATM   14  C   UNL     1     -10.360   8.707  69.658  1.00  0.00    -0.213 A  
HETATM   15  C   UNL     1      -9.416   7.677  69.509  1.00  0.00    -0.152 A  
HETATM   16  C   UNL     1      -9.414   9.802  67.698  1.00  0.00    -0.164 A  
HETATM   17  C   UNL     1      -8.491   8.761  67.569  1.00  0.00    -0.120 A  
HETATM   18  C   UNL     1      -8.485   7.702  68.472  1.00  0.00    -0.129 A  
BRANCH  14  19
HETATM   19  O   UNL     1     -11.298   8.714  70.656  1.00  0.00    -0.261 OA 
HETATM   20  C   UNL     1     -11.544   7.499  71.354  1.00  0.00    -0.275 C  
ENDBRANCH  14  19
BRANCH  17  21
HETATM   21  S   UNL     1      -7.264   8.816  66.293  1.00  0.00    -0.087 S  
HETATM   22  O   UNL     1      -7.881   8.487  65.031  1.00  0.00    -0.099 OA 
HETATM   23  N   UNL     1      -6.905  10.451  66.230  1.00  0.00    -0.109 N  
HETATM   24  O   UNL     1      -6.065   8.163  66.768  1.00  0.00    -0.051 OA 
HETATM   25  H1  UNL     1      -6.198  10.482  65.495  1.00  0.00     0.000 HD 
HETATM   26  H2  UNL     1      -7.292  11.216  66.782  1.00  0.00     0.000 HD 
ENDBRANCH  17  21
ENDBRANCH  10  13
ENDBRANCH   8   9
ENDBRANCH   7   8
ENDBRANCH   2   3
TORSDOF 6
ENDMDL
MODEL      168
REMARK 921   NORMALIZED FREE ENERGY PREDICTED BY IDOCK:   -4.08 KCAL/MOL
REMARK 922        TOTAL FREE ENERGY PREDICTED BY IDOCK:   -6.59 KCAL/MOL
REMARK 923 INTER-LIGAND FREE ENERGY PREDICTED BY IDOCK:   -5.65 KCAL/MOL
REMARK 924 INTRA-LIGAND FREE ENERGY PREDICTED BY IDOCK:   -0.94 KCAL/MOL
REMARK 927      BINDING AFFINITY PREDICTED BY RF-SCORE:    0.00 PKD
ROOT
HETATM    1  C   UNL     1     -10.794  15.665  67.171  1.00  0.00    -0.297 C  
HETATM    2  C   UNL     1     -10.944  14.154  67.325  1.00  0.00    -0.297 C  
ENDROOT
BRANCH   2   3
HETATM    3  N   UNL     1     -10.979  13.724  68.732  1.00  0.00    -0.257 NA 
HETATM    4  C   UNL     1     -11.832  14.586  69.556  1.00  0.00    -0.329 C  
HETATM    5  C   UNL     1     -12.076  13.735  70.784  1.00  0.00    -0.395 C  
HETATM    6  C   UNL     1     -12.260  12.340  70.218  1.00  0.00    -0.342 C  
HETATM    7  C   UNL     1     -11.525  12.347  68.868  1.00  0.00    -0.307 C  
BRANCH   7   8
HETATM    8  C   UNL     1     -10.408  11.279  68.816  1.00  0.00    -0.205 C  
BRANCH   8   9
HETATM    9  N   UNL     1     -10.745  10.028  69.486  1.00  0.00    -0.228 N  
HETATM   10  C   UNL     1      -9.894   9.429  70.400  1.00  0.00    -0.259 C  
HETATM   11  H   UNL     1     -11.637   9.579  69.275  1.00  0.00     0.000 HD 
HETATM   12  O   UNL     1      -8.793   9.898  70.661  1.00  0.00    -0.088 OA 
BRANCH  10  13
HETATM   13  C   UNL     1     -10.386   8.156  71.035  1.00  0.00    -0.229 A  
HETATM   14  C   UNL     1     -11.511   8.145  71.891  1.00  0.00    -0.299 A  
HETATM   15  C   UNL     1     -11.922   6.933  72.472  1.00  0.00    -0.087 A  
HETATM   16  C   UNL     1      -9.680   6.958  70.808  1.00  0.00    -0.176 A  
HETATM   17  C   UNL     1     -10.114   5.765  71.392  1.00  0.00    -0.198 A  
HETATM   18  C   UNL     1     -11.229   5.748  72.226  1.00  0.00    -0.333 A  
BRANCH  14  19
HETATM   19  O   UNL     1     -12.172   9.327  72.098  1.00  0.00    -0.359 OA 
HETATM   20  C   UNL     1     -13.576   9.358  71.879  1.00  0.00    -0.410 C  
ENDBRANCH  14  19
BRANCH  17  21
HETATM   21  S   UNL     1      -9.204   4.268  71.137  1.00  0.00    -0.150 S  
HETATM   22  O   UNL     1      -7.865   4.437  71.650  1.00  0.00    -0.076 OA 
HETATM   23  N   UNL     1      -9.978   3.212  72.180  1.00  0.00    -0.167 N  
HETATM   24  O   UNL     1      -9.471   3.779  69.803  1.00  0.00    -0.162 OA 
HETATM   25  H1  UNL     1      -9.454   2.349  72.033  1.00  0.00     0.000 HD 
HETATM   26  H2  UNL     1     -10.769   3.385  72.801  1.00  0.00     0.000 HD 
ENDBRANCH  17  21
ENDBRANCH  10  13
ENDBRANCH   8   9
ENDBRANCH   7   8
ENDBRANCH   2   3
TORSDOF 6
ENDMDL
MODEL      169
REMARK 921   NORMALIZED FREE ENERGY PREDICTED BY IDOCK:   -4.01 KCAL/MOL
REMARK 922        TOTAL FREE ENERGY PREDICTED BY IDOCK:   -6.50 KCAL/MOL
REMARK 923 INTER-LIGAND FREE ENERGY PREDICTED BY IDOCK:   -5.35 KCAL/MOL
REMARK 924 INTRA-LIGAND FREE ENERGY PREDICTED BY IDOCK:   -1.15 KCAL/MOL
REMARK 927      BINDING AFFINITY PREDICTED BY RF-SCORE:    0.00 PKD
ROOT
HETATM    1  C   UNL     1     -10.182  20.382  66.798  1.00  0.00    -0.394 C  
HETATM    2  C   UNL     1     -10.250  19.008  66.138  1.00  0.00    -0.446 C  
ENDROOT
BRANCH   2   3
HETATM    3  N   UNL     1      -9.452  17.994  66.844  1.00  0.00    -0.279 NA 
HETATM    4  C   UNL     1      -8.116  18.485  67.197  1.00  0.00    -0.243 C  
HETATM    5  C   UNL     1      -7.670  17.503  68.259  1.00  0.00    -0.247 C  
HETATM    6  C   UNL     1      -8.929  17.264  69.070  1.00  0.00    -0.083 C  
HETATM    7  C   UNL     1     -10.095  17.585  68.121  1.00  0.00    -0.341 C  
BRANCH   7   8
HETATM    8  C   UNL     1     -11.032  16.370  67.929  1.00  0.00    -0.298 C  
BRANCH   8   9
HETATM    9  N   UNL     1     -10.372  15.077  68.074  1.00  0.00    -0.234 N  
HETATM   10  C   UNL     1      -9.903  14.363  66.983  1.00  0.00    -0.252 C  
HETATM   11  H   UNL     1     -10.251  14.686  69.008  1.00  0.00     0.000 HD 
HETATM   12  O   UNL     1     -10.057  14.762  65.835  1.00  0.00    -0.286 OA 
BRANCH  10  13
HETATM   13  C   UNL     1      -9.217  13.058  67.285  1.00  0.00    -0.213 A  
HETATM   14  C   UNL     1      -8.192  12.970  68.256  1.00  0.00    -0.150 A  
HETATM   15  C   UNL     1      -7.572  11.731  68.491  1.00  0.00    -0.131 A  
HETATM   16  C   UNL     1      -9.571  11.909  66.550  1.00  0.00    -0.226 A  
HETATM   17  C   UNL     1      -8.943  10.688  66.809  1.00  0.00    -0.138 A  
HETATM   18  C   UNL     1      -7.942  10.595  67.773  1.00  0.00    -0.110 A  
BRANCH  14  19
HETATM   19  O   UNL     1      -7.865  14.105  68.949  1.00  0.00    -0.135 OA 
HETATM   20  C   UNL     1      -6.547  14.217  69.470  1.00  0.00    -0.124 C  
ENDBRANCH  14  19
BRANCH  17  21
HETATM   21  S   UNL     1      -9.362   9.255  65.857  1.00  0.00    -0.252 S  
HETATM   22  O   UNL     1     -10.458   8.568  66.498  1.00  0.00    -0.256 OA 
HETATM   23  N   UNL     1      -9.987   9.939  64.462  1.00  0.00    -0.405 N  
HETATM   24  O   UNL     1      -8.145   8.583  65.461  1.00  0.00    -0.112 OA 
HETATM   25  H1  UNL     1     -10.229   9.113  63.914  1.00  0.00     0.000 HD 
HETATM   26  H2  UNL     1     -10.098  10.924  64.222  1.00  0.00     0.000 HD 
ENDBRANCH  17  21
ENDBRANCH  10  13
ENDBRANCH   8   9
ENDBRANCH   7   8
ENDBRANCH   2   3
TORSDOF 6
ENDMDL
MODEL      170
REMARK 921   NORMALIZED FREE ENERGY PREDICTED BY IDOCK:   -3.99 KCAL/MOL
REMARK 922        TOTAL FREE ENERGY PREDICTED BY IDOCK:   -6.48 KCAL/MOL
REMARK 923 INTER-LIGAND FREE ENERGY PREDICTED BY IDOCK:   -5.66 KCAL/MOL
REMARK 924 INTRA-LIGAND FREE ENERGY PREDICTED BY IDOCK:   -0.82 KCAL/MOL
REMARK 927      BINDING AFFINITY PREDICTED BY RF-SCORE:    0.00 PKD
ROOT
HETATM    1  C   UNL     1     -11.855  12.768  65.882  1.00  0.00    -0.490 C  
HETATM    2  C   UNL     1     -11.268  11.583  66.643  1.00  0.00    -0.271 C  
ENDROOT
BRANCH   2   3
HETATM    3  N   UNL     1     -10.750  10.532  65.754  1.00  0.00    -0.060 NA 
HETATM    4  C   UNL     1      -9.980  11.081  64.634  1.00  0.00    -0.301 C  
HETATM    5  C   UNL     1      -9.200   9.879  64.145  1.00  0.00    -0.312 C  
HETATM    6  C   UNL     1      -8.797   9.174  65.426  1.00  0.00    -0.236 C  
HETATM    7  C   UNL     1      -9.833   9.609  66.475  1.00  0.00    -0.235 C  
BRANCH   7   8
HETATM    8  C   UNL     1     -10.589   8.400  67.073  1.00  0.00    -0.246 C  
BRANCH   8   9
HETATM    9  N   UNL     1     -10.471   8.278  68.522  1.00  0.00    -0.312 N  
HETATM   10  C   UNL     1     -10.883   7.143  69.202  1.00  0.00    -0.162 C  
HETATM   11  H   UNL     1     -10.073   9.053  69.052  1.00  0.00     0.000 HD 
HETATM   12  O   UNL     1     -11.408   6.199  68.625  1.00  0.00    -0.319 OA 
BRANCH  10  13
HETATM   13  C   UNL     1     -10.674   7.147  70.693  1.00  0.00    -0.255 A  
HETATM   14  C   UNL     1     -11.409   8.009  71.539  1.00  0.00    -0.259 A  
HETATM   15  C   UNL     1     -11.166   7.986  72.923  1.00  0.00    -0.389 A  
HETATM   16  C   UNL     1      -9.691   6.306  71.250  1.00  0.00    -0.193 A  
HETATM   17  C   UNL     1      -9.475   6.297  72.630  1.00  0.00    -0.148 A  
HETATM   18  C   UNL     1     -10.204   7.136  73.468  1.00  0.00    -0.394 A  
BRANCH  14  19
HETATM   19  O   UNL     1     -12.352   8.821  70.967  1.00  0.00    -0.259 OA 
HETATM   20  C   UNL     1     -13.057   9.727  71.806  1.00  0.00    -0.431 C  
ENDBRANCH  14  19
BRANCH  17  21
HETATM   21  S   UNL     1      -8.212   5.268  73.324  1.00  0.00    -0.111 S  
HETATM   22  O   UNL     1      -7.180   5.057  72.338  1.00  0.00    -0.081 OA 
HETATM   23  N   UNL     1      -7.551   6.272  74.490  1.00  0.00    -0.099 N  
HETATM   24  O   UNL     1      -8.836   4.180  74.043  1.00  0.00    -0.096 OA 
HETATM   25  H1  UNL     1      -6.824   5.680  74.890  1.00  0.00     0.000 HD 
HETATM   26  H2  UNL     1      -7.808   7.228  74.736  1.00  0.00     0.000 HD 
ENDBRANCH  17  21
ENDBRANCH  10  13
ENDBRANCH   8   9
ENDBRANCH   7   8
ENDBRANCH   2   3
TORSDOF 6
ENDMDL
MODEL      171
REMARK 921   NORMALIZED FREE ENERGY PREDICTED BY IDOCK:   -3.98 KCAL/MOL
REMARK 922        TOTAL FREE ENERGY PREDICTED BY IDOCK:   -6.46 KCAL/MOL
REMARK 923 INTER-LIGAND FREE ENERGY PREDICTED BY IDOCK:   -5.55 KCAL/MOL
REMARK 924 INTRA-LIGAND FREE ENERGY PREDICTED BY IDOCK:   -0.90 KCAL/MOL
REMARK 927      BINDING AFFINITY PREDICTED BY RF-SCORE:    0.00 PKD
ROOT
HETATM    1  C   UNL     1      -8.603   4.365  65.388  1.00  0.00    -0.122 C  
HETATM    2  C   UNL     1      -8.232   5.845  65.412  1.00  0.00    -0.139 C  
ENDROOT
BRANCH   2   3
HETATM    3  N   UNL     1      -9.230   6.673  66.107  1.00  0.00    -0.129 NA 
HETATM    4  C   UNL     1     -10.296   5.869  66.713  1.00  0.00    -0.244 C  
HETATM    5  C   UNL     1     -10.913   6.829  67.707  1.00  0.00    -0.321 C  
HETATM    6  C   UNL     1      -9.715   7.557  68.285  1.00  0.00    -0.163 C  
HETATM    7  C   UNL     1      -8.617   7.452  67.215  1.00  0.00    -0.118 C  
BRANCH   7   8
HETATM    8  C   UNL     1      -8.139   8.845  66.742  1.00  0.00    -0.111 C  
BRANCH   8   9
HETATM    9  N   UNL     1      -9.196   9.849  66.676  1.00  0.00    -0.150 N  
HETATM   10  C   UNL     1      -8.949  11.194  66.900  1.00  0.00    -0.161 C  
HETATM   11  H   UNL     1     -10.146   9.551  66.458  1.00  0.00     0.000 HD 
HETATM   12  O   UNL     1      -7.837  11.604  67.208  1.00  0.00    -0.140 OA 
BRANCH  10  13
HETATM   13  C   UNL     1     -10.129  12.119  66.770  1.00  0.00    -0.218 A  
HETATM   14  C   UNL     1     -11.029  12.019  65.683  1.00  0.00    -0.297 A  
HETATM   15  C   UNL     1     -12.107  12.916  65.598  1.00  0.00    -0.511 A  
HETATM   16  C   UNL     1     -10.313  13.136  67.727  1.00  0.00    -0.230 A  
HETATM   17  C   UNL     1     -11.397  14.011  67.622  1.00  0.00    -0.312 A  
HETATM   18  C   UNL     1     -12.292  13.908  66.561  1.00  0.00    -0.447 A  
BRANCH  14  19
HETATM   19  O   UNL     1     -10.819  11.025  64.765  1.00  0.00    -0.276 OA 
HETATM   20  C   UNL     1     -10.610  11.396  63.409  1.00  0.00    -0.368 C  
ENDBRANCH  14  19
BRANCH  17  21
HETATM   21  S   UNL     1     -11.605  15.313  68.804  1.00  0.00    -0.363 S  
HETATM   22  O   UNL     1     -12.871  15.143  69.476  1.00  0.00     0.053 OA 
HETATM   23  N   UNL     1     -10.421  14.947  69.931  1.00  0.00    -0.446 N  
HETATM   24  O   UNL     1     -11.206  16.564  68.199  1.00  0.00    -0.341 OA 
HETATM   25  H1  UNL     1     -10.540  15.697  70.612  1.00  0.00     0.000 HD 
HETATM   26  H2  UNL     1      -9.754  14.176  69.936  1.00  0.00     0.000 HD 
ENDBRANCH  17  21
ENDBRANCH  10  13
ENDBRANCH   8   9
ENDBRANCH   7   8
ENDBRANCH   2   3
TORSDOF 6
ENDMDL
MODEL      172
REMARK 921   NORMALIZED FREE ENERGY PREDICTED BY IDOCK:   -3.97 KCAL/MOL
REMARK 922        TOTAL FREE ENERGY PREDICTED BY IDOCK:   -6.44 KCAL/MOL
REMARK 923 INTER-LIGAND FREE ENERGY PREDICTED BY IDOCK:   -5.54 KCAL/MOL
REMARK 924 INTRA-LIGAND FREE ENERGY PREDICTED BY IDOCK:   -0.90 KCAL/MOL
REMARK 927      BINDING AFFINITY PREDICTED BY RF-SCORE:    0.00 PKD
ROOT
HETATM    1  C   UNL     1     -14.341  15.443  71.952  1.00  0.00    -0.649 C  
HETATM    2  C   UNL     1     -12.850  15.551  71.646  1.00  0.00    -0.446 C  
ENDROOT
BRANCH   2   3
HETATM    3  N   UNL     1     -12.520  15.163  70.266  1.00  0.00    -0.347 NA 
HETATM    4  C   UNL     1     -11.682  16.160  69.594  1.00  0.00    -0.192 C  
HETATM    5  C   UNL     1     -11.114  15.384  68.425  1.00  0.00    -0.301 C  
HETATM    6  C   UNL     1     -10.820  14.018  69.016  1.00  0.00    -0.268 C  
HETATM    7  C   UNL     1     -11.761  13.885  70.225  1.00  0.00    -0.223 C  
BRANCH   7   8
HETATM    8  C   UNL     1     -12.699  12.663  70.092  1.00  0.00     0.252 C  
BRANCH   8   9
HETATM    9  N   UNL     1     -12.111  11.406  70.541  1.00  0.00    -0.379 N  
HETATM   10  C   UNL     1     -11.620  10.463  69.652  1.00  0.00    -0.239 C  
HETATM   11  H   UNL     1     -12.058  11.215  71.541  1.00  0.00     0.000 HD 
HETATM   12  O   UNL     1     -11.694  10.619  68.440  1.00  0.00    -0.406 OA 
BRANCH  10  13
HETATM   13  C   UNL     1     -11.015   9.226  70.259  1.00  0.00    -0.286 A  
HETATM   14  C   UNL     1     -11.751   8.402  71.142  1.00  0.00    -0.280 A  
HETATM   15  C   UNL     1     -11.135   7.266  71.695  1.00  0.00    -0.262 A  
HETATM   16  C   UNL     1      -9.672   8.910  69.978  1.00  0.00    -0.187 A  
HETATM   17  C   UNL     1      -9.086   7.770  70.536  1.00  0.00    -0.154 A  
HETATM   18  C   UNL     1      -9.811   6.949  71.396  1.00  0.00    -0.184 A  
BRANCH  14  19
HETATM   19  O   UNL     1     -13.052   8.739  71.402  1.00  0.00    -0.318 OA 
HETATM   20  C   UNL     1     -13.979   7.692  71.658  1.00  0.00    -0.408 C  
ENDBRANCH  14  19
BRANCH  17  21
HETATM   21  S   UNL     1      -7.386   7.396  70.212  1.00  0.00    -0.079 S  
HETATM   22  O   UNL     1      -7.267   6.864  68.875  1.00  0.00    -0.085 OA 
HETATM   23  N   UNL     1      -6.699   8.923  70.174  1.00  0.00    -0.039 N  
HETATM   24  O   UNL     1      -6.824   6.734  71.367  1.00  0.00    -0.060 OA 
HETATM   25  H1  UNL     1      -5.719   8.708  69.988  1.00  0.00     0.000 HD 
HETATM   26  H2  UNL     1      -7.143   9.832  70.304  1.00  0.00     0.000 HD 
ENDBRANCH  17  21
ENDBRANCH  10  13
ENDBRANCH   8   9
ENDBRANCH   7   8
ENDBRANCH   2   3
TORSDOF 6
ENDMDL
MODEL      173
REMARK 921   NORMALIZED FREE ENERGY PREDICTED BY IDOCK:   -3.95 KCAL/MOL
REMARK 922        TOTAL FREE ENERGY PREDICTED BY IDOCK:   -6.42 KCAL/MOL
REMARK 923 INTER-LIGAND FREE ENERGY PREDICTED BY IDOCK:   -5.63 KCAL/MOL
REMARK 924 INTRA-LIGAND FREE ENERGY PREDICTED BY IDOCK:   -0.78 KCAL/MOL
REMARK 927      BINDING AFFINITY PREDICTED BY RF-SCORE:    0.00 PKD
ROOT
HETATM    1  C   UNL     1      -6.830   5.480  72.450  1.00  0.00    -0.076 C  
HETATM    2  C   UNL     1      -7.840   6.531  71.997  1.00  0.00    -0.099 C  
ENDROOT
BRANCH   2   3
HETATM    3  N   UNL     1      -9.216   6.013  71.937  1.00  0.00    -0.151 NA 
HETATM    4  C   UNL     1      -9.794   5.814  73.270  1.00  0.00    -0.165 C  
HETATM    5  C   UNL     1     -11.277   5.730  72.980  1.00  0.00    -0.289 C  
HETATM    6  C   UNL     1     -11.489   6.785  71.911  1.00  0.00    -0.318 C  
HETATM    7  C   UNL     1     -10.123   6.955  71.227  1.00  0.00    -0.190 C  
BRANCH   7   8
HETATM    8  C   UNL     1     -10.195   6.651  69.713  1.00  0.00    -0.187 C  
BRANCH   8   9
HETATM    9  N   UNL     1     -10.055   7.826  68.860  1.00  0.00    -0.190 N  
HETATM   10  C   UNL     1     -10.520   7.849  67.555  1.00  0.00    -0.262 C  
HETATM   11  H   UNL     1      -9.600   8.658  69.236  1.00  0.00     0.000 HD 
HETATM   12  O   UNL     1     -11.036   6.867  67.036  1.00  0.00    -0.379 OA 
BRANCH  10  13
HETATM   13  C   UNL     1     -10.334   9.139  66.803  1.00  0.00    -0.308 A  
HETATM   14  C   UNL     1     -10.894  10.352  67.268  1.00  0.00    -0.264 A  
HETATM   15  C   UNL     1     -10.705  11.527  66.522  1.00  0.00    -0.318 A  
HETATM   16  C   UNL     1      -9.625   9.129  65.586  1.00  0.00    -0.287 A  
HETATM   17  C   UNL     1      -9.445  10.313  64.867  1.00  0.00    -0.279 A  
HETATM   18  C   UNL     1      -9.985  11.511  65.327  1.00  0.00    -0.302 A  
BRANCH  14  19
HETATM   19  O   UNL     1     -11.584  10.329  68.451  1.00  0.00    -0.221 OA 
HETATM   20  C   UNL     1     -11.069  11.079  69.543  1.00  0.00    -0.263 C  
ENDBRANCH  14  19
BRANCH  17  21
HETATM   21  S   UNL     1      -8.588  10.290  63.318  1.00  0.00    -0.211 S  
HETATM   22  O   UNL     1      -9.036  11.403  62.515  1.00  0.00    -0.321 OA 
HETATM   23  N   UNL     1      -7.020  10.649  63.787  1.00  0.00    -0.345 N  
HETATM   24  O   UNL     1      -8.555   8.933  62.821  1.00  0.00    -0.210 OA 
HETATM   25  H1  UNL     1      -6.526  10.636  62.895  1.00  0.00     0.000 HD 
HETATM   26  H2  UNL     1      -6.655  10.832  64.721  1.00  0.00     0.000 HD 
ENDBRANCH  17  21
ENDBRANCH  10  13
ENDBRANCH   8   9
ENDBRANCH   7   8
ENDBRANCH   2   3
TORSDOF 6
ENDMDL
MODEL      174
REMARK 921   NORMALIZED FREE ENERGY PREDICTED BY IDOCK:   -3.95 KCAL/MOL
REMARK 922        TOTAL FREE ENERGY PREDICTED BY IDOCK:   -6.41 KCAL/MOL
REMARK 923 INTER-LIGAND FREE ENERGY PREDICTED BY IDOCK:   -5.56 KCAL/MOL
REMARK 924 INTRA-LIGAND FREE ENERGY PREDICTED BY IDOCK:   -0.85 KCAL/MOL
REMARK 927      BINDING AFFINITY PREDICTED BY RF-SCORE:    0.00 PKD
ROOT
HETATM    1  C   UNL     1      -8.555   8.049  65.239  1.00  0.00    -0.112 C  
HETATM    2  C   UNL     1      -9.489   9.041  65.928  1.00  0.00    -0.249 C  
ENDROOT
BRANCH   2   3
HETATM    3  N   UNL     1      -9.378  10.403  65.382  1.00  0.00    -0.188 NA 
HETATM    4  C   UNL     1      -9.922  10.504  64.024  1.00  0.00    -0.297 C  
HETATM    5  C   UNL     1     -10.118  11.995  63.855  1.00  0.00    -0.394 C  
HETATM    6  C   UNL     1     -10.637  12.440  65.209  1.00  0.00    -0.322 C  
HETATM    7  C   UNL     1     -10.134  11.384  66.206  1.00  0.00    -0.224 C  
BRANCH   7   8
HETATM    8  C   UNL     1      -9.250  12.009  67.309  1.00  0.00    -0.182 C  
BRANCH   8   9
HETATM    9  N   UNL     1      -9.503  13.426  67.547  1.00  0.00    -0.212 N  
HETATM   10  C   UNL     1      -8.597  14.235  68.214  1.00  0.00    -0.176 C  
HETATM   11  H   UNL     1     -10.376  13.834  67.213  1.00  0.00     0.000 HD 
HETATM   12  O   UNL     1      -7.553  13.791  68.675  1.00  0.00    -0.128 OA 
BRANCH  10  13
HETATM   13  C   UNL     1      -8.978  15.683  68.361  1.00  0.00    -0.185 A  
HETATM   14  C   UNL     1     -10.183  16.068  68.994  1.00  0.00    -0.236 A  
HETATM   15  C   UNL     1     -10.502  17.433  69.093  1.00  0.00    -0.231 A  
HETATM   16  C   UNL     1      -8.139  16.674  67.814  1.00  0.00    -0.185 A  
HETATM   17  C   UNL     1      -8.477  18.024  67.933  1.00  0.00    -0.252 A  
HETATM   18  C   UNL     1      -9.656  18.408  68.566  1.00  0.00    -0.368 A  
BRANCH  14  19
HETATM   19  O   UNL     1     -10.982  15.082  69.509  1.00  0.00    -0.248 OA 
HETATM   20  C   UNL     1     -12.206  15.462  70.124  1.00  0.00    -0.375 C  
ENDBRANCH  14  19
BRANCH  17  21
HETATM   21  S   UNL     1      -7.441  19.265  67.211  1.00  0.00    -0.233 S  
HETATM   22  O   UNL     1      -6.189  19.310  67.928  1.00  0.00    -0.204 OA 
HETATM   23  N   UNL     1      -7.100  18.600  65.712  1.00  0.00    -0.254 N  
HETATM   24  O   UNL     1      -8.233  20.446  66.952  1.00  0.00    -0.306 OA 
HETATM   25  H1  UNL     1      -6.503  19.315  65.296  1.00  0.00     0.000 HD 
HETATM   26  H2  UNL     1      -7.409  17.712  65.317  1.00  0.00     0.000 HD 
ENDBRANCH  17  21
ENDBRANCH  10  13
ENDBRANCH   8   9
ENDBRANCH   7   8
ENDBRANCH   2   3
TORSDOF 6
ENDMDL
MODEL      175
REMARK 921   NORMALIZED FREE ENERGY PREDICTED BY IDOCK:   -3.94 KCAL/MOL
REMARK 922        TOTAL FREE ENERGY PREDICTED BY IDOCK:   -6.41 KCAL/MOL
REMARK 923 INTER-LIGAND FREE ENERGY PREDICTED BY IDOCK:   -5.46 KCAL/MOL
REMARK 924 INTRA-LIGAND FREE ENERGY PREDICTED BY IDOCK:   -0.96 KCAL/MOL
REMARK 927      BINDING AFFINITY PREDICTED BY RF-SCORE:    0.00 PKD
ROOT
HETATM    1  C   UNL     1     -10.262  15.063  68.247  1.00  0.00    -0.222 C  
HETATM    2  C   UNL     1     -11.382  14.046  68.041  1.00  0.00    -0.293 C  
ENDROOT
BRANCH   2   3
HETATM    3  N   UNL     1     -11.355  12.958  69.030  1.00  0.00    -0.276 NA 
HETATM    4  C   UNL     1     -12.069  13.307  70.262  1.00  0.00    -0.335 C  
HETATM    5  C   UNL     1     -12.300  11.958  70.907  1.00  0.00    -0.400 C  
HETATM    6  C   UNL     1     -12.644  11.059  69.735  1.00  0.00    -0.151 C  
HETATM    7  C   UNL     1     -12.008  11.728  68.506  1.00  0.00    -0.215 C  
BRANCH   7   8
HETATM    8  C   UNL     1     -10.995  10.795  67.803  1.00  0.00    -0.297 C  
BRANCH   8   9
HETATM    9  N   UNL     1     -10.978   9.432  68.322  1.00  0.00    -0.471 N  
HETATM   10  C   UNL     1      -9.796   8.745  68.547  1.00  0.00    -0.168 C  
HETATM   11  H   UNL     1     -11.864   8.970  68.526  1.00  0.00     0.000 HD 
HETATM   12  O   UNL     1      -8.704   9.232  68.281  1.00  0.00    -0.128 OA 
BRANCH  10  13
HETATM   13  C   UNL     1      -9.929   7.356  69.112  1.00  0.00    -0.173 A  
HETATM   14  C   UNL     1     -10.603   7.118  70.333  1.00  0.00    -0.224 A  
HETATM   15  C   UNL     1     -10.687   5.805  70.826  1.00  0.00    -0.342 A  
HETATM   16  C   UNL     1      -9.329   6.278  68.433  1.00  0.00    -0.113 A  
HETATM   17  C   UNL     1      -9.434   4.981  68.943  1.00  0.00    -0.140 A  
HETATM   18  C   UNL     1     -10.107   4.740  70.138  1.00  0.00    -0.310 A  
BRANCH  14  19
HETATM   19  O   UNL     1     -11.170   8.187  70.973  1.00  0.00    -0.250 OA 
HETATM   20  C   UNL     1     -12.041   7.931  72.067  1.00  0.00    -0.320 C  
ENDBRANCH  14  19
BRANCH  17  21
HETATM   21  S   UNL     1      -8.646   3.633  68.109  1.00  0.00    -0.103 S  
HETATM   22  O   UNL     1      -8.644   2.478  68.975  1.00  0.00    -0.063 OA 
HETATM   23  N   UNL     1      -9.738   3.300  66.883  1.00  0.00    -0.395 N  
HETATM   24  O   UNL     1      -7.451   4.119  67.456  1.00  0.00    -0.068 OA 
HETATM   25  H1  UNL     1      -9.284   2.523  66.402  1.00  0.00     0.000 HD 
HETATM   26  H2  UNL     1     -10.626   3.755  66.672  1.00  0.00     0.000 HD 
ENDBRANCH  17  21
ENDBRANCH  10  13
ENDBRANCH   8   9
ENDBRANCH   7   8
ENDBRANCH   2   3
TORSDOF 6
ENDMDL
MODEL      176
REMARK 921   NORMALIZED FREE ENERGY PREDICTED BY IDOCK:   -3.93 KCAL/MOL
REMARK 922        TOTAL FREE ENERGY PREDICTED BY IDOCK:   -6.38 KCAL/MOL
REMARK 923 INTER-LIGAND FREE ENERGY PREDICTED BY IDOCK:   -5.40 KCAL/MOL
REMARK 924 INTRA-LIGAND FREE ENERGY PREDICTED BY IDOCK:   -0.98 KCAL/MOL
REMARK 927      BINDING AFFINITY PREDICTED BY RF-SCORE:    0.00 PKD
ROOT
HETATM    1  C   UNL     1     -11.690  14.083  65.066  1.00  0.00    -0.366 C  
HETATM    2  C   UNL     1     -11.133  15.161  65.993  1.00  0.00    -0.312 C  
ENDROOT
BRANCH   2   3
HETATM    3  N   UNL     1     -10.121  14.645  66.927  1.00  0.00    -0.252 NA 
HETATM    4  C   UNL     1      -8.825  15.312  66.767  1.00  0.00    -0.271 C  
HETATM    5  C   UNL     1      -8.115  14.974  68.061  1.00  0.00    -0.132 C  
HETATM    6  C   UNL     1      -9.210  15.083  69.104  1.00  0.00    -0.183 C  
HETATM    7  C   UNL     1     -10.525  14.856  68.342  1.00  0.00    -0.243 C  
BRANCH   7   8
HETATM    8  C   UNL     1     -11.314  13.649  68.901  1.00  0.00    -0.290 C  
BRANCH   8   9
HETATM    9  N   UNL     1     -10.586  12.386  68.851  1.00  0.00    -0.380 N  
HETATM   10  C   UNL     1     -11.196  11.198  68.478  1.00  0.00    -0.258 C  
HETATM   11  H   UNL     1      -9.597  12.375  69.099  1.00  0.00     0.000 HD 
HETATM   12  O   UNL     1     -12.390  11.142  68.211  1.00  0.00    -0.532 OA 
BRANCH  10  13
HETATM   13  C   UNL     1     -10.315   9.979  68.443  1.00  0.00    -0.218 A  
HETATM   14  C   UNL     1      -9.325   9.811  67.447  1.00  0.00    -0.134 A  
HETATM   15  C   UNL     1      -8.539   8.646  67.449  1.00  0.00    -0.134 A  
HETATM   16  C   UNL     1     -10.514   8.961  69.397  1.00  0.00    -0.228 A  
HETATM   17  C   UNL     1      -9.713   7.816  69.380  1.00  0.00    -0.169 A  
HETATM   18  C   UNL     1      -8.729   7.653  68.409  1.00  0.00    -0.127 A  
BRANCH  14  19
HETATM   19  O   UNL     1      -9.161  10.813  66.529  1.00  0.00    -0.159 OA 
HETATM   20  C   UNL     1      -9.291  10.490  65.150  1.00  0.00    -0.216 C  
ENDBRANCH  14  19
BRANCH  17  21
HETATM   21  S   UNL     1      -9.990   6.522  70.556  1.00  0.00    -0.185 S  
HETATM   22  O   UNL     1     -11.411   6.333  70.723  1.00  0.00    -0.333 OA 
HETATM   23  N   UNL     1      -9.432   5.178  69.726  1.00  0.00    -0.138 N  
HETATM   24  O   UNL     1      -9.091   6.702  71.673  1.00  0.00    -0.142 OA 
HETATM   25  H1  UNL     1      -9.591   4.432  70.403  1.00  0.00     0.000 HD 
HETATM   26  H2  UNL     1      -9.035   5.120  68.788  1.00  0.00     0.000 HD 
ENDBRANCH  17  21
ENDBRANCH  10  13
ENDBRANCH   8   9
ENDBRANCH   7   8
ENDBRANCH   2   3
TORSDOF 6
ENDMDL
MODEL      177
REMARK 921   NORMALIZED FREE ENERGY PREDICTED BY IDOCK:   -3.90 KCAL/MOL
REMARK 922        TOTAL FREE ENERGY PREDICTED BY IDOCK:   -6.35 KCAL/MOL
REMARK 923 INTER-LIGAND FREE ENERGY PREDICTED BY IDOCK:   -5.71 KCAL/MOL
REMARK 924 INTRA-LIGAND FREE ENERGY PREDICTED BY IDOCK:   -0.64 KCAL/MOL
REMARK 927      BINDING AFFINITY PREDICTED BY RF-SCORE:    0.00 PKD
ROOT
HETATM    1  C   UNL     1     -11.931   6.792  71.151  1.00  0.00    -0.421 C  
HETATM    2  C   UNL     1     -11.496   6.572  69.705  1.00  0.00    -0.379 C  
ENDROOT
BRANCH   2   3
HETATM    3  N   UNL     1     -10.035   6.476  69.557  1.00  0.00    -0.157 NA 
HETATM    4  C   UNL     1      -9.616   5.190  68.991  1.00  0.00    -0.145 C  
HETATM    5  C   UNL     1      -8.207   5.476  68.520  1.00  0.00    -0.098 C  
HETATM    6  C   UNL     1      -8.304   6.875  67.942  1.00  0.00    -0.121 C  
HETATM    7  C   UNL     1      -9.510   7.523  68.640  1.00  0.00    -0.146 C  
BRANCH   7   8
HETATM    8  C   UNL     1      -9.110   8.807  69.405  1.00  0.00    -0.145 C  
BRANCH   8   9
HETATM    9  N   UNL     1      -9.824  10.005  68.975  1.00  0.00    -0.188 N  
HETATM   10  C   UNL     1      -9.302  10.875  68.032  1.00  0.00    -0.160 C  
HETATM   11  H   UNL     1     -10.737  10.208  69.383  1.00  0.00     0.000 HD 
HETATM   12  O   UNL     1      -8.194  10.705  67.540  1.00  0.00    -0.111 OA 
BRANCH  10  13
HETATM   13  C   UNL     1     -10.163  12.054  67.664  1.00  0.00    -0.210 A  
HETATM   14  C   UNL     1     -10.684  12.209  66.359  1.00  0.00    -0.257 A  
HETATM   15  C   UNL     1     -11.470  13.335  66.061  1.00  0.00    -0.360 A  
HETATM   16  C   UNL     1     -10.414  13.048  68.630  1.00  0.00    -0.236 A  
HETATM   17  C   UNL     1     -11.204  14.155  68.309  1.00  0.00    -0.272 A  
HETATM   18  C   UNL     1     -11.729  14.305  67.029  1.00  0.00    -0.427 A  
BRANCH  14  19
HETATM   19  O   UNL     1     -10.417  11.229  65.440  1.00  0.00    -0.259 OA 
HETATM   20  C   UNL     1     -10.944  11.377  64.127  1.00  0.00    -0.341 C  
ENDBRANCH  14  19
BRANCH  17  21
HETATM   21  S   UNL     1     -11.486  15.423  69.513  1.00  0.00    -0.347 S  
HETATM   22  O   UNL     1     -11.751  16.668  68.833  1.00  0.00    -0.082 OA 
HETATM   23  N   UNL     1     -12.938  14.938  70.191  1.00  0.00    -0.609 N  
HETATM   24  O   UNL     1     -10.497  15.303  70.561  1.00  0.00    -0.242 OA 
HETATM   25  H1  UNL     1     -13.101  15.668  70.884  1.00  0.00     0.000 HD 
HETATM   26  H2  UNL     1     -13.512  14.124  69.968  1.00  0.00     0.000 HD 
ENDBRANCH  17  21
ENDBRANCH  10  13
ENDBRANCH   8   9
ENDBRANCH   7   8
ENDBRANCH   2   3
TORSDOF 6
ENDMDL
MODEL      178
REMARK 921   NORMALIZED FREE ENERGY PREDICTED BY IDOCK:   -3.90 KCAL/MOL
REMARK 922        TOTAL FREE ENERGY PREDICTED BY IDOCK:   -6.34 KCAL/MOL
REMARK 923 INTER-LIGAND FREE ENERGY PREDICTED BY IDOCK:   -5.57 KCAL/MOL
REMARK 924 INTRA-LIGAND FREE ENERGY PREDICTED BY IDOCK:   -0.78 KCAL/MOL
REMARK 927      BINDING AFFINITY PREDICTED BY RF-SCORE:    0.00 PKD
ROOT
HETATM    1  C   UNL     1     -11.655  14.558  68.925  1.00  0.00    -0.341 C  
HETATM    2  C   UNL     1     -11.629  14.836  67.424  1.00  0.00    -0.360 C  
ENDROOT
BRANCH   2   3
HETATM    3  N   UNL     1     -11.583  13.607  66.617  1.00  0.00    -0.346 NA 
HETATM    4  C   UNL     1     -12.759  13.466  65.752  1.00  0.00    -0.318 C  
HETATM    5  C   UNL     1     -12.303  12.440  64.736  1.00  0.00    -0.497 C  
HETATM    6  C   UNL     1     -10.863  12.828  64.463  1.00  0.00    -0.373 C  
HETATM    7  C   UNL     1     -10.400  13.590  65.715  1.00  0.00    -0.292 C  
BRANCH   7   8
HETATM    8  C   UNL     1      -9.180  12.914  66.383  1.00  0.00    -0.137 C  
BRANCH   8   9
HETATM    9  N   UNL     1      -9.523  11.833  67.300  1.00  0.00    -0.169 N  
HETATM   10  C   UNL     1      -8.725  11.506  68.385  1.00  0.00    -0.160 C  
HETATM   11  H   UNL     1     -10.378  11.301  67.139  1.00  0.00     0.000 HD 
HETATM   12  O   UNL     1      -7.666  12.082  68.604  1.00  0.00    -0.125 OA 
BRANCH  10  13
HETATM   13  C   UNL     1      -9.218  10.387  69.262  1.00  0.00    -0.198 A  
HETATM   14  C   UNL     1      -8.420   9.250  69.526  1.00  0.00    -0.144 A  
HETATM   15  C   UNL     1      -8.933   8.225  70.340  1.00  0.00    -0.146 A  
HETATM   16  C   UNL     1     -10.521  10.455  69.793  1.00  0.00    -0.284 A  
HETATM   17  C   UNL     1     -11.003   9.424  70.605  1.00  0.00    -0.290 A  
HETATM   18  C   UNL     1     -10.217   8.308  70.877  1.00  0.00    -0.224 A  
BRANCH  14  19
HETATM   19  O   UNL     1      -7.161   9.210  68.990  1.00  0.00    -0.069 OA 
HETATM   20  C   UNL     1      -6.121   8.621  69.761  1.00  0.00    -0.035 C  
ENDBRANCH  14  19
BRANCH  17  21
HETATM   21  S   UNL     1     -12.655   9.493  71.239  1.00  0.00    -0.336 S  
HETATM   22  O   UNL     1     -13.385  10.525  70.543  1.00  0.00    -0.206 OA 
HETATM   23  N   UNL     1     -13.287   8.033  70.713  1.00  0.00    -0.292 N  
HETATM   24  O   UNL     1     -12.607   9.409  72.681  1.00  0.00    -0.223 OA 
HETATM   25  H1  UNL     1     -14.238   8.072  71.078  1.00  0.00     0.000 HD 
HETATM   26  H2  UNL     1     -12.837   7.297  70.169  1.00  0.00     0.000 HD 
ENDBRANCH  17  21
ENDBRANCH  10  13
ENDBRANCH   8   9
ENDBRANCH   7   8
ENDBRANCH   2   3
TORSDOF 6
ENDMDL
MODEL      179
REMARK 921   NORMALIZED FREE ENERGY PREDICTED BY IDOCK:   -3.88 KCAL/MOL
REMARK 922        TOTAL FREE ENERGY PREDICTED BY IDOCK:   -6.33 KCAL/MOL
REMARK 923 INTER-LIGAND FREE ENERGY PREDICTED BY IDOCK:   -5.65 KCAL/MOL
REMARK 924 INTRA-LIGAND FREE ENERGY PREDICTED BY IDOCK:   -0.68 KCAL/MOL
REMARK 927      BINDING AFFINITY PREDICTED BY RF-SCORE:    0.00 PKD
ROOT
HETATM    1  C   UNL     1     -12.289  11.498  69.804  1.00  0.00    -0.220 C  
HETATM    2  C   UNL     1     -11.888  12.822  69.159  1.00  0.00    -0.301 C  
ENDROOT
BRANCH   2   3
HETATM    3  N   UNL     1     -12.471  13.989  69.840  1.00  0.00    -0.307 NA 
HETATM    4  C   UNL     1     -13.008  13.651  71.162  1.00  0.00    -0.278 C  
HETATM    5  C   UNL     1     -13.124  15.004  71.830  1.00  0.00    -0.442 C  
HETATM    6  C   UNL     1     -11.871  15.729  71.381  1.00  0.00    -0.503 C  
HETATM    7  C   UNL     1     -11.457  15.054  70.064  1.00  0.00    -0.276 C  
BRANCH   7   8
HETATM    8  C   UNL     1     -11.412  16.059  68.890  1.00  0.00    -0.362 C  
BRANCH   8   9
HETATM    9  N   UNL     1     -10.066  16.481  68.516  1.00  0.00    -0.243 N  
HETATM   10  C   UNL     1      -9.479  16.096  67.321  1.00  0.00    -0.226 C  
HETATM   11  H   UNL     1      -9.541  17.078  69.154  1.00  0.00     0.000 HD 
HETATM   12  O   UNL     1     -10.044  15.346  66.536  1.00  0.00    -0.254 OA 
BRANCH  10  13
HETATM   13  C   UNL     1      -8.098  16.631  67.055  1.00  0.00    -0.228 A  
HETATM   14  C   UNL     1      -6.941  15.890  67.393  1.00  0.00    -0.200 A  
HETATM   15  C   UNL     1      -5.673  16.440  67.138  1.00  0.00    -0.127 A  
HETATM   16  C   UNL     1      -7.954  17.918  66.501  1.00  0.00    -0.303 A  
HETATM   17  C   UNL     1      -6.682  18.438  66.251  1.00  0.00    -0.227 A  
HETATM   18  C   UNL     1      -5.541  17.707  66.571  1.00  0.00    -0.228 A  
BRANCH  14  19
HETATM   19  O   UNL     1      -7.113  14.645  67.937  1.00  0.00    -0.123 OA 
HETATM   20  C   UNL     1      -5.985  14.008  68.524  1.00  0.00    -0.092 C  
ENDBRANCH  14  19
BRANCH  17  21
HETATM   21  S   UNL     1      -6.504  20.071  65.591  1.00  0.00    -0.256 S  
HETATM   22  O   UNL     1      -7.636  20.364  64.745  1.00  0.00     0.046 OA 
HETATM   23  N   UNL     1      -6.683  21.019  66.961  1.00  0.00    -0.345 N  
HETATM   24  O   UNL     1      -5.138  20.255  65.156  1.00  0.00    -0.155 OA 
HETATM   25  H1  UNL     1      -6.580  21.959  66.581  1.00  0.00     0.000 HD 
HETATM   26  H2  UNL     1      -6.850  20.730  67.925  1.00  0.00     0.000 HD 
ENDBRANCH  17  21
ENDBRANCH  10  13
ENDBRANCH   8   9
ENDBRANCH   7   8
ENDBRANCH   2   3
TORSDOF 6
ENDMDL
MODEL      180
REMARK 921   NORMALIZED FREE ENERGY PREDICTED BY IDOCK:   -3.88 KCAL/MOL
REMARK 922        TOTAL FREE ENERGY PREDICTED BY IDOCK:   -6.32 KCAL/MOL
REMARK 923 INTER-LIGAND FREE ENERGY PREDICTED BY IDOCK:   -5.35 KCAL/MOL
REMARK 924 INTRA-LIGAND FREE ENERGY PREDICTED BY IDOCK:   -0.98 KCAL/MOL
REMARK 927      BINDING AFFINITY PREDICTED BY RF-SCORE:    0.00 PKD
ROOT
HETATM    1  C   UNL     1      -9.770   4.293  65.670  1.00  0.00    -0.207 C  
HETATM    2  C   UNL     1      -9.262   5.728  65.781  1.00  0.00    -0.070 C  
ENDROOT
BRANCH   2   3
HETATM    3  N   UNL     1      -9.805   6.438  66.950  1.00  0.00    -0.151 NA 
HETATM    4  C   UNL     1     -10.769   5.623  67.697  1.00  0.00    -0.176 C  
HETATM    5  C   UNL     1     -10.838   6.332  69.033  1.00  0.00    -0.400 C  
HETATM    6  C   UNL     1      -9.399   6.730  69.298  1.00  0.00    -0.144 C  
HETATM    7  C   UNL     1      -8.733   6.802  67.914  1.00  0.00    -0.120 C  
BRANCH   7   8
HETATM    8  C   UNL     1      -8.156   8.207  67.626  1.00  0.00    -0.127 C  
BRANCH   8   9
HETATM    9  N   UNL     1      -9.114   9.294  67.797  1.00  0.00    -0.127 N  
HETATM   10  C   UNL     1      -8.796  10.456  68.482  1.00  0.00    -0.142 C  
HETATM   11  H   UNL     1     -10.048   9.196  67.400  1.00  0.00     0.000 HD 
HETATM   12  O   UNL     1      -7.706  10.612  69.017  1.00  0.00    -0.110 OA 
BRANCH  10  13
HETATM   13  C   UNL     1      -9.874  11.504  68.554  1.00  0.00    -0.198 A  
HETATM   14  C   UNL     1     -10.931  11.412  69.489  1.00  0.00    -0.166 A  
HETATM   15  C   UNL     1     -11.923  12.408  69.506  1.00  0.00    -0.324 A  
HETATM   16  C   UNL     1      -9.855  12.573  67.638  1.00  0.00    -0.202 A  
HETATM   17  C   UNL     1     -10.850  13.553  67.681  1.00  0.00    -0.260 A  
HETATM   18  C   UNL     1     -11.885  13.474  68.608  1.00  0.00    -0.404 A  
BRANCH  14  19
HETATM   19  O   UNL     1     -10.927  10.357  70.362  1.00  0.00    -0.298 OA 
HETATM   20  C   UNL     1     -12.176   9.786  70.733  1.00  0.00    -0.256 C  
ENDBRANCH  14  19
BRANCH  17  21
HETATM   21  S   UNL     1     -10.845  14.875  66.503  1.00  0.00    -0.326 S  
HETATM   22  O   UNL     1     -10.914  16.134  67.206  1.00  0.00    -0.283 OA 
HETATM   23  N   UNL     1      -9.296  14.772  65.875  1.00  0.00    -0.508 N  
HETATM   24  O   UNL     1     -11.738  14.539  65.417  1.00  0.00    -0.350 OA 
HETATM   25  H1  UNL     1      -9.293  15.533  65.196  1.00  0.00     0.000 HD 
HETATM   26  H2  UNL     1      -8.549  14.118  66.109  1.00  0.00     0.000 HD 
ENDBRANCH  17  21
ENDBRANCH  10  13
ENDBRANCH   8   9
ENDBRANCH   7   8
ENDBRANCH   2   3
TORSDOF 6
ENDMDL
MODEL      181
REMARK 921   NORMALIZED FREE ENERGY PREDICTED BY IDOCK:   -3.88 KCAL/MOL
REMARK 922        TOTAL FREE ENERGY PREDICTED BY IDOCK:   -6.32 KCAL/MOL
REMARK 923 INTER-LIGAND FREE ENERGY PREDICTED BY IDOCK:   -5.20 KCAL/MOL
REMARK 924 INTRA-LIGAND FREE ENERGY PREDICTED BY IDOCK:   -1.11 KCAL/MOL
REMARK 927      BINDING AFFINITY PREDICTED BY RF-SCORE:    0.00 PKD
ROOT
HETATM    1  C   UNL     1     -13.705   8.268  71.676  1.00  0.00    -0.404 C  
HETATM    2  C   UNL     1     -12.817   7.101  71.255  1.00  0.00    -0.349 C  
ENDROOT
BRANCH   2   3
HETATM    3  N   UNL     1     -11.382   7.400  71.383  1.00  0.00    -0.251 NA 
HETATM    4  C   UNL     1     -11.074   8.134  72.614  1.00  0.00    -0.380 C  
HETATM    5  C   UNL     1      -9.581   7.934  72.756  1.00  0.00    -0.311 C  
HETATM    6  C   UNL     1      -9.375   6.491  72.337  1.00  0.00    -0.137 C  
HETATM    7  C   UNL     1     -10.567   6.156  71.426  1.00  0.00    -0.243 C  
BRANCH   7   8
HETATM    8  C   UNL     1     -10.109   5.721  70.015  1.00  0.00    -0.216 C  
BRANCH   8   9
HETATM    9  N   UNL     1      -9.657   6.820  69.168  1.00  0.00    -0.140 N  
HETATM   10  C   UNL     1     -10.330   7.186  68.014  1.00  0.00    -0.194 C  
HETATM   11  H   UNL     1      -8.818   7.335  69.434  1.00  0.00     0.000 HD 
HETATM   12  O   UNL     1     -11.318   6.577  67.622  1.00  0.00    -0.268 OA 
BRANCH  10  13
HETATM   13  C   UNL     1      -9.765   8.356  67.255  1.00  0.00    -0.240 A  
HETATM   14  C   UNL     1      -9.671   9.640  67.841  1.00  0.00    -0.146 A  
HETATM   15  C   UNL     1      -9.151  10.704  67.086  1.00  0.00    -0.154 A  
HETATM   16  C   UNL     1      -9.366   8.179  65.916  1.00  0.00    -0.126 A  
HETATM   17  C   UNL     1      -8.846   9.253  65.190  1.00  0.00    -0.198 A  
HETATM   18  C   UNL     1      -8.740  10.515  65.767  1.00  0.00    -0.188 A  
BRANCH  14  19
HETATM   19  O   UNL     1     -10.074   9.783  69.142  1.00  0.00    -0.173 OA 
HETATM   20  C   UNL     1     -10.819  10.943  69.491  1.00  0.00    -0.238 C  
ENDBRANCH  14  19
BRANCH  17  21
HETATM   21  S   UNL     1      -8.381   9.036  63.495  1.00  0.00    -0.161 S  
HETATM   22  O   UNL     1      -8.400   7.629  63.176  1.00  0.00    -0.040 OA 
HETATM   23  N   UNL     1      -9.682   9.719  62.691  1.00  0.00    -0.524 N  
HETATM   24  O   UNL     1      -7.246   9.885  63.208  1.00  0.00    -0.121 OA 
HETATM   25  H1  UNL     1      -9.415   9.594  61.715  1.00  0.00     0.000 HD 
HETATM   26  H2  UNL     1     -10.523  10.147  63.077  1.00  0.00     0.000 HD 
ENDBRANCH  17  21
ENDBRANCH  10  13
ENDBRANCH   8   9
ENDBRANCH   7   8
ENDBRANCH   2   3
TORSDOF 6
ENDMDL
MODEL      182
REMARK 921   NORMALIZED FREE ENERGY PREDICTED BY IDOCK:   -3.86 KCAL/MOL
REMARK 922        TOTAL FREE ENERGY PREDICTED BY IDOCK:   -6.30 KCAL/MOL
REMARK 923 INTER-LIGAND FREE ENERGY PREDICTED BY IDOCK:   -5.49 KCAL/MOL
REMARK 924 INTRA-LIGAND FREE ENERGY PREDICTED BY IDOCK:   -0.81 KCAL/MOL
REMARK 927      BINDING AFFINITY PREDICTED BY RF-SCORE:    0.00 PKD
ROOT
HETATM    1  C   UNL     1     -10.882  15.355  69.561  1.00  0.00    -0.268 C  
HETATM    2  C   UNL     1      -9.843  16.432  69.262  1.00  0.00    -0.240 C  
ENDROOT
BRANCH   2   3
HETATM    3  N   UNL     1      -9.927  16.940  67.884  1.00  0.00    -0.266 NA 
HETATM    4  C   UNL     1     -10.870  18.056  67.760  1.00  0.00    -0.228 C  
HETATM    5  C   UNL     1     -10.471  18.684  66.442  1.00  0.00    -0.463 C  
HETATM    6  C   UNL     1      -8.956  18.611  66.460  1.00  0.00    -0.308 C  
HETATM    7  C   UNL     1      -8.614  17.452  67.410  1.00  0.00    -0.214 C  
BRANCH   7   8
HETATM    8  C   UNL     1      -7.791  16.351  66.701  1.00  0.00    -0.281 C  
BRANCH   8   9
HETATM    9  N   UNL     1      -8.512  15.098  66.505  1.00  0.00    -0.419 N  
HETATM   10  C   UNL     1      -8.250  13.970  67.265  1.00  0.00    -0.171 C  
HETATM   11  H   UNL     1      -9.233  15.052  65.785  1.00  0.00     0.000 HD 
HETATM   12  O   UNL     1      -7.367  13.954  68.113  1.00  0.00    -0.096 OA 
BRANCH  10  13
HETATM   13  C   UNL     1      -9.092  12.758  66.971  1.00  0.00    -0.220 A  
HETATM   14  C   UNL     1     -10.395  12.877  66.434  1.00  0.00    -0.268 A  
HETATM   15  C   UNL     1     -11.148  11.715  66.192  1.00  0.00    -0.335 A  
HETATM   16  C   UNL     1      -8.589  11.480  67.283  1.00  0.00    -0.150 A  
HETATM   17  C   UNL     1      -9.356  10.340  67.026  1.00  0.00    -0.154 A  
HETATM   18  C   UNL     1     -10.634  10.453  66.486  1.00  0.00    -0.220 A  
BRANCH  14  19
HETATM   19  O   UNL     1     -10.859  14.133  66.148  1.00  0.00    -0.291 OA 
HETATM   20  C   UNL     1     -12.266  14.331  66.085  1.00  0.00    -0.410 C  
ENDBRANCH  14  19
BRANCH  17  21
HETATM   21  S   UNL     1      -8.737   8.738  67.455  1.00  0.00    -0.135 S  
HETATM   22  O   UNL     1      -9.736   7.746  67.136  1.00  0.00    -0.158 OA 
HETATM   23  N   UNL     1      -7.501   8.537  66.343  1.00  0.00    -0.086 N  
HETATM   24  O   UNL     1      -8.100   8.813  68.751  1.00  0.00    -0.111 OA 
HETATM   25  H1  UNL     1      -7.144   7.614  66.590  1.00  0.00     0.000 HD 
HETATM   26  H2  UNL     1      -7.186   9.172  65.610  1.00  0.00     0.000 HD 
ENDBRANCH  17  21
ENDBRANCH  10  13
ENDBRANCH   8   9
ENDBRANCH   7   8
ENDBRANCH   2   3
TORSDOF 6
ENDMDL
MODEL      183
REMARK 921   NORMALIZED FREE ENERGY PREDICTED BY IDOCK:   -3.86 KCAL/MOL
REMARK 922        TOTAL FREE ENERGY PREDICTED BY IDOCK:   -6.29 KCAL/MOL
REMARK 923 INTER-LIGAND FREE ENERGY PREDICTED BY IDOCK:   -5.45 KCAL/MOL
REMARK 924 INTRA-LIGAND FREE ENERGY PREDICTED BY IDOCK:   -0.84 KCAL/MOL
REMARK 927      BINDING AFFINITY PREDICTED BY RF-SCORE:    0.00 PKD
ROOT
HETATM    1  C   UNL     1      -9.798   3.042  64.540  1.00  0.00    -0.097 C  
HETATM    2  C   UNL     1      -9.323   3.129  65.988  1.00  0.00    -0.096 C  
ENDROOT
BRANCH   2   3
HETATM    3  N   UNL     1      -8.856   4.475  66.356  1.00  0.00    -0.112 NA 
HETATM    4  C   UNL     1      -8.117   5.124  65.269  1.00  0.00    -0.120 C  
HETATM    5  C   UNL     1      -8.138   6.582  65.676  1.00  0.00    -0.128 C  
HETATM    6  C   UNL     1      -9.537   6.774  66.230  1.00  0.00    -0.087 C  
HETATM    7  C   UNL     1      -9.993   5.377  66.681  1.00  0.00    -0.195 C  
BRANCH   7   8
HETATM    8  C   UNL     1     -10.340   5.344  68.187  1.00  0.00    -0.145 C  
BRANCH   8   9
HETATM    9  N   UNL     1     -10.948   6.572  68.688  1.00  0.00    -0.403 N  
HETATM   10  C   UNL     1     -10.297   7.404  69.585  1.00  0.00    -0.223 C  
HETATM   11  H   UNL     1     -11.882   6.827  68.368  1.00  0.00     0.000 HD 
HETATM   12  O   UNL     1      -9.193   7.128  70.037  1.00  0.00    -0.146 OA 
BRANCH  10  13
HETATM   13  C   UNL     1     -11.034   8.651  69.993  1.00  0.00    -0.208 A  
HETATM   14  C   UNL     1     -11.997   8.634  71.028  1.00  0.00    -0.243 A  
HETATM   15  C   UNL     1     -12.669   9.823  71.361  1.00  0.00    -0.483 A  
HETATM   16  C   UNL     1     -10.792   9.851  69.295  1.00  0.00    -0.255 A  
HETATM   17  C   UNL     1     -11.469  11.019  69.651  1.00  0.00    -0.303 A  
HETATM   18  C   UNL     1     -12.410  11.010  70.678  1.00  0.00    -0.480 A  
BRANCH  14  19
HETATM   19  O   UNL     1     -12.216   7.452  71.683  1.00  0.00    -0.299 OA 
HETATM   20  C   UNL     1     -11.500   7.209  72.888  1.00  0.00    -0.151 C  
ENDBRANCH  14  19
BRANCH  17  21
HETATM   21  S   UNL     1     -11.193  12.516  68.747  1.00  0.00    -0.291 S  
HETATM   22  O   UNL     1     -11.490  13.644  69.598  1.00  0.00    -0.260 OA 
HETATM   23  N   UNL     1      -9.529  12.499  68.553  1.00  0.00    -0.374 N  
HETATM   24  O   UNL     1     -11.750  12.373  67.421  1.00  0.00    -0.347 OA 
HETATM   25  H1  UNL     1      -9.369  13.362  68.032  1.00  0.00     0.000 HD 
HETATM   26  H2  UNL     1      -8.852  11.807  68.872  1.00  0.00     0.000 HD 
ENDBRANCH  17  21
ENDBRANCH  10  13
ENDBRANCH   8   9
ENDBRANCH   7   8
ENDBRANCH   2   3
TORSDOF 6
ENDMDL
MODEL      184
REMARK 921   NORMALIZED FREE ENERGY PREDICTED BY IDOCK:   -3.85 KCAL/MOL
REMARK 922        TOTAL FREE ENERGY PREDICTED BY IDOCK:   -6.28 KCAL/MOL
REMARK 923 INTER-LIGAND FREE ENERGY PREDICTED BY IDOCK:   -5.79 KCAL/MOL
REMARK 924 INTRA-LIGAND FREE ENERGY PREDICTED BY IDOCK:   -0.49 KCAL/MOL
REMARK 927      BINDING AFFINITY PREDICTED BY RF-SCORE:    0.00 PKD
ROOT
HETATM    1  C   UNL     1     -11.991  14.573  69.228  1.00  0.00    -0.355 C  
HETATM    2  C   UNL     1     -11.806  15.193  67.846  1.00  0.00    -0.170 C  
ENDROOT
BRANCH   2   3
HETATM    3  N   UNL     1     -11.632  14.188  66.787  1.00  0.00    -0.372 NA 
HETATM    4  C   UNL     1     -12.625  14.329  65.717  1.00  0.00    -0.384 C  
HETATM    5  C   UNL     1     -12.006  13.542  64.582  1.00  0.00    -0.438 C  
HETATM    6  C   UNL     1     -10.532  13.889  64.674  1.00  0.00    -0.419 C  
HETATM    7  C   UNL     1     -10.300  14.305  66.135  1.00  0.00    -0.299 C  
BRANCH   7   8
HETATM    8  C   UNL     1      -9.242  13.415  66.826  1.00  0.00    -0.236 C  
BRANCH   8   9
HETATM    9  N   UNL     1      -9.678  12.043  67.064  1.00  0.00    -0.194 N  
HETATM   10  C   UNL     1      -8.779  11.011  67.280  1.00  0.00    -0.129 C  
HETATM   11  H   UNL     1     -10.677  11.837  67.070  1.00  0.00     0.000 HD 
HETATM   12  O   UNL     1      -7.568  11.191  67.242  1.00  0.00    -0.113 OA 
BRANCH  10  13
HETATM   13  C   UNL     1      -9.373   9.653  67.540  1.00  0.00    -0.149 A  
HETATM   14  C   UNL     1      -9.540   8.710  66.500  1.00  0.00    -0.237 A  
HETATM   15  C   UNL     1     -10.114   7.460  66.791  1.00  0.00    -0.305 A  
HETATM   16  C   UNL     1      -9.814   9.334  68.839  1.00  0.00    -0.170 A  
HETATM   17  C   UNL     1     -10.375   8.082  69.102  1.00  0.00    -0.220 A  
HETATM   18  C   UNL     1     -10.531   7.145  68.083  1.00  0.00    -0.244 A  
BRANCH  14  19
HETATM   19  O   UNL     1      -9.108   9.052  65.246  1.00  0.00    -0.209 OA 
HETATM   20  C   UNL     1      -9.908   9.943  64.480  1.00  0.00    -0.058 C  
ENDBRANCH  14  19
BRANCH  17  21
HETATM   21  S   UNL     1     -10.966   7.697  70.726  1.00  0.00    -0.255 S  
HETATM   22  O   UNL     1     -12.104   6.815  70.618  1.00  0.00    -0.392 OA 
HETATM   23  N   UNL     1      -9.711   6.772  71.339  1.00  0.00    -0.172 N  
HETATM   24  O   UNL     1     -10.990   8.908  71.516  1.00  0.00    -0.275 OA 
HETATM   25  H1  UNL     1     -10.050   6.550  72.275  1.00  0.00     0.000 HD 
HETATM   26  H2  UNL     1      -8.835   6.501  70.893  1.00  0.00     0.000 HD 
ENDBRANCH  17  21
ENDBRANCH  10  13
ENDBRANCH   8   9
ENDBRANCH   7   8
ENDBRANCH   2   3
TORSDOF 6
ENDMDL
MODEL      185
REMARK 921   NORMALIZED FREE ENERGY PREDICTED BY IDOCK:   -3.85 KCAL/MOL
REMARK 922        TOTAL FREE ENERGY PREDICTED BY IDOCK:   -6.28 KCAL/MOL
REMARK 923 INTER-LIGAND FREE ENERGY PREDICTED BY IDOCK:   -5.58 KCAL/MOL
REMARK 924 INTRA-LIGAND FREE ENERGY PREDICTED BY IDOCK:   -0.70 KCAL/MOL
REMARK 927      BINDING AFFINITY PREDICTED BY RF-SCORE:    0.00 PKD
ROOT
HETATM    1  C   UNL     1      -5.216  15.746  69.636  1.00  0.00    -0.111 C  
HETATM    2  C   UNL     1      -6.661  15.259  69.714  1.00  0.00    -0.177 C  
ENDROOT
BRANCH   2   3
HETATM    3  N   UNL     1      -7.631  16.278  69.283  1.00  0.00    -0.232 NA 
HETATM    4  C   UNL     1      -7.003  17.584  69.060  1.00  0.00    -0.237 C  
HETATM    5  C   UNL     1      -8.036  18.311  68.226  1.00  0.00    -0.312 C  
HETATM    6  C   UNL     1      -8.548  17.239  67.283  1.00  0.00    -0.214 C  
HETATM    7  C   UNL     1      -8.280  15.905  67.998  1.00  0.00    -0.148 C  
BRANCH   7   8
HETATM    8  C   UNL     1      -9.582  15.102  68.225  1.00  0.00    -0.211 C  
BRANCH   8   9
HETATM    9  N   UNL     1      -9.487  13.693  67.859  1.00  0.00    -0.205 N  
HETATM   10  C   UNL     1     -10.569  12.989  67.354  1.00  0.00    -0.234 C  
HETATM   11  H   UNL     1      -8.596  13.211  67.977  1.00  0.00     0.000 HD 
HETATM   12  O   UNL     1     -11.673  13.503  67.230  1.00  0.00    -0.340 OA 
BRANCH  10  13
HETATM   13  C   UNL     1     -10.317  11.550  66.992  1.00  0.00    -0.254 A  
HETATM   14  C   UNL     1     -10.043  11.162  65.659  1.00  0.00    -0.253 A  
HETATM   15  C   UNL     1      -9.830   9.803  65.369  1.00  0.00    -0.365 A  
HETATM   16  C   UNL     1     -10.403  10.564  67.994  1.00  0.00    -0.212 A  
HETATM   17  C   UNL     1     -10.179   9.221  67.679  1.00  0.00    -0.230 A  
HETATM   18  C   UNL     1      -9.897   8.836  66.371  1.00  0.00    -0.352 A  
BRANCH  14  19
HETATM   19  O   UNL     1      -9.973  12.142  64.706  1.00  0.00    -0.255 OA 
HETATM   20  C   UNL     1     -10.774  12.002  63.539  1.00  0.00    -0.455 C  
ENDBRANCH  14  19
BRANCH  17  21
HETATM   21  S   UNL     1     -10.326   7.979  68.933  1.00  0.00    -0.190 S  
HETATM   22  O   UNL     1     -10.708   6.731  68.317  1.00  0.00    -0.214 OA 
HETATM   23  N   UNL     1      -8.736   7.796  69.424  1.00  0.00    -0.135 N  
HETATM   24  O   UNL     1     -11.031   8.537  70.065  1.00  0.00    -0.243 OA 
HETATM   25  H1  UNL     1      -8.820   7.080  70.146  1.00  0.00     0.000 HD 
HETATM   26  H2  UNL     1      -7.900   8.274  69.089  1.00  0.00     0.000 HD 
ENDBRANCH  17  21
ENDBRANCH  10  13
ENDBRANCH   8   9
ENDBRANCH   7   8
ENDBRANCH   2   3
TORSDOF 6
ENDMDL
MODEL      186
REMARK 921   NORMALIZED FREE ENERGY PREDICTED BY IDOCK:   -3.83 KCAL/MOL
REMARK 922        TOTAL FREE ENERGY PREDICTED BY IDOCK:   -6.26 KCAL/MOL
REMARK 923 INTER-LIGAND FREE ENERGY PREDICTED BY IDOCK:   -5.63 KCAL/MOL
REMARK 924 INTRA-LIGAND FREE ENERGY PREDICTED BY IDOCK:   -0.62 KCAL/MOL
REMARK 927      BINDING AFFINITY PREDICTED BY RF-SCORE:    0.00 PKD
ROOT
HETATM    1  C   UNL     1      -7.491   6.354  69.049  1.00  0.00    -0.095 C  
HETATM    2  C   UNL     1      -8.966   6.001  68.874  1.00  0.00    -0.123 C  
ENDROOT
BRANCH   2   3
HETATM    3  N   UNL     1      -9.868   7.048  69.377  1.00  0.00    -0.159 NA 
HETATM    4  C   UNL     1     -11.218   6.540  69.640  1.00  0.00    -0.384 C  
HETATM    5  C   UNL     1     -11.806   7.609  70.536  1.00  0.00    -0.102 C  
HETATM    6  C   UNL     1     -10.651   7.986  71.443  1.00  0.00    -0.258 C  
HETATM    7  C   UNL     1      -9.380   7.617  70.662  1.00  0.00    -0.163 C  
BRANCH   7   8
HETATM    8  C   UNL     1      -8.466   8.843  70.437  1.00  0.00    -0.166 C  
BRANCH   8   9
HETATM    9  N   UNL     1      -9.183  10.070  70.103  1.00  0.00    -0.384 N  
HETATM   10  C   UNL     1      -9.323  10.509  68.797  1.00  0.00    -0.180 C  
HETATM   11  H   UNL     1      -9.594  10.622  70.856  1.00  0.00     0.000 HD 
HETATM   12  O   UNL     1      -8.815   9.911  67.856  1.00  0.00    -0.128 OA 
BRANCH  10  13
HETATM   13  C   UNL     1     -10.113  11.775  68.600  1.00  0.00    -0.198 A  
HETATM   14  C   UNL     1     -11.421  11.917  69.118  1.00  0.00    -0.296 A  
HETATM   15  C   UNL     1     -12.123  13.114  68.894  1.00  0.00    -0.232 A  
HETATM   16  C   UNL     1      -9.553  12.822  67.843  1.00  0.00    -0.211 A  
HETATM   17  C   UNL     1     -10.270  14.004  67.641  1.00  0.00    -0.241 A  
HETATM   18  C   UNL     1     -11.554  14.153  68.159  1.00  0.00    -0.365 A  
BRANCH  14  19
HETATM   19  O   UNL     1     -11.941  10.878  69.843  1.00  0.00    -0.298 OA 
HETATM   20  C   UNL     1     -12.558  11.173  71.090  1.00  0.00    -0.409 C  
ENDBRANCH  14  19
BRANCH  17  21
HETATM   21  S   UNL     1      -9.580  15.304  66.656  1.00  0.00    -0.274 S  
HETATM   22  O   UNL     1      -8.140  15.222  66.708  1.00  0.00    -0.222 OA 
HETATM   23  N   UNL     1     -10.023  14.837  65.110  1.00  0.00    -0.449 N  
HETATM   24  O   UNL     1     -10.301  16.529  66.924  1.00  0.00    -0.295 OA 
HETATM   25  H1  UNL     1      -9.626  15.586  64.542  1.00  0.00     0.000 HD 
HETATM   26  H2  UNL     1     -10.552  14.018  64.812  1.00  0.00     0.000 HD 
ENDBRANCH  17  21
ENDBRANCH  10  13
ENDBRANCH   8   9
ENDBRANCH   7   8
ENDBRANCH   2   3
TORSDOF 6
ENDMDL
MODEL      187
REMARK 921   NORMALIZED FREE ENERGY PREDICTED BY IDOCK:   -3.83 KCAL/MOL
REMARK 922        TOTAL FREE ENERGY PREDICTED BY IDOCK:   -6.25 KCAL/MOL
REMARK 923 INTER-LIGAND FREE ENERGY PREDICTED BY IDOCK:   -5.88 KCAL/MOL
REMARK 924 INTRA-LIGAND FREE ENERGY PREDICTED BY IDOCK:   -0.37 KCAL/MOL
REMARK 927      BINDING AFFINITY PREDICTED BY RF-SCORE:    0.00 PKD
ROOT
HETATM    1  C   UNL     1     -11.050  11.687  63.635  1.00  0.00    -0.506 C  
HETATM    2  C   UNL     1      -9.949  11.787  64.687  1.00  0.00    -0.243 C  
ENDROOT
BRANCH   2   3
HETATM    3  N   UNL     1      -9.419  10.474  65.087  1.00  0.00    -0.212 NA 
HETATM    4  C   UNL     1      -9.121   9.620  63.933  1.00  0.00    -0.185 C  
HETATM    5  C   UNL     1      -8.208   8.568  64.524  1.00  0.00    -0.158 C  
HETATM    6  C   UNL     1      -7.331   9.357  65.478  1.00  0.00    -0.088 C  
HETATM    7  C   UNL     1      -8.147  10.606  65.845  1.00  0.00    -0.159 C  
BRANCH   7   8
HETATM    8  C   UNL     1      -8.394  10.705  67.368  1.00  0.00    -0.119 C  
BRANCH   8   9
HETATM    9  N   UNL     1      -9.288  11.790  67.760  1.00  0.00    -0.176 N  
HETATM   10  C   UNL     1      -8.814  13.037  68.134  1.00  0.00    -0.194 C  
HETATM   11  H   UNL     1     -10.295  11.625  67.757  1.00  0.00     0.000 HD 
HETATM   12  O   UNL     1      -7.616  13.279  68.197  1.00  0.00    -0.116 OA 
BRANCH  10  13
HETATM   13  C   UNL     1      -9.854  14.067  68.485  1.00  0.00    -0.225 A  
HETATM   14  C   UNL     1      -9.959  15.282  67.768  1.00  0.00    -0.224 A  
HETATM   15  C   UNL     1     -10.936  16.220  68.144  1.00  0.00    -0.343 A  
HETATM   16  C   UNL     1     -10.708  13.836  69.580  1.00  0.00     0.073 A  
HETATM   17  C   UNL     1     -11.676  14.782  69.928  1.00  0.00    -0.306 A  
HETATM   18  C   UNL     1     -11.791  15.974  69.218  1.00  0.00    -0.264 A  
BRANCH  14  19
HETATM   19  O   UNL     1      -9.109  15.482  66.713  1.00  0.00    -0.217 OA 
HETATM   20  C   UNL     1      -8.795  16.819  66.347  1.00  0.00    -0.296 C  
ENDBRANCH  14  19
BRANCH  17  21
HETATM   21  S   UNL     1     -12.723  14.506  71.329  1.00  0.00    -0.367 S  
HETATM   22  O   UNL     1     -12.149  15.157  72.482  1.00  0.00    -0.355 OA 
HETATM   23  N   UNL     1     -14.086  15.391  70.920  1.00  0.00    -0.864 N  
HETATM   24  O   UNL     1     -13.136  13.121  71.340  1.00  0.00    -0.337 OA 
HETATM   25  H1  UNL     1     -14.689  15.232  71.726  1.00  0.00     0.000 HD 
HETATM   26  H2  UNL     1     -14.266  15.944  70.082  1.00  0.00     0.000 HD 
ENDBRANCH  17  21
ENDBRANCH  10  13
ENDBRANCH   8   9
ENDBRANCH   7   8
ENDBRANCH   2   3
TORSDOF 6
ENDMDL
MODEL      188
REMARK 921   NORMALIZED FREE ENERGY PREDICTED BY IDOCK:   -3.81 KCAL/MOL
REMARK 922        TOTAL FREE ENERGY PREDICTED BY IDOCK:   -6.23 KCAL/MOL
REMARK 923 INTER-LIGAND FREE ENERGY PREDICTED BY IDOCK:   -5.60 KCAL/MOL
REMARK 924 INTRA-LIGAND FREE ENERGY PREDICTED BY IDOCK:   -0.63 KCAL/MOL
REMARK 927      BINDING AFFINITY PREDICTED BY RF-SCORE:    0.00 PKD
ROOT
HETATM    1  C   UNL     1     -11.859  10.952  69.770  1.00  0.00    -0.419 C  
HETATM    2  C   UNL     1     -11.654  12.463  69.833  1.00  0.00    -0.186 C  
ENDROOT
BRANCH   2   3
HETATM    3  N   UNL     1     -12.671  13.144  70.648  1.00  0.00    -0.188 NA 
HETATM    4  C   UNL     1     -13.339  12.232  71.581  1.00  0.00    -0.156 C  
HETATM    5  C   UNL     1     -13.972  13.179  72.578  1.00  0.00    -0.409 C  
HETATM    6  C   UNL     1     -12.917  14.253  72.763  1.00  0.00    -0.545 C  
HETATM    7  C   UNL     1     -12.073  14.223  71.480  1.00  0.00    -0.240 C  
BRANCH   7   8
HETATM    8  C   UNL     1     -12.087  15.585  70.749  1.00  0.00    -0.390 C  
BRANCH   8   9
HETATM    9  N   UNL     1     -10.901  15.841  69.938  1.00  0.00    -0.298 N  
HETATM   10  C   UNL     1     -10.949  16.608  68.785  1.00  0.00    -0.309 C  
HETATM   11  H   UNL     1     -10.009  15.443  70.229  1.00  0.00     0.000 HD 
HETATM   12  O   UNL     1     -11.999  17.076  68.363  1.00  0.00     0.607 OA 
BRANCH  10  13
HETATM   13  C   UNL     1      -9.642  16.812  68.066  1.00  0.00    -0.234 A  
HETATM   14  C   UNL     1      -9.269  16.001  66.969  1.00  0.00    -0.212 A  
HETATM   15  C   UNL     1      -8.032  16.221  66.341  1.00  0.00    -0.299 A  
HETATM   16  C   UNL     1      -8.752  17.801  68.527  1.00  0.00    -0.284 A  
HETATM   17  C   UNL     1      -7.530  18.003  67.879  1.00  0.00    -0.222 A  
HETATM   18  C   UNL     1      -7.164  17.215  66.791  1.00  0.00    -0.260 A  
BRANCH  14  19
HETATM   19  O   UNL     1     -10.153  15.043  66.549  1.00  0.00    -0.260 OA 
HETATM   20  C   UNL     1     -10.423  14.942  65.156  1.00  0.00    -0.417 C  
ENDBRANCH  14  19
BRANCH  17  21
HETATM   21  S   UNL     1      -6.396  19.221  68.484  1.00  0.00    -0.255 S  
HETATM   22  O   UNL     1      -5.136  18.584  68.786  1.00  0.00    -0.178 OA 
HETATM   23  N   UNL     1      -6.135  20.157  67.120  1.00  0.00    -0.177 N  
HETATM   24  O   UNL     1      -7.083  20.074  69.427  1.00  0.00    -0.270 OA 
HETATM   25  H1  UNL     1      -5.482  20.858  67.468  1.00  0.00     0.000 HD 
HETATM   26  H2  UNL     1      -6.527  20.053  66.184  1.00  0.00     0.000 HD 
ENDBRANCH  17  21
ENDBRANCH  10  13
ENDBRANCH   8   9
ENDBRANCH   7   8
ENDBRANCH   2   3
TORSDOF 6
ENDMDL
MODEL      189
REMARK 921   NORMALIZED FREE ENERGY PREDICTED BY IDOCK:   -3.81 KCAL/MOL
REMARK 922        TOTAL FREE ENERGY PREDICTED BY IDOCK:   -6.23 KCAL/MOL
REMARK 923 INTER-LIGAND FREE ENERGY PREDICTED BY IDOCK:   -5.31 KCAL/MOL
REMARK 924 INTRA-LIGAND FREE ENERGY PREDICTED BY IDOCK:   -0.92 KCAL/MOL
REMARK 927      BINDING AFFINITY PREDICTED BY RF-SCORE:    0.00 PKD
ROOT
HETATM    1  C   UNL     1     -12.461  13.490  65.268  1.00  0.00    -0.525 C  
HETATM    2  C   UNL     1     -12.197  14.010  66.679  1.00  0.00    -0.428 C  
ENDROOT
BRANCH   2   3
HETATM    3  N   UNL     1     -10.867  14.622  66.822  1.00  0.00    -0.306 NA 
HETATM    4  C   UNL     1     -10.927  15.936  67.470  1.00  0.00    -0.280 C  
HETATM    5  C   UNL     1      -9.496  16.156  67.910  1.00  0.00    -0.214 C  
HETATM    6  C   UNL     1      -9.060  14.787  68.394  1.00  0.00    -0.188 C  
HETATM    7  C   UNL     1      -9.969  13.786  67.663  1.00  0.00    -0.238 C  
BRANCH   7   8
HETATM    8  C   UNL     1      -9.155  12.785  66.811  1.00  0.00    -0.209 C  
BRANCH   8   9
HETATM    9  N   UNL     1      -9.289  11.395  67.232  1.00  0.00    -0.166 N  
HETATM   10  C   UNL     1      -9.897  10.439  66.434  1.00  0.00    -0.213 C  
HETATM   11  H   UNL     1      -8.924  11.117  68.143  1.00  0.00     0.000 HD 
HETATM   12  O   UNL     1     -10.392  10.722  65.350  1.00  0.00    -0.270 OA 
BRANCH  10  13
HETATM   13  C   UNL     1      -9.939   9.039  66.985  1.00  0.00    -0.295 A  
HETATM   14  C   UNL     1     -10.426   8.772  68.286  1.00  0.00    -0.187 A  
HETATM   15  C   UNL     1     -10.430   7.449  68.761  1.00  0.00    -0.215 A  
HETATM   16  C   UNL     1      -9.437   7.978  66.205  1.00  0.00    -0.241 A  
HETATM   17  C   UNL     1      -9.459   6.672  66.699  1.00  0.00    -0.164 A  
HETATM   18  C   UNL     1      -9.949   6.403  67.974  1.00  0.00    -0.144 A  
BRANCH  14  19
HETATM   19  O   UNL     1     -10.900   9.824  69.023  1.00  0.00    -0.219 OA 
HETATM   20  C   UNL     1     -11.358   9.567  70.344  1.00  0.00    -0.264 C  
ENDBRANCH  14  19
BRANCH  17  21
HETATM   21  S   UNL     1      -8.793   5.346  65.733  1.00  0.00    -0.152 S  
HETATM   22  O   UNL     1      -8.309   5.873  64.479  1.00  0.00    -0.132 OA 
HETATM   23  N   UNL     1      -7.436   4.921  66.619  1.00  0.00    -0.086 N  
HETATM   24  O   UNL     1      -9.689   4.214  65.808  1.00  0.00    -0.176 OA 
HETATM   25  H1  UNL     1      -7.052   4.158  66.063  1.00  0.00     0.000 HD 
HETATM   26  H2  UNL     1      -7.086   5.322  67.489  1.00  0.00     0.000 HD 
ENDBRANCH  17  21
ENDBRANCH  10  13
ENDBRANCH   8   9
ENDBRANCH   7   8
ENDBRANCH   2   3
TORSDOF 6
ENDMDL
MODEL      190
REMARK 921   NORMALIZED FREE ENERGY PREDICTED BY IDOCK:   -3.81 KCAL/MOL
REMARK 922        TOTAL FREE ENERGY PREDICTED BY IDOCK:   -6.22 KCAL/MOL
REMARK 923 INTER-LIGAND FREE ENERGY PREDICTED BY IDOCK:   -6.04 KCAL/MOL
REMARK 924 INTRA-LIGAND FREE ENERGY PREDICTED BY IDOCK:   -0.18 KCAL/MOL
REMARK 927      BINDING AFFINITY PREDICTED BY RF-SCORE:    0.00 PKD
ROOT
HETATM    1  C   UNL     1     -10.302  15.640  65.243  1.00  0.00    -0.405 C  
HETATM    2  C   UNL     1     -10.052  14.209  64.776  1.00  0.00    -0.165 C  
ENDROOT
BRANCH   2   3
HETATM    3  N   UNL     1     -11.286  13.415  64.681  1.00  0.00    -0.336 NA 
HETATM    4  C   UNL     1     -11.826  13.388  63.318  1.00  0.00    -0.141 C  
HETATM    5  C   UNL     1     -12.771  12.206  63.358  1.00  0.00    -0.508 C  
HETATM    6  C   UNL     1     -12.024  11.183  64.192  1.00  0.00     0.732 C  
HETATM    7  C   UNL     1     -11.055  11.997  65.064  1.00  0.00    -0.316 C  
BRANCH   7   8
HETATM    8  C   UNL     1     -11.301  11.762  66.572  1.00  0.00    -0.305 C  
BRANCH   8   9
HETATM    9  N   UNL     1     -11.313  12.982  67.373  1.00  0.00    -0.289 N  
HETATM   10  C   UNL     1     -11.304  12.954  68.758  1.00  0.00    -0.290 C  
HETATM   11  H   UNL     1     -11.328  13.884  66.898  1.00  0.00     0.000 HD 
HETATM   12  O   UNL     1     -11.328  11.901  69.383  1.00  0.00    -0.259 OA 
BRANCH  10  13
HETATM   13  C   UNL     1     -11.288  14.289  69.452  1.00  0.00    -0.325 A  
HETATM   14  C   UNL     1     -11.907  14.475  70.710  1.00  0.00    -0.304 A  
HETATM   15  C   UNL     1     -11.878  15.746  71.310  1.00  0.00    -0.491 A  
HETATM   16  C   UNL     1     -10.684  15.389  68.811  1.00  0.00    -0.241 A  
HETATM   17  C   UNL     1     -10.664  16.640  69.433  1.00  0.00    -0.331 A  
HETATM   18  C   UNL     1     -11.261  16.824  70.677  1.00  0.00     0.249 A  
BRANCH  14  19
HETATM   19  O   UNL     1     -12.492  13.389  71.305  1.00  0.00    -0.345 OA 
HETATM   20  C   UNL     1     -13.648  13.603  72.104  1.00  0.00    -0.538 C  
ENDBRANCH  14  19
BRANCH  17  21
HETATM   21  S   UNL     1      -9.939  18.029  68.608  1.00  0.00    -0.387 S  
HETATM   22  O   UNL     1     -10.695  18.316  67.413  1.00  0.00    -0.412 OA 
HETATM   23  N   UNL     1     -10.265  19.275  69.680  1.00  0.00    -0.338 N  
HETATM   24  O   UNL     1      -8.502  17.874  68.603  1.00  0.00    -0.299 OA 
HETATM   25  H1  UNL     1      -9.848  20.075  69.206  1.00  0.00     0.000 HD 
HETATM   26  H2  UNL     1     -10.753  19.241  70.575  1.00  0.00     0.000 HD 
ENDBRANCH  17  21
ENDBRANCH  10  13
ENDBRANCH   8   9
ENDBRANCH   7   8
ENDBRANCH   2   3
TORSDOF 6
ENDMDL
MODEL      191
REMARK 921   NORMALIZED FREE ENERGY PREDICTED BY IDOCK:   -3.79 KCAL/MOL
REMARK 922        TOTAL FREE ENERGY PREDICTED BY IDOCK:   -6.20 KCAL/MOL
REMARK 923 INTER-LIGAND FREE ENERGY PREDICTED BY IDOCK:   -5.91 KCAL/MOL
REMARK 924 INTRA-LIGAND FREE ENERGY PREDICTED BY IDOCK:   -0.28 KCAL/MOL
REMARK 927      BINDING AFFINITY PREDICTED BY RF-SCORE:    0.00 PKD
ROOT
HETATM    1  C   UNL     1      -6.191   9.299  68.881  1.00  0.00    -0.043 C  
HETATM    2  C   UNL     1      -7.266   9.558  69.933  1.00  0.00    -0.093 C  
ENDROOT
BRANCH   2   3
HETATM    3  N   UNL     1      -8.439   8.682  69.779  1.00  0.00    -0.126 NA 
HETATM    4  C   UNL     1      -8.120   7.275  70.041  1.00  0.00    -0.130 C  
HETATM    5  C   UNL     1      -9.485   6.662  70.269  1.00  0.00    -0.166 C  
HETATM    6  C   UNL     1     -10.219   7.720  71.071  1.00  0.00    -0.210 C  
HETATM    7  C   UNL     1      -9.522   9.047  70.731  1.00  0.00    -0.251 C  
BRANCH   7   8
HETATM    8  C   UNL     1     -10.503  10.073  70.118  1.00  0.00    -0.284 C  
BRANCH   8   9
HETATM    9  N   UNL     1     -10.231  10.401  68.723  1.00  0.00    -0.177 N  
HETATM   10  C   UNL     1     -11.214  10.881  67.873  1.00  0.00    -0.321 C  
HETATM   11  H   UNL     1      -9.286  10.272  68.361  1.00  0.00     0.000 HD 
HETATM   12  O   UNL     1     -12.375  11.015  68.240  1.00  0.00    -0.479 OA 
BRANCH  10  13
HETATM   13  C   UNL     1     -10.782  11.205  66.468  1.00  0.00    -0.314 A  
HETATM   14  C   UNL     1     -11.406  12.232  65.722  1.00  0.00    -0.355 A  
HETATM   15  C   UNL     1     -10.977  12.485  64.408  1.00  0.00    -0.378 A  
HETATM   16  C   UNL     1      -9.766  10.436  65.868  1.00  0.00    -0.272 A  
HETATM   17  C   UNL     1      -9.353  10.713  64.562  1.00  0.00    -0.243 A  
HETATM   18  C   UNL     1      -9.956  11.731  63.829  1.00  0.00    -0.379 A  
BRANCH  14  19
HETATM   19  O   UNL     1     -12.396  12.957  66.330  1.00  0.00    -0.463 OA 
HETATM   20  C   UNL     1     -12.774  14.197  65.747  1.00  0.00    -0.413 C  
ENDBRANCH  14  19
BRANCH  17  21
HETATM   21  S   UNL     1      -8.103   9.721  63.796  1.00  0.00    -0.161 S  
HETATM   22  O   UNL     1      -8.722   8.847  62.828  1.00  0.00    -0.200 OA 
HETATM   23  N   UNL     1      -7.246  10.862  62.920  1.00  0.00    -0.354 N  
HETATM   24  O   UNL     1      -7.198   9.238  64.815  1.00  0.00    -0.098 OA 
HETATM   25  H1  UNL     1      -6.526  10.290  62.479  1.00  0.00     0.000 HD 
HETATM   26  H2  UNL     1      -7.402  11.867  62.847  1.00  0.00     0.000 HD 
ENDBRANCH  17  21
ENDBRANCH  10  13
ENDBRANCH   8   9
ENDBRANCH   7   8
ENDBRANCH   2   3
TORSDOF 6
ENDMDL
MODEL      192
REMARK 921   NORMALIZED FREE ENERGY PREDICTED BY IDOCK:   -3.78 KCAL/MOL
REMARK 922        TOTAL FREE ENERGY PREDICTED BY IDOCK:   -6.19 KCAL/MOL
REMARK 923 INTER-LIGAND FREE ENERGY PREDICTED BY IDOCK:   -5.52 KCAL/MOL
REMARK 924 INTRA-LIGAND FREE ENERGY PREDICTED BY IDOCK:   -0.67 KCAL/MOL
REMARK 927      BINDING AFFINITY PREDICTED BY RF-SCORE:    0.00 PKD
ROOT
HETATM    1  C   UNL     1      -7.958   7.277  64.216  1.00  0.00    -0.093 C  
HETATM    2  C   UNL     1      -8.634   8.319  65.104  1.00  0.00    -0.105 C  
ENDROOT
BRANCH   2   3
HETATM    3  N   UNL     1      -8.740   9.637  64.459  1.00  0.00    -0.188 NA 
HETATM    4  C   UNL     1      -8.762   9.540  62.996  1.00  0.00    -0.229 C  
HETATM    5  C   UNL     1      -9.313  10.888  62.582  1.00  0.00    -0.343 C  
HETATM    6  C   UNL     1     -10.390  11.162  63.614  1.00  0.00    -0.449 C  
HETATM    7  C   UNL     1      -9.994  10.335  64.848  1.00  0.00    -0.323 C  
BRANCH   7   8
HETATM    8  C   UNL     1      -9.792  11.225  66.096  1.00  0.00    -0.225 C  
BRANCH   8   9
HETATM    9  N   UNL     1      -9.484  10.485  67.315  1.00  0.00    -0.157 N  
HETATM   10  C   UNL     1     -10.071  10.792  68.532  1.00  0.00    -0.176 C  
HETATM   11  H   UNL     1      -8.815   9.716  67.270  1.00  0.00     0.000 HD 
HETATM   12  O   UNL     1     -10.848  11.731  68.655  1.00  0.00    -0.201 OA 
BRANCH  10  13
HETATM   13  C   UNL     1      -9.681   9.925  69.698  1.00  0.00    -0.252 A  
HETATM   14  C   UNL     1      -8.334   9.814  70.118  1.00  0.00    -0.175 A  
HETATM   15  C   UNL     1      -8.019   8.979  71.203  1.00  0.00    -0.169 A  
HETATM   16  C   UNL     1     -10.672   9.171  70.355  1.00  0.00    -0.282 A  
HETATM   17  C   UNL     1     -10.332   8.353  71.436  1.00  0.00    -0.222 A  
HETATM   18  C   UNL     1      -9.010   8.251  71.860  1.00  0.00    -0.249 A  
BRANCH  14  19
HETATM   19  O   UNL     1      -7.392  10.553  69.454  1.00  0.00    -0.105 OA 
HETATM   20  C   UNL     1      -6.128  10.745  70.077  1.00  0.00    -0.107 C  
ENDBRANCH  14  19
BRANCH  17  21
HETATM   21  S   UNL     1     -11.574   7.377  72.236  1.00  0.00    -0.286 S  
HETATM   22  O   UNL     1     -11.027   6.821  73.451  1.00  0.00    -0.266 OA 
HETATM   23  N   UNL     1     -12.679   8.543  72.708  1.00  0.00    -0.585 N  
HETATM   24  O   UNL     1     -12.247   6.569  71.243  1.00  0.00    -0.340 OA 
HETATM   25  H1  UNL     1     -13.395   7.981  73.168  1.00  0.00     0.000 HD 
HETATM   26  H2  UNL     1     -12.646   9.553  72.570  1.00  0.00     0.000 HD 
ENDBRANCH  17  21
ENDBRANCH  10  13
ENDBRANCH   8   9
ENDBRANCH   7   8
ENDBRANCH   2   3
TORSDOF 6
ENDMDL
MODEL      193
REMARK 921   NORMALIZED FREE ENERGY PREDICTED BY IDOCK:   -3.76 KCAL/MOL
REMARK 922        TOTAL FREE ENERGY PREDICTED BY IDOCK:   -6.17 KCAL/MOL
REMARK 923 INTER-LIGAND FREE ENERGY PREDICTED BY IDOCK:   -5.90 KCAL/MOL
REMARK 924 INTRA-LIGAND FREE ENERGY PREDICTED BY IDOCK:   -0.27 KCAL/MOL
REMARK 927      BINDING AFFINITY PREDICTED BY RF-SCORE:    0.00 PKD
ROOT
HETATM    1  C   UNL     1      -7.620   5.860  65.805  1.00  0.00    -0.087 C  
HETATM    2  C   UNL     1      -8.095   7.190  65.226  1.00  0.00    -0.134 C  
ENDROOT
BRANCH   2   3
HETATM    3  N   UNL     1      -8.402   8.188  66.262  1.00  0.00    -0.113 NA 
HETATM    4  C   UNL     1      -8.773   7.568  67.538  1.00  0.00    -0.125 C  
HETATM    5  C   UNL     1      -8.600   8.705  68.523  1.00  0.00    -0.135 C  
HETATM    6  C   UNL     1      -7.341   9.401  68.041  1.00  0.00    -0.079 C  
HETATM    7  C   UNL     1      -7.229   9.057  66.548  1.00  0.00    -0.085 C  
BRANCH   7   8
HETATM    8  C   UNL     1      -7.225  10.325  65.663  1.00  0.00    -0.148 C  
BRANCH   8   9
HETATM    9  N   UNL     1      -8.124  11.378  66.124  1.00  0.00    -0.356 N  
HETATM   10  C   UNL     1      -9.459  11.421  65.756  1.00  0.00    -0.233 C  
HETATM   11  H   UNL     1      -7.757  12.106  66.737  1.00  0.00     0.000 HD 
HETATM   12  O   UNL     1      -9.944  10.599  64.988  1.00  0.00    -0.261 OA 
BRANCH  10  13
HETATM   13  C   UNL     1     -10.273  12.549  66.330  1.00  0.00    -0.260 A  
HETATM   14  C   UNL     1     -11.546  12.879  65.811  1.00  0.00    -0.368 A  
HETATM   15  C   UNL     1     -12.261  13.952  66.373  1.00  0.00    -0.487 A  
HETATM   16  C   UNL     1      -9.733  13.322  67.377  1.00  0.00    -0.221 A  
HETATM   17  C   UNL     1     -10.467  14.379  67.921  1.00  0.00    -0.239 A  
HETATM   18  C   UNL     1     -11.727  14.699  67.421  1.00  0.00    -0.413 A  
BRANCH  14  19
HETATM   19  O   UNL     1     -12.041  12.114  64.789  1.00  0.00    -0.362 OA 
HETATM   20  C   UNL     1     -12.084  12.681  63.486  1.00  0.00    -0.561 C  
ENDBRANCH  14  19
BRANCH  17  21
HETATM   21  S   UNL     1      -9.770  15.373  69.210  1.00  0.00    -0.277 S  
HETATM   22  O   UNL     1     -10.223  16.735  69.052  1.00  0.00    -0.274 OA 
HETATM   23  N   UNL     1     -10.547  14.773  70.567  1.00  0.00    -0.485 N  
HETATM   24  O   UNL     1      -8.375  15.029  69.365  1.00  0.00    -0.198 OA 
HETATM   25  H1  UNL     1     -10.146  15.346  71.309  1.00  0.00     0.000 HD 
HETATM   26  H2  UNL     1     -11.241  14.028  70.634  1.00  0.00     0.000 HD 
ENDBRANCH  17  21
ENDBRANCH  10  13
ENDBRANCH   8   9
ENDBRANCH   7   8
ENDBRANCH   2   3
TORSDOF 6
ENDMDL
MODEL      194
REMARK 921   NORMALIZED FREE ENERGY PREDICTED BY IDOCK:   -3.75 KCAL/MOL
REMARK 922        TOTAL FREE ENERGY PREDICTED BY IDOCK:   -6.15 KCAL/MOL
REMARK 923 INTER-LIGAND FREE ENERGY PREDICTED BY IDOCK:   -5.24 KCAL/MOL
REMARK 924 INTRA-LIGAND FREE ENERGY PREDICTED BY IDOCK:   -0.92 KCAL/MOL
REMARK 927      BINDING AFFINITY PREDICTED BY RF-SCORE:    0.00 PKD
ROOT
HETATM    1  C   UNL     1     -10.028   6.824  73.238  1.00  0.00    -0.227 C  
HETATM    2  C   UNL     1     -10.784   8.115  72.938  1.00  0.00    -0.247 C  
ENDROOT
BRANCH   2   3
HETATM    3  N   UNL     1     -11.887   7.923  71.984  1.00  0.00    -0.301 NA 
HETATM    4  C   UNL     1     -12.567   6.637  72.172  1.00  0.00    -0.126 C  
HETATM    5  C   UNL     1     -13.877   6.844  71.442  1.00  0.00    -0.224 C  
HETATM    6  C   UNL     1     -14.255   8.270  71.791  1.00  0.00    -0.544 C  
HETATM    7  C   UNL     1     -12.932   8.970  72.139  1.00  0.00    -0.424 C  
BRANCH   7   8
HETATM    8  C   UNL     1     -12.665  10.186  71.222  1.00  0.00    -0.407 C  
BRANCH   8   9
HETATM    9  N   UNL     1     -12.099   9.842  69.922  1.00  0.00    -0.470 N  
HETATM   10  C   UNL     1     -10.758  10.028  69.630  1.00  0.00    -0.255 C  
HETATM   11  H   UNL     1     -12.711   9.452  69.205  1.00  0.00     0.000 HD 
HETATM   12  O   UNL     1      -9.985  10.532  70.436  1.00  0.00     0.220 OA 
BRANCH  10  13
HETATM   13  C   UNL     1     -10.309   9.601  68.259  1.00  0.00    -0.240 A  
HETATM   14  C   UNL     1     -10.229  10.522  67.188  1.00  0.00    -0.223 A  
HETATM   15  C   UNL     1      -9.819  10.070  65.922  1.00  0.00    -0.330 A  
HETATM   16  C   UNL     1     -10.008   8.245  68.026  1.00  0.00    -0.224 A  
HETATM   17  C   UNL     1      -9.596   7.823  66.759  1.00  0.00    -0.212 A  
HETATM   18  C   UNL     1      -9.504   8.729  65.705  1.00  0.00    -0.239 A  
BRANCH  14  19
HETATM   19  O   UNL     1     -10.535  11.831  67.443  1.00  0.00    -0.203 OA 
HETATM   20  C   UNL     1     -11.506  12.467  66.621  1.00  0.00    -0.370 C  
ENDBRANCH  14  19
BRANCH  17  21
HETATM   21  S   UNL     1      -9.255   6.112  66.460  1.00  0.00    -0.150 S  
HETATM   22  O   UNL     1      -8.066   5.733  67.185  1.00  0.00    -0.102 OA 
HETATM   23  N   UNL     1     -10.538   5.364  67.236  1.00  0.00    -0.214 N  
HETATM   24  O   UNL     1      -9.429   5.839  65.051  1.00  0.00     0.276 OA 
HETATM   25  H1  UNL     1     -10.342   4.379  67.064  1.00  0.00     0.000 HD 
HETATM   26  H2  UNL     1     -11.313   5.785  67.748  1.00  0.00     0.000 HD 
ENDBRANCH  17  21
ENDBRANCH  10  13
ENDBRANCH   8   9
ENDBRANCH   7   8
ENDBRANCH   2   3
TORSDOF 6
ENDMDL
MODEL      195
REMARK 921   NORMALIZED FREE ENERGY PREDICTED BY IDOCK:   -3.75 KCAL/MOL
REMARK 922        TOTAL FREE ENERGY PREDICTED BY IDOCK:   -6.14 KCAL/MOL
REMARK 923 INTER-LIGAND FREE ENERGY PREDICTED BY IDOCK:   -5.34 KCAL/MOL
REMARK 924 INTRA-LIGAND FREE ENERGY PREDICTED BY IDOCK:   -0.80 KCAL/MOL
REMARK 927      BINDING AFFINITY PREDICTED BY RF-SCORE:    0.00 PKD
ROOT
HETATM    1  C   UNL     1      -8.361   3.070  64.904  1.00  0.00    -0.095 C  
HETATM    2  C   UNL     1      -9.252   4.275  64.612  1.00  0.00    -0.156 C  
ENDROOT
BRANCH   2   3
HETATM    3  N   UNL     1      -9.393   5.174  65.768  1.00  0.00    -0.159 NA 
HETATM    4  C   UNL     1      -9.596   4.442  67.022  1.00  0.00    -0.198 C  
HETATM    5  C   UNL     1      -9.267   5.481  68.071  1.00  0.00    -0.114 C  
HETATM    6  C   UNL     1      -8.074   6.211  67.485  1.00  0.00    -0.109 C  
HETATM    7  C   UNL     1      -8.176   6.005  65.965  1.00  0.00    -0.125 C  
BRANCH   7   8
HETATM    8  C   UNL     1      -8.269   7.350  65.207  1.00  0.00    -0.127 C  
BRANCH   8   9
HETATM    9  N   UNL     1      -9.160   8.324  65.827  1.00  0.00    -0.341 N  
HETATM   10  C   UNL     1      -8.808   9.657  65.973  1.00  0.00    -0.152 C  
HETATM   11  H   UNL     1     -10.072   8.016  66.164  1.00  0.00     0.000 HD 
HETATM   12  O   UNL     1      -7.711  10.076  65.626  1.00  0.00    -0.123 OA 
BRANCH  10  13
HETATM   13  C   UNL     1      -9.838  10.554  66.604  1.00  0.00    -0.246 A  
HETATM   14  C   UNL     1     -10.421  11.626  65.889  1.00  0.00    -0.255 A  
HETATM   15  C   UNL     1     -11.367  12.445  66.528  1.00  0.00    -0.392 A  
HETATM   16  C   UNL     1     -10.194  10.349  67.951  1.00  0.00    -0.211 A  
HETATM   17  C   UNL     1     -11.143  11.174  68.560  1.00  0.00    -0.244 A  
HETATM   18  C   UNL     1     -11.728  12.223  67.856  1.00  0.00    -0.410 A  
BRANCH  14  19
HETATM   19  O   UNL     1     -10.049  11.804  64.583  1.00  0.00    -0.257 OA 
HETATM   20  C   UNL     1     -10.810  12.703  63.785  1.00  0.00    -0.426 C  
ENDBRANCH  14  19
BRANCH  17  21
HETATM   21  S   UNL     1     -11.560  10.939  70.265  1.00  0.00    -0.326 S  
HETATM   22  O   UNL     1     -11.848  12.222  70.861  1.00  0.00    -0.049 OA 
HETATM   23  N   UNL     1     -13.023  10.132  70.154  1.00  0.00    -0.552 N  
HETATM   24  O   UNL     1     -10.630  10.000  70.850  1.00  0.00    -0.271 OA 
HETATM   25  H1  UNL     1     -13.263   9.997  71.136  1.00  0.00     0.000 HD 
HETATM   26  H2  UNL     1     -13.540   9.849  69.322  1.00  0.00     0.000 HD 
ENDBRANCH  17  21
ENDBRANCH  10  13
ENDBRANCH   8   9
ENDBRANCH   7   8
ENDBRANCH   2   3
TORSDOF 6
ENDMDL
MODEL      196
REMARK 921   NORMALIZED FREE ENERGY PREDICTED BY IDOCK:   -3.69 KCAL/MOL
REMARK 922        TOTAL FREE ENERGY PREDICTED BY IDOCK:   -6.07 KCAL/MOL
REMARK 923 INTER-LIGAND FREE ENERGY PREDICTED BY IDOCK:   -5.14 KCAL/MOL
REMARK 924 INTRA-LIGAND FREE ENERGY PREDICTED BY IDOCK:   -0.92 KCAL/MOL
REMARK 927      BINDING AFFINITY PREDICTED BY RF-SCORE:    0.00 PKD
ROOT
HETATM    1  C   UNL     1      -9.431   3.096  64.411  1.00  0.00    -0.145 C  
HETATM    2  C   UNL     1      -8.787   3.368  65.768  1.00  0.00    -0.133 C  
ENDROOT
BRANCH   2   3
HETATM    3  N   UNL     1      -7.863   4.513  65.743  1.00  0.00    -0.094 NA 
HETATM    4  C   UNL     1      -7.163   4.635  64.461  1.00  0.00    -0.062 C  
HETATM    5  C   UNL     1      -6.653   6.060  64.495  1.00  0.00    -0.038 C  
HETATM    6  C   UNL     1      -7.798   6.831  65.121  1.00  0.00    -0.119 C  
HETATM    7  C   UNL     1      -8.582   5.799  65.947  1.00  0.00    -0.146 C  
BRANCH   7   8
HETATM    8  C   UNL     1      -8.649   6.188  67.442  1.00  0.00    -0.106 C  
BRANCH   8   9
HETATM    9  N   UNL     1      -9.535   7.311  67.728  1.00  0.00    -0.131 N  
HETATM   10  C   UNL     1      -9.050   8.569  68.049  1.00  0.00    -0.140 C  
HETATM   11  H   UNL     1     -10.544   7.166  67.692  1.00  0.00     0.000 HD 
HETATM   12  O   UNL     1      -7.850   8.792  68.149  1.00  0.00    -0.100 OA 
BRANCH  10  13
HETATM   13  C   UNL     1     -10.081   9.639  68.291  1.00  0.00    -0.203 A  
HETATM   14  C   UNL     1     -10.856   9.663  69.474  1.00  0.00    -0.231 A  
HETATM   15  C   UNL     1     -11.816  10.674  69.646  1.00  0.00    -0.358 A  
HETATM   16  C   UNL     1     -10.310  10.609  67.296  1.00  0.00    -0.265 A  
HETATM   17  C   UNL     1     -11.267  11.608  67.496  1.00  0.00    -0.293 A  
HETATM   18  C   UNL     1     -12.024  11.642  68.665  1.00  0.00    -0.311 A  
BRANCH  14  19
HETATM   19  O   UNL     1     -10.615   8.702  70.419  1.00  0.00    -0.209 OA 
HETATM   20  C   UNL     1     -10.627   9.088  71.788  1.00  0.00    -0.356 C  
ENDBRANCH  14  19
BRANCH  17  21
HETATM   21  S   UNL     1     -11.581  12.803  66.228  1.00  0.00    -0.398 S  
HETATM   22  O   UNL     1     -11.684  14.112  66.828  1.00  0.00    -0.370 OA 
HETATM   23  N   UNL     1     -10.140  12.788  65.376  1.00  0.00    -0.352 N  
HETATM   24  O   UNL     1     -12.582  12.278  65.327  1.00  0.00    -0.583 OA 
HETATM   25  H1  UNL     1     -10.320  13.477  64.645  1.00  0.00     0.000 HD 
HETATM   26  H2  UNL     1      -9.299  12.235  65.543  1.00  0.00     0.000 HD 
ENDBRANCH  17  21
ENDBRANCH  10  13
ENDBRANCH   8   9
ENDBRANCH   7   8
ENDBRANCH   2   3
TORSDOF 6
ENDMDL
MODEL      197
REMARK 921   NORMALIZED FREE ENERGY PREDICTED BY IDOCK:   -3.68 KCAL/MOL
REMARK 922        TOTAL FREE ENERGY PREDICTED BY IDOCK:   -6.05 KCAL/MOL
REMARK 923 INTER-LIGAND FREE ENERGY PREDICTED BY IDOCK:   -5.20 KCAL/MOL
REMARK 924 INTRA-LIGAND FREE ENERGY PREDICTED BY IDOCK:   -0.86 KCAL/MOL
REMARK 927      BINDING AFFINITY PREDICTED BY RF-SCORE:    0.00 PKD
ROOT
HETATM    1  C   UNL     1      -9.282   6.081  70.993  1.00  0.00    -0.168 C  
HETATM    2  C   UNL     1      -8.249   6.728  70.074  1.00  0.00    -0.134 C  
ENDROOT
BRANCH   2   3
HETATM    3  N   UNL     1      -8.859   7.538  69.009  1.00  0.00    -0.133 NA 
HETATM    4  C   UNL     1      -9.724   6.742  68.132  1.00  0.00    -0.129 C  
HETATM    5  C   UNL     1     -10.560   7.799  67.441  1.00  0.00    -0.345 C  
HETATM    6  C   UNL     1     -10.849   8.798  68.545  1.00  0.00    -0.016 C  
HETATM    7  C   UNL     1      -9.715   8.619  69.566  1.00  0.00    -0.179 C  
BRANCH   7   8
HETATM    8  C   UNL     1      -8.920   9.928  69.780  1.00  0.00    -0.221 C  
BRANCH   8   9
HETATM    9  N   UNL     1      -9.453  11.076  69.055  1.00  0.00    -0.362 N  
HETATM   10  C   UNL     1      -8.679  11.818  68.177  1.00  0.00    -0.168 C  
HETATM   11  H   UNL     1     -10.427  11.342  69.199  1.00  0.00     0.000 HD 
HETATM   12  O   UNL     1      -7.493  11.572  67.997  1.00  0.00    -0.089 OA 
BRANCH  10  13
HETATM   13  C   UNL     1      -9.370  12.957  67.478  1.00  0.00    -0.190 A  
HETATM   14  C   UNL     1      -9.717  12.882  66.109  1.00  0.00    -0.248 A  
HETATM   15  C   UNL     1     -10.347  13.979  65.498  1.00  0.00    -0.354 A  
HETATM   16  C   UNL     1      -9.635  14.142  68.192  1.00  0.00    -0.218 A  
HETATM   17  C   UNL     1     -10.269  15.216  67.562  1.00  0.00    -0.238 A  
HETATM   18  C   UNL     1     -10.623  15.141  66.218  1.00  0.00    -0.312 A  
BRANCH  14  19
HETATM   19  O   UNL     1      -9.440  11.720  65.440  1.00  0.00    -0.218 OA 
HETATM   20  C   UNL     1     -10.529  10.887  65.060  1.00  0.00    -0.261 C  
ENDBRANCH  14  19
BRANCH  17  21
HETATM   21  S   UNL     1     -10.565  16.718  68.451  1.00  0.00    -0.370 S  
HETATM   22  O   UNL     1     -11.279  16.414  69.668  1.00  0.00    -0.323 OA 
HETATM   23  N   UNL     1      -9.016  17.157  68.912  1.00  0.00    -0.234 N  
HETATM   24  O   UNL     1     -11.007  17.734  67.521  1.00  0.00    -0.287 OA 
HETATM   25  H1  UNL     1      -9.186  18.022  69.424  1.00  0.00     0.000 HD 
HETATM   26  H2  UNL     1      -8.132  16.682  68.729  1.00  0.00     0.000 HD 
ENDBRANCH  17  21
ENDBRANCH  10  13
ENDBRANCH   8   9
ENDBRANCH   7   8
ENDBRANCH   2   3
TORSDOF 6
ENDMDL
MODEL      198
REMARK 921   NORMALIZED FREE ENERGY PREDICTED BY IDOCK:   -3.67 KCAL/MOL
REMARK 922        TOTAL FREE ENERGY PREDICTED BY IDOCK:   -6.04 KCAL/MOL
REMARK 923 INTER-LIGAND FREE ENERGY PREDICTED BY IDOCK:   -5.21 KCAL/MOL
REMARK 924 INTRA-LIGAND FREE ENERGY PREDICTED BY IDOCK:   -0.83 KCAL/MOL
REMARK 927      BINDING AFFINITY PREDICTED BY RF-SCORE:    0.00 PKD
ROOT
HETATM    1  C   UNL     1      -7.365  20.153  66.469  1.00  0.00    -0.308 C  
HETATM    2  C   UNL     1      -6.992  18.882  67.227  1.00  0.00    -0.207 C  
ENDROOT
BRANCH   2   3
HETATM    3  N   UNL     1      -8.108  17.929  67.330  1.00  0.00    -0.210 NA 
HETATM    4  C   UNL     1      -9.401  18.553  67.032  1.00  0.00    -0.288 C  
HETATM    5  C   UNL     1     -10.290  17.360  66.756  1.00  0.00    -0.305 C  
HETATM    6  C   UNL     1      -9.392  16.423  65.971  1.00  0.00    -0.335 C  
HETATM    7  C   UNL     1      -7.957  16.806  66.366  1.00  0.00    -0.321 C  
BRANCH   7   8
HETATM    8  C   UNL     1      -7.194  15.614  66.989  1.00  0.00    -0.140 C  
BRANCH   8   9
HETATM    9  N   UNL     1      -7.872  14.330  66.848  1.00  0.00    -0.319 N  
HETATM   10  C   UNL     1      -8.180  13.535  67.940  1.00  0.00    -0.168 C  
HETATM   11  H   UNL     1      -8.127  14.007  65.915  1.00  0.00     0.000 HD 
HETATM   12  O   UNL     1      -7.860  13.851  69.079  1.00  0.00    -0.065 OA 
BRANCH  10  13
HETATM   13  C   UNL     1      -8.906  12.250  67.645  1.00  0.00    -0.175 A  
HETATM   14  C   UNL     1     -10.306  12.138  67.817  1.00  0.00    -0.206 A  
HETATM   15  C   UNL     1     -10.935  10.912  67.543  1.00  0.00    -0.352 A  
HETATM   16  C   UNL     1      -8.168  11.122  67.236  1.00  0.00    -0.136 A  
HETATM   17  C   UNL     1      -8.820   9.917  66.964  1.00  0.00    -0.134 A  
HETATM   18  C   UNL     1     -10.200   9.805  67.120  1.00  0.00    -0.288 A  
BRANCH  14  19
HETATM   19  O   UNL     1     -10.994  13.249  68.223  1.00  0.00    -0.238 OA 
HETATM   20  C   UNL     1     -12.025  13.747  67.379  1.00  0.00    -0.388 C  
ENDBRANCH  14  19
BRANCH  17  21
HETATM   21  S   UNL     1      -7.887   8.491  66.487  1.00  0.00    -0.096 S  
HETATM   22  O   UNL     1      -7.364   7.852  67.671  1.00  0.00    -0.091 OA 
HETATM   23  N   UNL     1      -9.082   7.478  65.896  1.00  0.00    -0.359 N  
HETATM   24  O   UNL     1      -7.056   8.831  65.354  1.00  0.00    -0.081 OA 
HETATM   25  H1  UNL     1      -8.545   6.656  65.621  1.00  0.00     0.000 HD 
HETATM   26  H2  UNL     1     -10.087   7.640  65.827  1.00  0.00     0.000 HD 
ENDBRANCH  17  21
ENDBRANCH  10  13
ENDBRANCH   8   9
ENDBRANCH   7   8
ENDBRANCH   2   3
TORSDOF 6
ENDMDL
MODEL      199
REMARK 921   NORMALIZED FREE ENERGY PREDICTED BY IDOCK:   -3.66 KCAL/MOL
REMARK 922        TOTAL FREE ENERGY PREDICTED BY IDOCK:   -6.03 KCAL/MOL
REMARK 923 INTER-LIGAND FREE ENERGY PREDICTED BY IDOCK:   -5.53 KCAL/MOL
REMARK 924 INTRA-LIGAND FREE ENERGY PREDICTED BY IDOCK:   -0.50 KCAL/MOL
REMARK 927      BINDING AFFINITY PREDICTED BY RF-SCORE:    0.00 PKD
ROOT
HETATM    1  C   UNL     1      -6.641   7.589  69.499  1.00  0.00    -0.036 C  
HETATM    2  C   UNL     1      -6.541   8.608  68.368  1.00  0.00    -0.060 C  
ENDROOT
BRANCH   2   3
HETATM    3  N   UNL     1      -7.714   8.594  67.480  1.00  0.00    -0.097 NA 
HETATM    4  C   UNL     1      -7.386   8.121  66.132  1.00  0.00    -0.070 C  
HETATM    5  C   UNL     1      -8.744   7.767  65.565  1.00  0.00    -0.102 C  
HETATM    6  C   UNL     1      -9.461   7.125  66.737  1.00  0.00    -0.214 C  
HETATM    7  C   UNL     1      -8.775   7.686  67.992  1.00  0.00    -0.125 C  
BRANCH   7   8
HETATM    8  C   UNL     1      -9.773   8.430  68.910  1.00  0.00    -0.167 C  
BRANCH   8   9
HETATM    9  N   UNL     1     -10.514   9.498  68.246  1.00  0.00    -0.214 N  
HETATM   10  C   UNL     1     -10.050  10.803  68.209  1.00  0.00    -0.171 C  
HETATM   11  H   UNL     1     -11.402   9.276  67.795  1.00  0.00     0.000 HD 
HETATM   12  O   UNL     1      -9.013  11.136  68.768  1.00  0.00    -0.169 OA 
BRANCH  10  13
HETATM   13  C   UNL     1     -10.905  11.793  67.464  1.00  0.00    -0.286 A  
HETATM   14  C   UNL     1     -11.529  12.875  68.127  1.00  0.00    -0.315 A  
HETATM   15  C   UNL     1     -12.330  13.763  67.389  1.00  0.00    -0.156 A  
HETATM   16  C   UNL     1     -11.126  11.609  66.085  1.00  0.00    -0.335 A  
HETATM   17  C   UNL     1     -11.921  12.511  65.374  1.00  0.00    -0.437 A  
HETATM   18  C   UNL     1     -12.528  13.585  66.021  1.00  0.00    -0.456 A  
BRANCH  14  19
HETATM   19  O   UNL     1     -11.302  13.023  69.469  1.00  0.00    -0.231 OA 
HETATM   20  C   UNL     1     -12.423  13.216  70.323  1.00  0.00    -0.163 C  
ENDBRANCH  14  19
BRANCH  17  21
HETATM   21  S   UNL     1     -12.229  12.256  63.649  1.00  0.00    -0.567 S  
HETATM   22  O   UNL     1     -11.995  13.492  62.941  1.00  0.00    -0.123 OA 
HETATM   23  N   UNL     1     -10.977  11.226  63.224  1.00  0.00    -0.814 N  
HETATM   24  O   UNL     1     -13.445  11.489  63.498  1.00  0.00    -0.219 OA 
HETATM   25  H1  UNL     1     -11.154  11.079  62.231  1.00  0.00     0.000 HD 
HETATM   26  H2  UNL     1     -10.233  10.845  63.807  1.00  0.00     0.000 HD 
ENDBRANCH  17  21
ENDBRANCH  10  13
ENDBRANCH   8   9
ENDBRANCH   7   8
ENDBRANCH   2   3
TORSDOF 6
ENDMDL
MODEL      200
REMARK 921   NORMALIZED FREE ENERGY PREDICTED BY IDOCK:   -3.64 KCAL/MOL
REMARK 922        TOTAL FREE ENERGY PREDICTED BY IDOCK:   -6.00 KCAL/MOL
REMARK 923 INTER-LIGAND FREE ENERGY PREDICTED BY IDOCK:   -5.87 KCAL/MOL
REMARK 924 INTRA-LIGAND FREE ENERGY PREDICTED BY IDOCK:   -0.13 KCAL/MOL
REMARK 927      BINDING AFFINITY PREDICTED BY RF-SCORE:    0.00 PKD
ROOT
HETATM    1  C   UNL     1     -10.058  16.876  68.342  1.00  0.00    -0.304 C  
HETATM    2  C   UNL     1      -9.895  15.439  67.856  1.00  0.00    -0.219 C  
ENDROOT
BRANCH   2   3
HETATM    3  N   UNL     1     -10.805  15.103  66.750  1.00  0.00    -0.319 NA 
HETATM    4  C   UNL     1     -10.596  15.959  65.578  1.00  0.00    -0.401 C  
HETATM    5  C   UNL     1     -11.271  15.178  64.471  1.00  0.00    -0.283 C  
HETATM    6  C   UNL     1     -10.902  13.739  64.776  1.00  0.00    -0.410 C  
HETATM    7  C   UNL     1     -10.604  13.704  66.283  1.00  0.00    -0.289 C  
BRANCH   7   8
HETATM    8  C   UNL     1     -11.526  12.713  67.029  1.00  0.00    -0.346 C  
BRANCH   8   9
HETATM    9  N   UNL     1     -10.926  11.405  67.271  1.00  0.00    -0.265 N  
HETATM   10  C   UNL     1     -11.439  10.521  68.207  1.00  0.00    -0.199 C  
HETATM   11  H   UNL     1     -10.103  11.133  66.735  1.00  0.00     0.000 HD 
HETATM   12  O   UNL     1     -12.400  10.810  68.910  1.00  0.00    -0.433 OA 
BRANCH  10  13
HETATM   13  C   UNL     1     -10.735   9.196  68.329  1.00  0.00    -0.173 A  
HETATM   14  C   UNL     1     -10.766   8.452  69.531  1.00  0.00    -0.175 A  
HETATM   15  C   UNL     1     -10.079   7.228  69.599  1.00  0.00    -0.195 A  
HETATM   16  C   UNL     1      -9.990   8.711  67.236  1.00  0.00    -0.282 A  
HETATM   17  C   UNL     1      -9.322   7.488  67.328  1.00  0.00    -0.140 A  
HETATM   18  C   UNL     1      -9.360   6.746  68.506  1.00  0.00    -0.126 A  
BRANCH  14  19
HETATM   19  O   UNL     1     -11.492   8.953  70.578  1.00  0.00    -0.258 OA 
HETATM   20  C   UNL     1     -10.883   8.985  71.863  1.00  0.00    -0.343 C  
ENDBRANCH  14  19
BRANCH  17  21
HETATM   21  S   UNL     1      -8.355   6.899  65.968  1.00  0.00    -0.139 S  
HETATM   22  O   UNL     1      -7.185   6.225  66.477  1.00  0.00    -0.070 OA 
HETATM   23  N   UNL     1      -9.345   5.707  65.331  1.00  0.00    -0.362 N  
HETATM   24  O   UNL     1      -8.281   7.935  64.962  1.00  0.00    -0.140 OA 
HETATM   25  H1  UNL     1      -8.788   5.368  64.547  1.00  0.00     0.000 HD 
HETATM   26  H2  UNL     1     -10.265   5.400  65.645  1.00  0.00     0.000 HD 
ENDBRANCH  17  21
ENDBRANCH  10  13
ENDBRANCH   8   9
ENDBRANCH   7   8
ENDBRANCH   2   3
TORSDOF 6
ENDMDL
MODEL      201
REMARK 921   NORMALIZED FREE ENERGY PREDICTED BY IDOCK:   -3.63 KCAL/MOL
REMARK 922        TOTAL FREE ENERGY PREDICTED BY IDOCK:   -5.99 KCAL/MOL
REMARK 923 INTER-LIGAND FREE ENERGY PREDICTED BY IDOCK:   -5.55 KCAL/MOL
REMARK 924 INTRA-LIGAND FREE ENERGY PREDICTED BY IDOCK:   -0.43 KCAL/MOL
REMARK 927      BINDING AFFINITY PREDICTED BY RF-SCORE:    0.00 PKD
ROOT
HETATM    1  C   UNL     1      -8.589   9.936  70.274  1.00  0.00    -0.066 C  
HETATM    2  C   UNL     1      -9.699  10.043  69.231  1.00  0.00    -0.215 C  
ENDROOT
BRANCH   2   3
HETATM    3  N   UNL     1     -11.031   9.747  69.781  1.00  0.00    -0.247 NA 
HETATM    4  C   UNL     1     -11.176   8.338  70.160  1.00  0.00    -0.132 C  
HETATM    5  C   UNL     1     -12.380   8.361  71.076  1.00  0.00    -0.143 C  
HETATM    6  C   UNL     1     -12.186   9.631  71.882  1.00  0.00    -0.413 C  
HETATM    7  C   UNL     1     -11.301  10.537  71.012  1.00  0.00     0.003 C  
BRANCH   7   8
HETATM    8  C   UNL     1     -11.993  11.882  70.691  1.00  0.00    -0.191 C  
BRANCH   8   9
HETATM    9  N   UNL     1     -11.558  12.494  69.440  1.00  0.00    -0.314 N  
HETATM   10  C   UNL     1     -10.974  13.750  69.398  1.00  0.00    -0.097 C  
HETATM   11  H   UNL     1     -11.688  11.981  68.568  1.00  0.00     0.000 HD 
HETATM   12  O   UNL     1     -10.832  14.429  70.406  1.00  0.00     0.059 OA 
BRANCH  10  13
HETATM   13  C   UNL     1     -10.549  14.242  68.041  1.00  0.00    -0.238 A  
HETATM   14  C   UNL     1      -9.209  14.612  67.777  1.00  0.00    -0.196 A  
HETATM   15  C   UNL     1      -8.865  15.081  66.497  1.00  0.00    -0.286 A  
HETATM   16  C   UNL     1     -11.516  14.382  67.027  1.00  0.00    -0.376 A  
HETATM   17  C   UNL     1     -11.145  14.844  65.761  1.00  0.00    -0.342 A  
HETATM   18  C   UNL     1      -9.826  15.198  65.493  1.00  0.00    -0.356 A  
BRANCH  14  19
HETATM   19  O   UNL     1      -8.293  14.472  68.785  1.00  0.00    -0.160 OA 
HETATM   20  C   UNL     1      -7.498  13.293  68.811  1.00  0.00    -0.053 C  
ENDBRANCH  14  19
BRANCH  17  21
HETATM   21  S   UNL     1     -12.369  15.057  64.500  1.00  0.00    -0.092 S  
HETATM   22  O   UNL     1     -12.155  16.324  63.843  1.00  0.00    -0.986 OA 
HETATM   23  N   UNL     1     -11.935  13.874  63.396  1.00  0.00    -0.844 N  
HETATM   24  O   UNL     1     -13.657  14.659  65.024  1.00  0.00     0.132 OA 
HETATM   25  H1  UNL     1     -12.641  13.996  62.669  1.00  0.00     0.000 HD 
HETATM   26  H2  UNL     1     -11.166  13.206  63.439  1.00  0.00     0.000 HD 
ENDBRANCH  17  21
ENDBRANCH  10  13
ENDBRANCH   8   9
ENDBRANCH   7   8
ENDBRANCH   2   3
TORSDOF 6
ENDMDL
MODEL      202
REMARK 921   NORMALIZED FREE ENERGY PREDICTED BY IDOCK:   -3.62 KCAL/MOL
REMARK 922        TOTAL FREE ENERGY PREDICTED BY IDOCK:   -5.98 KCAL/MOL
REMARK 923 INTER-LIGAND FREE ENERGY PREDICTED BY IDOCK:   -4.83 KCAL/MOL
REMARK 924 INTRA-LIGAND FREE ENERGY PREDICTED BY IDOCK:   -1.15 KCAL/MOL
REMARK 927      BINDING AFFINITY PREDICTED BY RF-SCORE:    0.00 PKD
ROOT
HETATM    1  C   UNL     1     -12.040  14.385  70.227  1.00  0.00    -0.396 C  
HETATM    2  C   UNL     1     -11.554  15.061  68.948  1.00  0.00    -0.326 C  
ENDROOT
BRANCH   2   3
HETATM    3  N   UNL     1     -11.072  14.102  67.942  1.00  0.00    -0.260 NA 
HETATM    4  C   UNL     1     -12.141  13.655  67.043  1.00  0.00    -0.380 C  
HETATM    5  C   UNL     1     -11.372  13.075  65.875  1.00  0.00    -0.344 C  
HETATM    6  C   UNL     1     -10.214  14.038  65.701  1.00  0.00    -0.351 C  
HETATM    7  C   UNL     1     -10.023  14.701  67.074  1.00  0.00    -0.246 C  
BRANCH   7   8
HETATM    8  C   UNL     1      -8.604  14.460  67.639  1.00  0.00    -0.185 C  
BRANCH   8   9
HETATM    9  N   UNL     1      -8.493  13.281  68.490  1.00  0.00    -0.312 N  
HETATM   10  C   UNL     1      -8.131  12.041  67.988  1.00  0.00    -0.153 C  
HETATM   11  H   UNL     1      -8.687  13.372  69.487  1.00  0.00     0.000 HD 
HETATM   12  O   UNL     1      -7.928  11.862  66.794  1.00  0.00    -0.153 OA 
BRANCH  10  13
HETATM   13  C   UNL     1      -8.028  10.921  68.988  1.00  0.00    -0.131 A  
HETATM   14  C   UNL     1      -6.889  10.773  69.815  1.00  0.00    -0.151 A  
HETATM   15  C   UNL     1      -6.834   9.701  70.722  1.00  0.00    -0.091 A  
HETATM   16  C   UNL     1      -9.067   9.973  69.069  1.00  0.00    -0.172 A  
HETATM   17  C   UNL     1      -8.989   8.921  69.985  1.00  0.00    -0.165 A  
HETATM   18  C   UNL     1      -7.876   8.779  70.809  1.00  0.00    -0.120 A  
BRANCH  14  19
HETATM   19  O   UNL     1      -5.892  11.705  69.708  1.00  0.00    -0.083 OA 
HETATM   20  C   UNL     1      -5.535  12.442  70.871  1.00  0.00    -0.147 C  
ENDBRANCH  14  19
BRANCH  17  21
HETATM   21  S   UNL     1     -10.278   7.710  70.057  1.00  0.00    -0.218 S  
HETATM   22  O   UNL     1     -10.939   7.648  68.775  1.00  0.00    -0.054 OA 
HETATM   23  N   UNL     1      -9.406   6.287  70.206  1.00  0.00    -0.160 N  
HETATM   24  O   UNL     1     -11.000   7.867  71.299  1.00  0.00    -0.233 OA 
HETATM   25  H1  UNL     1     -10.149   5.589  70.247  1.00  0.00     0.000 HD 
HETATM   26  H2  UNL     1      -8.396   6.154  70.245  1.00  0.00     0.000 HD 
ENDBRANCH  17  21
ENDBRANCH  10  13
ENDBRANCH   8   9
ENDBRANCH   7   8
ENDBRANCH   2   3
TORSDOF 6
ENDMDL
MODEL      203
REMARK 921   NORMALIZED FREE ENERGY PREDICTED BY IDOCK:   -3.62 KCAL/MOL
REMARK 922        TOTAL FREE ENERGY PREDICTED BY IDOCK:   -5.97 KCAL/MOL
REMARK 923 INTER-LIGAND FREE ENERGY PREDICTED BY IDOCK:   -5.38 KCAL/MOL
REMARK 924 INTRA-LIGAND FREE ENERGY PREDICTED BY IDOCK:   -0.60 KCAL/MOL
REMARK 927      BINDING AFFINITY PREDICTED BY RF-SCORE:    0.00 PKD
ROOT
HETATM    1  C   UNL     1     -12.376  14.085  65.632  1.00  0.00    -0.502 C  
HETATM    2  C   UNL     1     -11.264  13.729  66.615  1.00  0.00    -0.318 C  
ENDROOT
BRANCH   2   3
HETATM    3  N   UNL     1      -9.953  14.262  66.212  1.00  0.00    -0.295 NA 
HETATM    4  C   UNL     1      -9.907  15.726  66.269  1.00  0.00    -0.297 C  
HETATM    5  C   UNL     1      -8.420  16.012  66.268  1.00  0.00    -0.337 C  
HETATM    6  C   UNL     1      -7.850  14.926  67.161  1.00  0.00    -0.203 C  
HETATM    7  C   UNL     1      -8.869  13.776  67.107  1.00  0.00    -0.231 C  
BRANCH   7   8
HETATM    8  C   UNL     1      -8.233  12.468  66.583  1.00  0.00     0.099 C  
BRANCH   8   9
HETATM    9  N   UNL     1      -8.977  11.262  66.929  1.00  0.00    -0.158 N  
HETATM   10  C   UNL     1      -8.344  10.097  67.332  1.00  0.00    -0.118 C  
HETATM   11  H   UNL     1      -9.995  11.276  66.873  1.00  0.00     0.000 HD 
HETATM   12  O   UNL     1      -7.124  10.007  67.378  1.00  0.00    -0.083 OA 
BRANCH  10  13
HETATM   13  C   UNL     1      -9.240   8.940  67.686  1.00  0.00    -0.151 A  
HETATM   14  C   UNL     1      -9.599   7.964  66.727  1.00  0.00    -0.215 A  
HETATM   15  C   UNL     1     -10.451   6.912  67.103  1.00  0.00    -0.373 A  
HETATM   16  C   UNL     1      -9.769   8.855  68.989  1.00  0.00    -0.171 A  
HETATM   17  C   UNL     1     -10.608   7.794  69.338  1.00  0.00    -0.208 A  
HETATM   18  C   UNL     1     -10.955   6.824  68.400  1.00  0.00    -0.257 A  
BRANCH  14  19
HETATM   19  O   UNL     1      -9.075   8.079  65.467  1.00  0.00    -0.080 OA 
HETATM   20  C   UNL     1      -7.984   7.236  65.115  1.00  0.00    -0.128 C  
ENDBRANCH  14  19
BRANCH  17  21
HETATM   21  S   UNL     1     -11.304   7.710  70.964  1.00  0.00    -0.274 S  
HETATM   22  O   UNL     1     -11.497   9.050  71.464  1.00  0.00    -0.286 OA 
HETATM   23  N   UNL     1     -12.832   7.098  70.654  1.00  0.00    -0.578 N  
HETATM   24  O   UNL     1     -10.611   6.689  71.718  1.00  0.00    -0.212 OA 
HETATM   25  H1  UNL     1     -13.233   7.050  71.591  1.00  0.00     0.000 HD 
HETATM   26  H2  UNL     1     -13.253   6.841  69.762  1.00  0.00     0.000 HD 
ENDBRANCH  17  21
ENDBRANCH  10  13
ENDBRANCH   8   9
ENDBRANCH   7   8
ENDBRANCH   2   3
TORSDOF 6
ENDMDL
MODEL      204
REMARK 921   NORMALIZED FREE ENERGY PREDICTED BY IDOCK:   -3.61 KCAL/MOL
REMARK 922        TOTAL FREE ENERGY PREDICTED BY IDOCK:   -5.96 KCAL/MOL
REMARK 923 INTER-LIGAND FREE ENERGY PREDICTED BY IDOCK:   -5.62 KCAL/MOL
REMARK 924 INTRA-LIGAND FREE ENERGY PREDICTED BY IDOCK:   -0.33 KCAL/MOL
REMARK 927      BINDING AFFINITY PREDICTED BY RF-SCORE:    0.00 PKD
ROOT
HETATM    1  C   UNL     1      -9.369   7.281  72.076  1.00  0.00    -0.150 C  
HETATM    2  C   UNL     1     -10.462   8.174  72.657  1.00  0.00    -0.330 C  
ENDROOT
BRANCH   2   3
HETATM    3  N   UNL     1     -11.692   8.171  71.850  1.00  0.00    -0.290 NA 
HETATM    4  C   UNL     1     -12.351   6.862  71.845  1.00  0.00    -0.325 C  
HETATM    5  C   UNL     1     -13.749   7.195  71.371  1.00  0.00    -0.364 C  
HETATM    6  C   UNL     1     -14.059   8.503  72.075  1.00  0.00    -0.516 C  
HETATM    7  C   UNL     1     -12.692   9.138  72.377  1.00  0.00    -0.340 C  
BRANCH   7   8
HETATM    8  C   UNL     1     -12.547  10.530  71.721  1.00  0.00    -0.342 C  
BRANCH   8   9
HETATM    9  N   UNL     1     -11.519  10.600  70.688  1.00  0.00    -0.377 N  
HETATM   10  C   UNL     1     -11.828  10.797  69.352  1.00  0.00    -0.298 C  
HETATM   11  H   UNL     1     -10.540  10.500  70.958  1.00  0.00     0.000 HD 
HETATM   12  O   UNL     1     -12.987  10.880  68.963  1.00  0.00     0.124 OA 
BRANCH  10  13
HETATM   13  C   UNL     1     -10.663  10.876  68.402  1.00  0.00    -0.240 A  
HETATM   14  C   UNL     1     -10.775  11.525  67.150  1.00  0.00    -0.254 A  
HETATM   15  C   UNL     1      -9.663  11.559  66.292  1.00  0.00    -0.240 A  
HETATM   16  C   UNL     1      -9.451  10.250  68.749  1.00  0.00    -0.176 A  
HETATM   17  C   UNL     1      -8.358  10.304  67.880  1.00  0.00    -0.114 A  
HETATM   18  C   UNL     1      -8.460  10.952  66.652  1.00  0.00    -0.151 A  
BRANCH  14  19
HETATM   19  O   UNL     1     -11.969  12.118  66.838  1.00  0.00    -0.603 OA 
HETATM   20  C   UNL     1     -11.948  13.279  66.017  1.00  0.00    -0.423 C  
ENDBRANCH  14  19
BRANCH  17  21
HETATM   21  S   UNL     1      -6.847   9.483  68.301  1.00  0.00    -0.062 S  
HETATM   22  O   UNL     1      -7.108   8.519  69.343  1.00  0.00    -0.052 OA 
HETATM   23  N   UNL     1      -6.535   8.601  66.911  1.00  0.00    -0.060 N  
HETATM   24  O   UNL     1      -5.790  10.465  68.395  1.00  0.00    -0.041 OA 
HETATM   25  H1  UNL     1      -5.665   8.128  67.153  1.00  0.00     0.000 HD 
HETATM   26  H2  UNL     1      -7.075   8.551  66.047  1.00  0.00     0.000 HD 
ENDBRANCH  17  21
ENDBRANCH  10  13
ENDBRANCH   8   9
ENDBRANCH   7   8
ENDBRANCH   2   3
TORSDOF 6
ENDMDL
MODEL      205
REMARK 921   NORMALIZED FREE ENERGY PREDICTED BY IDOCK:   -3.61 KCAL/MOL
REMARK 922        TOTAL FREE ENERGY PREDICTED BY IDOCK:   -5.95 KCAL/MOL
REMARK 923 INTER-LIGAND FREE ENERGY PREDICTED BY IDOCK:   -4.92 KCAL/MOL
REMARK 924 INTRA-LIGAND FREE ENERGY PREDICTED BY IDOCK:   -1.03 KCAL/MOL
REMARK 927      BINDING AFFINITY PREDICTED BY RF-SCORE:    0.00 PKD
ROOT
HETATM    1  C   UNL     1      -7.807   4.158  67.071  1.00  0.00    -0.096 C  
HETATM    2  C   UNL     1      -7.558   5.158  68.197  1.00  0.00    -0.080 C  
ENDROOT
BRANCH   2   3
HETATM    3  N   UNL     1      -8.594   5.114  69.240  1.00  0.00    -0.096 NA 
HETATM    4  C   UNL     1      -9.446   3.926  69.128  1.00  0.00    -0.176 C  
HETATM    5  C   UNL     1     -10.097   3.853  70.492  1.00  0.00     0.082 C  
HETATM    6  C   UNL     1      -8.976   4.232  71.440  1.00  0.00    -0.163 C  
HETATM    7  C   UNL     1      -7.997   5.069  70.602  1.00  0.00    -0.083 C  
BRANCH   7   8
HETATM    8  C   UNL     1      -7.801   6.485  71.189  1.00  0.00    -0.103 C  
BRANCH   8   9
HETATM    9  N   UNL     1      -8.813   7.450  70.775  1.00  0.00    -0.148 N  
HETATM   10  C   UNL     1      -8.647   8.814  70.951  1.00  0.00    -0.192 C  
HETATM   11  H   UNL     1      -9.671   7.110  70.341  1.00  0.00     0.000 HD 
HETATM   12  O   UNL     1      -7.658   9.278  71.504  1.00  0.00    -0.340 OA 
BRANCH  10  13
HETATM   13  C   UNL     1      -9.762   9.692  70.449  1.00  0.00    -0.304 A  
HETATM   14  C   UNL     1     -11.069   9.603  70.982  1.00  0.00    -0.368 A  
HETATM   15  C   UNL     1     -12.080  10.433  70.468  1.00  0.00    -0.423 A  
HETATM   16  C   UNL     1      -9.508  10.588  69.392  1.00  0.00    -0.158 A  
HETATM   17  C   UNL     1     -10.529  11.408  68.904  1.00  0.00    -0.193 A  
HETATM   18  C   UNL     1     -11.814  11.331  69.434  1.00  0.00    -0.424 A  
BRANCH  14  19
HETATM   19  O   UNL     1     -11.287   8.717  72.003  1.00  0.00    -0.318 OA 
HETATM   20  C   UNL     1     -12.257   7.695  71.810  1.00  0.00    -0.311 C  
ENDBRANCH  14  19
BRANCH  17  21
HETATM   21  S   UNL     1     -10.216  12.505  67.551  1.00  0.00    -0.219 S  
HETATM   22  O   UNL     1      -9.292  11.876  66.637  1.00  0.00    -0.194 OA 
HETATM   23  N   UNL     1     -11.701  12.528  66.776  1.00  0.00    -0.386 N  
HETATM   24  O   UNL     1     -10.016  13.841  68.066  1.00  0.00    -0.231 OA 
HETATM   25  H1  UNL     1     -11.521  13.160  65.996  1.00  0.00     0.000 HD 
HETATM   26  H2  UNL     1     -12.561  12.037  67.020  1.00  0.00     0.000 HD 
ENDBRANCH  17  21
ENDBRANCH  10  13
ENDBRANCH   8   9
ENDBRANCH   7   8
ENDBRANCH   2   3
TORSDOF 6
ENDMDL
MODEL      206
REMARK 921   NORMALIZED FREE ENERGY PREDICTED BY IDOCK:   -3.58 KCAL/MOL
REMARK 922        TOTAL FREE ENERGY PREDICTED BY IDOCK:   -5.91 KCAL/MOL
REMARK 923 INTER-LIGAND FREE ENERGY PREDICTED BY IDOCK:   -5.00 KCAL/MOL
REMARK 924 INTRA-LIGAND FREE ENERGY PREDICTED BY IDOCK:   -0.91 KCAL/MOL
REMARK 927      BINDING AFFINITY PREDICTED BY RF-SCORE:    0.00 PKD
ROOT
HETATM    1  C   UNL     1      -7.864  14.936  67.249  1.00  0.00    -0.235 C  
HETATM    2  C   UNL     1      -9.074  14.253  67.880  1.00  0.00    -0.190 C  
ENDROOT
BRANCH   2   3
HETATM    3  N   UNL     1     -10.237  14.205  66.980  1.00  0.00    -0.258 NA 
HETATM    4  C   UNL     1     -10.206  15.271  65.974  1.00  0.00    -0.317 C  
HETATM    5  C   UNL     1     -11.189  14.776  64.935  1.00  0.00    -0.411 C  
HETATM    6  C   UNL     1     -10.912  13.286  64.868  1.00  0.00    -0.345 C  
HETATM    7  C   UNL     1     -10.292  12.924  66.226  1.00  0.00    -0.268 C  
BRANCH   7   8
HETATM    8  C   UNL     1     -11.122  11.854  66.972  1.00  0.00    -0.302 C  
BRANCH   8   9
HETATM    9  N   UNL     1     -10.334  10.744  67.498  1.00  0.00    -0.196 N  
HETATM   10  C   UNL     1     -10.636  10.133  68.704  1.00  0.00    -0.210 C  
HETATM   11  H   UNL     1      -9.536  10.408  66.960  1.00  0.00     0.000 HD 
HETATM   12  O   UNL     1     -11.556  10.522  69.412  1.00  0.00    -0.257 OA 
BRANCH  10  13
HETATM   13  C   UNL     1      -9.754   8.982  69.107  1.00  0.00    -0.167 A  
HETATM   14  C   UNL     1      -9.730   7.777  68.367  1.00  0.00    -0.159 A  
HETATM   15  C   UNL     1      -8.901   6.725  68.793  1.00  0.00    -0.131 A  
HETATM   16  C   UNL     1      -8.972   9.091  70.273  1.00  0.00    -0.221 A  
HETATM   17  C   UNL     1      -8.152   8.033  70.671  1.00  0.00    -0.104 A  
HETATM   18  C   UNL     1      -8.115   6.849  69.939  1.00  0.00    -0.125 A  
BRANCH  14  19
HETATM   19  O   UNL     1     -10.506   7.698  67.242  1.00  0.00    -0.271 OA 
HETATM   20  C   UNL     1     -11.174   6.472  66.972  1.00  0.00    -0.207 C  
ENDBRANCH  14  19
BRANCH  17  21
HETATM   21  S   UNL     1      -7.200   8.158  72.158  1.00  0.00    -0.096 S  
HETATM   22  O   UNL     1      -6.544   6.896  72.406  1.00  0.00    -0.057 OA 
HETATM   23  N   UNL     1      -5.997   9.233  71.709  1.00  0.00    -0.069 N  
HETATM   24  O   UNL     1      -7.986   8.838  73.163  1.00  0.00    -0.405 OA 
HETATM   25  H1  UNL     1      -5.448   9.306  72.565  1.00  0.00     0.000 HD 
HETATM   26  H2  UNL     1      -5.851   9.696  70.812  1.00  0.00     0.000 HD 
ENDBRANCH  17  21
ENDBRANCH  10  13
ENDBRANCH   8   9
ENDBRANCH   7   8
ENDBRANCH   2   3
TORSDOF 6
ENDMDL
MODEL      207
REMARK 921   NORMALIZED FREE ENERGY PREDICTED BY IDOCK:   -3.56 KCAL/MOL
REMARK 922        TOTAL FREE ENERGY PREDICTED BY IDOCK:   -5.89 KCAL/MOL
REMARK 923 INTER-LIGAND FREE ENERGY PREDICTED BY IDOCK:   -4.99 KCAL/MOL
REMARK 924 INTRA-LIGAND FREE ENERGY PREDICTED BY IDOCK:   -0.90 KCAL/MOL
REMARK 927      BINDING AFFINITY PREDICTED BY RF-SCORE:    0.00 PKD
ROOT
HETATM    1  C   UNL     1     -11.219  13.834  69.060  1.00  0.00    -0.313 C  
HETATM    2  C   UNL     1     -11.075  13.828  67.541  1.00  0.00    -0.278 C  
ENDROOT
BRANCH   2   3
HETATM    3  N   UNL     1     -10.893  12.476  66.989  1.00  0.00    -0.248 NA 
HETATM    4  C   UNL     1     -11.766  12.222  65.839  1.00  0.00    -0.389 C  
HETATM    5  C   UNL     1     -11.116  11.021  65.187  1.00  0.00    -0.011 C  
HETATM    6  C   UNL     1      -9.632  11.310  65.312  1.00  0.00    -0.265 C  
HETATM    7  C   UNL     1      -9.501  12.265  66.509  1.00  0.00    -0.236 C  
BRANCH   7   8
HETATM    8  C   UNL     1      -8.595  11.678  67.616  1.00  0.00    -0.142 C  
BRANCH   8   9
HETATM    9  N   UNL     1      -9.208  10.598  68.381  1.00  0.00    -0.152 N  
HETATM   10  C   UNL     1      -8.810   9.278  68.242  1.00  0.00    -0.129 C  
HETATM   11  H   UNL     1      -9.954  10.821  69.040  1.00  0.00     0.000 HD 
HETATM   12  O   UNL     1      -7.950   8.945  67.437  1.00  0.00    -0.100 OA 
BRANCH  10  13
HETATM   13  C   UNL     1      -9.512   8.275  69.117  1.00  0.00    -0.155 A  
HETATM   14  C   UNL     1     -10.507   7.413  68.600  1.00  0.00    -0.189 A  
HETATM   15  C   UNL     1     -11.144   6.503  69.461  1.00  0.00    -0.425 A  
HETATM   16  C   UNL     1      -9.203   8.226  70.491  1.00  0.00    -0.160 A  
HETATM   17  C   UNL     1      -9.847   7.307  71.323  1.00  0.00    -0.180 A  
HETATM   18  C   UNL     1     -10.818   6.449  70.816  1.00  0.00    -0.321 A  
BRANCH  14  19
HETATM   19  O   UNL     1     -10.791   7.489  67.263  1.00  0.00    -0.299 OA 
HETATM   20  C   UNL     1     -10.996   6.276  66.550  1.00  0.00     0.011 C  
ENDBRANCH  14  19
BRANCH  17  21
HETATM   21  S   UNL     1      -9.485   7.275  73.056  1.00  0.00    -0.186 S  
HETATM   22  O   UNL     1      -8.926   8.547  73.446  1.00  0.00    -0.263 OA 
HETATM   23  N   UNL     1     -11.018   7.209  73.727  1.00  0.00    -0.438 N  
HETATM   24  O   UNL     1      -8.854   6.015  73.380  1.00  0.00    -0.127 OA 
HETATM   25  H1  UNL     1     -10.810   7.190  74.725  1.00  0.00     0.000 HD 
HETATM   26  H2  UNL     1     -11.924   7.192  73.260  1.00  0.00     0.000 HD 
ENDBRANCH  17  21
ENDBRANCH  10  13
ENDBRANCH   8   9
ENDBRANCH   7   8
ENDBRANCH   2   3
TORSDOF 6
ENDMDL
MODEL      208
REMARK 921   NORMALIZED FREE ENERGY PREDICTED BY IDOCK:   -3.52 KCAL/MOL
REMARK 922        TOTAL FREE ENERGY PREDICTED BY IDOCK:   -5.83 KCAL/MOL
REMARK 923 INTER-LIGAND FREE ENERGY PREDICTED BY IDOCK:   -4.99 KCAL/MOL
REMARK 924 INTRA-LIGAND FREE ENERGY PREDICTED BY IDOCK:   -0.85 KCAL/MOL
REMARK 927      BINDING AFFINITY PREDICTED BY RF-SCORE:    0.00 PKD
ROOT
HETATM    1  C   UNL     1     -10.626  16.723  66.912  1.00  0.00    -0.219 C  
HETATM    2  C   UNL     1     -10.590  15.732  65.751  1.00  0.00    -0.355 C  
ENDROOT
BRANCH   2   3
HETATM    3  N   UNL     1     -11.468  14.570  65.964  1.00  0.00    -0.345 NA 
HETATM    4  C   UNL     1     -12.319  14.296  64.802  1.00  0.00    -0.426 C  
HETATM    5  C   UNL     1     -12.769  12.872  65.049  1.00  0.00    -0.474 C  
HETATM    6  C   UNL     1     -11.527  12.198  65.600  1.00  0.00    -0.408 C  
HETATM    7  C   UNL     1     -10.683  13.330  66.207  1.00  0.00    -0.286 C  
BRANCH   7   8
HETATM    8  C   UNL     1     -10.416  13.106  67.713  1.00  0.00    -0.228 C  
BRANCH   8   9
HETATM    9  N   UNL     1      -9.658  11.895  68.011  1.00  0.00    -0.187 N  
HETATM   10  C   UNL     1     -10.244  10.784  68.596  1.00  0.00    -0.185 C  
HETATM   11  H   UNL     1      -8.664  11.866  67.783  1.00  0.00     0.000 HD 
HETATM   12  O   UNL     1     -11.422  10.777  68.931  1.00  0.00    -0.262 OA 
BRANCH  10  13
HETATM   13  C   UNL     1      -9.347   9.597  68.819  1.00  0.00    -0.148 A  
HETATM   14  C   UNL     1      -8.544   9.073  67.779  1.00  0.00    -0.121 A  
HETATM   15  C   UNL     1      -7.735   7.952  68.033  1.00  0.00    -0.125 A  
HETATM   16  C   UNL     1      -9.344   8.965  70.078  1.00  0.00    -0.184 A  
HETATM   17  C   UNL     1      -8.524   7.857  70.306  1.00  0.00    -0.128 A  
HETATM   18  C   UNL     1      -7.723   7.345  69.288  1.00  0.00    -0.107 A  
BRANCH  14  19
HETATM   19  O   UNL     1      -8.575   9.703  66.564  1.00  0.00    -0.125 OA 
HETATM   20  C   UNL     1      -7.578   9.367  65.607  1.00  0.00    -0.095 C  
ENDBRANCH  14  19
BRANCH  17  21
HETATM   21  S   UNL     1      -8.551   7.041  71.877  1.00  0.00    -0.120 S  
HETATM   22  O   UNL     1      -7.253   6.464  72.131  1.00  0.00    -0.084 OA 
HETATM   23  N   UNL     1      -8.707   8.332  72.933  1.00  0.00    -0.221 N  
HETATM   24  O   UNL     1      -9.776   6.282  71.991  1.00  0.00    -0.153 OA 
HETATM   25  H1  UNL     1      -8.722   7.862  73.838  1.00  0.00     0.000 HD 
HETATM   26  H2  UNL     1      -8.770   9.328  72.725  1.00  0.00     0.000 HD 
ENDBRANCH  17  21
ENDBRANCH  10  13
ENDBRANCH   8   9
ENDBRANCH   7   8
ENDBRANCH   2   3
TORSDOF 6
ENDMDL
MODEL      209
REMARK 921   NORMALIZED FREE ENERGY PREDICTED BY IDOCK:   -3.51 KCAL/MOL
REMARK 922        TOTAL FREE ENERGY PREDICTED BY IDOCK:   -5.83 KCAL/MOL
REMARK 923 INTER-LIGAND FREE ENERGY PREDICTED BY IDOCK:   -5.01 KCAL/MOL
REMARK 924 INTRA-LIGAND FREE ENERGY PREDICTED BY IDOCK:   -0.82 KCAL/MOL
REMARK 927      BINDING AFFINITY PREDICTED BY RF-SCORE:    0.00 PKD
ROOT
HETATM    1  C   UNL     1      -9.545  16.220  67.309  1.00  0.00    -0.231 C  
HETATM    2  C   UNL     1      -9.587  14.796  66.762  1.00  0.00    -0.254 C  
ENDROOT
BRANCH   2   3
HETATM    3  N   UNL     1     -10.857  14.480  66.089  1.00  0.00    -0.310 NA 
HETATM    4  C   UNL     1     -11.174  15.435  65.023  1.00  0.00    -0.387 C  
HETATM    5  C   UNL     1     -12.214  14.694  64.211  1.00  0.00    -0.432 C  
HETATM    6  C   UNL     1     -11.702  13.267  64.197  1.00  0.00    -0.470 C  
HETATM    7  C   UNL     1     -10.814  13.139  65.445  1.00  0.00    -0.282 C  
BRANCH   7   8
HETATM    8  C   UNL     1     -11.316  12.030  66.398  1.00  0.00    -0.354 C  
BRANCH   8   9
HETATM    9  N   UNL     1     -10.461  10.848  66.442  1.00  0.00    -0.255 N  
HETATM   10  C   UNL     1     -10.655   9.833  67.365  1.00  0.00    -0.267 C  
HETATM   11  H   UNL     1      -9.697  10.766  65.772  1.00  0.00     0.000 HD 
HETATM   12  O   UNL     1     -11.529   9.896  68.221  1.00  0.00    -0.072 OA 
BRANCH  10  13
HETATM   13  C   UNL     1      -9.715   8.661  67.275  1.00  0.00    -0.241 A  
HETATM   14  C   UNL     1      -8.363   8.767  67.679  1.00  0.00    -0.114 A  
HETATM   15  C   UNL     1      -7.521   7.648  67.560  1.00  0.00    -0.104 A  
HETATM   16  C   UNL     1     -10.179   7.448  66.731  1.00  0.00    -0.313 A  
HETATM   17  C   UNL     1      -9.323   6.349  66.630  1.00  0.00    -0.153 A  
HETATM   18  C   UNL     1      -7.995   6.445  67.038  1.00  0.00    -0.109 A  
BRANCH  14  19
HETATM   19  O   UNL     1      -7.939   9.961  68.197  1.00  0.00    -0.099 OA 
HETATM   20  C   UNL     1      -6.893  10.651  67.524  1.00  0.00    -0.078 C  
ENDBRANCH  14  19
BRANCH  17  21
HETATM   21  S   UNL     1      -9.898   4.838  65.910  1.00  0.00    -0.220 S  
HETATM   22  O   UNL     1      -8.849   4.274  65.095  1.00  0.00    -0.124 OA 
HETATM   23  N   UNL     1     -10.034   3.846  67.253  1.00  0.00    -0.217 N  
HETATM   24  O   UNL     1     -11.245   5.034  65.422  1.00  0.00     0.077 OA 
HETATM   25  H1  UNL     1     -10.366   2.975  66.839  1.00  0.00     0.000 HD 
HETATM   26  H2  UNL     1      -9.837   4.058  68.231  1.00  0.00     0.000 HD 
ENDBRANCH  17  21
ENDBRANCH  10  13
ENDBRANCH   8   9
ENDBRANCH   7   8
ENDBRANCH   2   3
TORSDOF 6
ENDMDL
MODEL      210
REMARK 921   NORMALIZED FREE ENERGY PREDICTED BY IDOCK:   -3.49 KCAL/MOL
REMARK 922        TOTAL FREE ENERGY PREDICTED BY IDOCK:   -5.80 KCAL/MOL
REMARK 923 INTER-LIGAND FREE ENERGY PREDICTED BY IDOCK:   -5.01 KCAL/MOL
REMARK 924 INTRA-LIGAND FREE ENERGY PREDICTED BY IDOCK:   -0.79 KCAL/MOL
REMARK 927      BINDING AFFINITY PREDICTED BY RF-SCORE:    0.00 PKD
ROOT
HETATM    1  C   UNL     1     -10.803  13.445  65.658  1.00  0.00    -0.292 C  
HETATM    2  C   UNL     1     -10.836  12.075  66.331  1.00  0.00    -0.278 C  
ENDROOT
BRANCH   2   3
HETATM    3  N   UNL     1     -10.585  10.971  65.392  1.00  0.00    -0.236 NA 
HETATM    4  C   UNL     1      -9.842  11.408  64.206  1.00  0.00    -0.261 C  
HETATM    5  C   UNL     1      -9.321  10.104  63.641  1.00  0.00    -0.336 C  
HETATM    6  C   UNL     1      -8.923   9.317  64.875  1.00  0.00    -0.229 C  
HETATM    7  C   UNL     1      -9.770   9.896  66.019  1.00  0.00    -0.247 C  
BRANCH   7   8
HETATM    8  C   UNL     1     -10.657   8.817  66.682  1.00  0.00    -0.070 C  
BRANCH   8   9
HETATM    9  N   UNL     1     -10.067   8.202  67.866  1.00  0.00    -0.186 N  
HETATM   10  C   UNL     1     -10.422   6.933  68.293  1.00  0.00    -0.206 C  
HETATM   11  H   UNL     1      -9.370   8.724  68.397  1.00  0.00     0.000 HD 
HETATM   12  O   UNL     1     -11.283   6.277  67.720  1.00  0.00    -0.325 OA 
BRANCH  10  13
HETATM   13  C   UNL     1      -9.710   6.416  69.514  1.00  0.00    -0.167 A  
HETATM   14  C   UNL     1      -8.348   6.038  69.468  1.00  0.00    -0.115 A  
HETATM   15  C   UNL     1      -7.732   5.546  70.632  1.00  0.00    -0.090 A  
HETATM   16  C   UNL     1     -10.429   6.261  70.715  1.00  0.00    -0.273 A  
HETATM   17  C   UNL     1      -9.791   5.776  71.859  1.00  0.00    -0.164 A  
HETATM   18  C   UNL     1      -8.447   5.414  71.822  1.00  0.00    -0.127 A  
BRANCH  14  19
HETATM   19  O   UNL     1      -7.677   6.193  68.285  1.00  0.00    -0.099 OA 
HETATM   20  C   UNL     1      -6.306   5.819  68.236  1.00  0.00    -0.044 C  
ENDBRANCH  14  19
BRANCH  17  21
HETATM   21  S   UNL     1     -10.707   5.545  73.356  1.00  0.00    -0.289 S  
HETATM   22  O   UNL     1     -10.527   6.701  74.202  1.00  0.00    -0.353 OA 
HETATM   23  N   UNL     1     -12.288   5.606  72.806  1.00  0.00    -0.464 N  
HETATM   24  O   UNL     1     -10.501   4.194  73.828  1.00  0.00    -0.159 OA 
HETATM   25  H1  UNL     1     -12.815   5.473  73.669  1.00  0.00     0.000 HD 
HETATM   26  H2  UNL     1     -12.633   5.741  71.856  1.00  0.00     0.000 HD 
ENDBRANCH  17  21
ENDBRANCH  10  13
ENDBRANCH   8   9
ENDBRANCH   7   8
ENDBRANCH   2   3
TORSDOF 6
ENDMDL
MODEL      211
REMARK 921   NORMALIZED FREE ENERGY PREDICTED BY IDOCK:   -3.48 KCAL/MOL
REMARK 922        TOTAL FREE ENERGY PREDICTED BY IDOCK:   -5.78 KCAL/MOL
REMARK 923 INTER-LIGAND FREE ENERGY PREDICTED BY IDOCK:   -5.34 KCAL/MOL
REMARK 924 INTRA-LIGAND FREE ENERGY PREDICTED BY IDOCK:   -0.44 KCAL/MOL
REMARK 927      BINDING AFFINITY PREDICTED BY RF-SCORE:    0.00 PKD
ROOT
HETATM    1  C   UNL     1      -6.819  20.338  66.630  1.00  0.00    -0.279 C  
HETATM    2  C   UNL     1      -6.871  18.822  66.797  1.00  0.00    -0.194 C  
ENDROOT
BRANCH   2   3
HETATM    3  N   UNL     1      -8.239  18.315  66.990  1.00  0.00    -0.233 NA 
HETATM    4  C   UNL     1      -9.242  19.159  66.334  1.00  0.00    -0.343 C  
HETATM    5  C   UNL     1     -10.451  18.251  66.270  1.00  0.00    -0.397 C  
HETATM    6  C   UNL     1      -9.859  16.897  65.927  1.00  0.00    -0.241 C  
HETATM    7  C   UNL     1      -8.402  16.953  66.415  1.00  0.00    -0.298 C  
BRANCH   7   8
HETATM    8  C   UNL     1      -8.101  15.850  67.456  1.00  0.00    -0.151 C  
BRANCH   8   9
HETATM    9  N   UNL     1      -8.264  14.491  66.951  1.00  0.00    -0.380 N  
HETATM   10  C   UNL     1      -9.179  13.607  67.499  1.00  0.00    -0.218 C  
HETATM   11  H   UNL     1      -7.686  14.182  66.170  1.00  0.00     0.000 HD 
HETATM   12  O   UNL     1      -9.870  13.907  68.464  1.00  0.00    -0.226 OA 
BRANCH  10  13
HETATM   13  C   UNL     1      -9.259  12.247  66.857  1.00  0.00    -0.209 A  
HETATM   14  C   UNL     1      -9.228  11.063  67.631  1.00  0.00    -0.149 A  
HETATM   15  C   UNL     1      -9.290   9.818  66.984  1.00  0.00    -0.178 A  
HETATM   16  C   UNL     1      -9.317  12.153  65.453  1.00  0.00     0.058 A  
HETATM   17  C   UNL     1      -9.384  10.901  64.836  1.00  0.00    -0.224 A  
HETATM   18  C   UNL     1      -9.367   9.734  65.594  1.00  0.00    -0.285 A  
BRANCH  14  19
HETATM   19  O   UNL     1      -9.164  11.188  68.993  1.00  0.00    -0.140 OA 
HETATM   20  C   UNL     1      -8.555  10.138  69.735  1.00  0.00    -0.128 C  
ENDBRANCH  14  19
BRANCH  17  21
HETATM   21  S   UNL     1      -9.417  10.784  63.069  1.00  0.00    -0.377 S  
HETATM   22  O   UNL     1      -9.483   9.393  62.690  1.00  0.00     0.005 OA 
HETATM   23  N   UNL     1     -10.915  11.442  62.708  1.00  0.00    -0.568 N  
HETATM   24  O   UNL     1      -8.439  11.695  62.520  1.00  0.00    -0.185 OA 
HETATM   25  H1  UNL     1     -10.934  11.374  61.691  1.00  0.00     0.000 HD 
HETATM   26  H2  UNL     1     -11.623  11.814  63.341  1.00  0.00     0.000 HD 
ENDBRANCH  17  21
ENDBRANCH  10  13
ENDBRANCH   8   9
ENDBRANCH   7   8
ENDBRANCH   2   3
TORSDOF 6
ENDMDL
MODEL      212
REMARK 921   NORMALIZED FREE ENERGY PREDICTED BY IDOCK:   -3.47 KCAL/MOL
REMARK 922        TOTAL FREE ENERGY PREDICTED BY IDOCK:   -5.77 KCAL/MOL
REMARK 923 INTER-LIGAND FREE ENERGY PREDICTED BY IDOCK:   -4.78 KCAL/MOL
REMARK 924 INTRA-LIGAND FREE ENERGY PREDICTED BY IDOCK:   -0.99 KCAL/MOL
REMARK 927      BINDING AFFINITY PREDICTED BY RF-SCORE:    0.00 PKD
ROOT
HETATM    1  C   UNL     1     -11.349  15.069  70.421  1.00  0.00    -0.309 C  
HETATM    2  C   UNL     1     -10.317  15.143  69.299  1.00  0.00    -0.257 C  
ENDROOT
BRANCH   2   3
HETATM    3  N   UNL     1     -10.529  14.124  68.259  1.00  0.00    -0.243 NA 
HETATM    4  C   UNL     1     -11.917  14.089  67.789  1.00  0.00    -0.357 C  
HETATM    5  C   UNL     1     -11.806  13.341  66.478  1.00  0.00    -0.450 C  
HETATM    6  C   UNL     1     -10.525  13.880  65.871  1.00  0.00    -0.309 C  
HETATM    7  C   UNL     1      -9.691  14.385  67.059  1.00  0.00    -0.254 C  
BRANCH   7   8
HETATM    8  C   UNL     1      -8.323  13.671  67.147  1.00  0.00    -0.137 C  
BRANCH   8   9
HETATM    9  N   UNL     1      -8.336  12.293  66.667  1.00  0.00    -0.377 N  
HETATM   10  C   UNL     1      -8.227  11.212  67.526  1.00  0.00    -0.119 C  
HETATM   11  H   UNL     1      -8.427  12.120  65.666  1.00  0.00     0.000 HD 
HETATM   12  O   UNL     1      -8.072  11.359  68.732  1.00  0.00    -0.145 OA 
BRANCH  10  13
HETATM   13  C   UNL     1      -8.285   9.848  66.892  1.00  0.00    -0.120 A  
HETATM   14  C   UNL     1      -7.576   9.556  65.704  1.00  0.00    -0.101 A  
HETATM   15  C   UNL     1      -7.675   8.272  65.142  1.00  0.00    -0.102 A  
HETATM   16  C   UNL     1      -9.101   8.856  67.470  1.00  0.00    -0.146 A  
HETATM   17  C   UNL     1      -9.176   7.585  66.895  1.00  0.00    -0.149 A  
HETATM   18  C   UNL     1      -8.470   7.289  65.732  1.00  0.00    -0.148 A  
BRANCH  14  19
HETATM   19  O   UNL     1      -6.797  10.543  65.161  1.00  0.00    -0.112 OA 
HETATM   20  C   UNL     1      -5.869  10.184  64.145  1.00  0.00    -0.140 C  
ENDBRANCH  14  19
BRANCH  17  21
HETATM   21  S   UNL     1     -10.232   6.352  67.601  1.00  0.00    -0.196 S  
HETATM   22  O   UNL     1     -10.893   5.633  66.539  1.00  0.00    -0.284 OA 
HETATM   23  N   UNL     1      -9.123   5.289  68.269  1.00  0.00    -0.109 N  
HETATM   24  O   UNL     1     -10.950   6.931  68.714  1.00  0.00    -0.213 OA 
HETATM   25  H1  UNL     1      -9.731   4.579  68.676  1.00  0.00     0.000 HD 
HETATM   26  H2  UNL     1      -8.104   5.339  68.270  1.00  0.00     0.000 HD 
ENDBRANCH  17  21
ENDBRANCH  10  13
ENDBRANCH   8   9
ENDBRANCH   7   8
ENDBRANCH   2   3
TORSDOF 6
ENDMDL
MODEL      213
REMARK 921   NORMALIZED FREE ENERGY PREDICTED BY IDOCK:   -3.44 KCAL/MOL
REMARK 922        TOTAL FREE ENERGY PREDICTED BY IDOCK:   -5.72 KCAL/MOL
REMARK 923 INTER-LIGAND FREE ENERGY PREDICTED BY IDOCK:   -4.92 KCAL/MOL
REMARK 924 INTRA-LIGAND FREE ENERGY PREDICTED BY IDOCK:   -0.81 KCAL/MOL
REMARK 927      BINDING AFFINITY PREDICTED BY RF-SCORE:    0.00 PKD
ROOT
HETATM    1  C   UNL     1     -10.645   2.520  63.240  1.00  0.00    -0.209 C  
HETATM    2  C   UNL     1      -9.449   2.162  64.119  1.00  0.00    -0.131 C  
ENDROOT
BRANCH   2   3
HETATM    3  N   UNL     1      -8.840   3.337  64.761  1.00  0.00    -0.115 NA 
HETATM    4  C   UNL     1      -8.820   4.506  63.877  1.00  0.00    -0.144 C  
HETATM    5  C   UNL     1      -8.594   5.650  64.842  1.00  0.00    -0.086 C  
HETATM    6  C   UNL     1      -9.448   5.277  66.039  1.00  0.00    -0.169 C  
HETATM    7  C   UNL     1      -9.595   3.748  65.975  1.00  0.00    -0.159 C  
BRANCH   7   8
HETATM    8  C   UNL     1      -9.049   3.064  67.250  1.00  0.00    -0.175 C  
BRANCH   8   9
HETATM    9  N   UNL     1      -9.687   3.505  68.485  1.00  0.00    -0.065 N  
HETATM   10  C   UNL     1      -9.084   4.410  69.344  1.00  0.00    -0.113 C  
HETATM   11  H   UNL     1     -10.607   3.136  68.725  1.00  0.00     0.000 HD 
HETATM   12  O   UNL     1      -7.962   4.853  69.131  1.00  0.00    -0.075 OA 
BRANCH  10  13
HETATM   13  C   UNL     1      -9.872   4.796  70.567  1.00  0.00    -0.301 A  
HETATM   14  C   UNL     1      -9.844   4.009  71.742  1.00  0.00    -0.179 A  
HETATM   15  C   UNL     1     -10.610   4.404  72.852  1.00  0.00    -0.264 A  
HETATM   16  C   UNL     1     -10.692   5.940  70.522  1.00  0.00    -0.363 A  
HETATM   17  C   UNL     1     -11.438   6.314  71.642  1.00  0.00    -0.296 A  
HETATM   18  C   UNL     1     -11.404   5.549  72.805  1.00  0.00    -0.359 A  
BRANCH  14  19
HETATM   19  O   UNL     1      -9.043   2.899  71.752  1.00  0.00    -0.085 OA 
HETATM   20  C   UNL     1      -9.651   1.634  71.985  1.00  0.00    -0.107 C  
ENDBRANCH  14  19
BRANCH  17  21
HETATM   21  S   UNL     1     -12.498   7.730  71.571  1.00  0.00    -0.324 S  
HETATM   22  O   UNL     1     -12.224   8.583  72.703  1.00  0.00    -0.379 OA 
HETATM   23  N   UNL     1     -11.910   8.534  70.224  1.00  0.00    -0.458 N  
HETATM   24  O   UNL     1     -13.834   7.300  71.226  1.00  0.00    -0.362 OA 
HETATM   25  H1  UNL     1     -12.520   9.350  70.182  1.00  0.00     0.000 HD 
HETATM   26  H2  UNL     1     -11.141   8.274  69.606  1.00  0.00     0.000 HD 
ENDBRANCH  17  21
ENDBRANCH  10  13
ENDBRANCH   8   9
ENDBRANCH   7   8
ENDBRANCH   2   3
TORSDOF 6
ENDMDL
MODEL      214
REMARK 921   NORMALIZED FREE ENERGY PREDICTED BY IDOCK:   -3.42 KCAL/MOL
REMARK 922        TOTAL FREE ENERGY PREDICTED BY IDOCK:   -5.71 KCAL/MOL
REMARK 923 INTER-LIGAND FREE ENERGY PREDICTED BY IDOCK:   -4.68 KCAL/MOL
REMARK 924 INTRA-LIGAND FREE ENERGY PREDICTED BY IDOCK:   -1.03 KCAL/MOL
REMARK 927      BINDING AFFINITY PREDICTED BY RF-SCORE:    0.00 PKD
ROOT
HETATM    1  C   UNL     1      -9.094   5.063  71.496  1.00  0.00    -0.169 C  
HETATM    2  C   UNL     1     -10.157   5.488  70.486  1.00  0.00    -0.226 C  
ENDROOT
BRANCH   2   3
HETATM    3  N   UNL     1     -10.427   6.934  70.515  1.00  0.00    -0.208 NA 
HETATM    4  C   UNL     1     -11.170   7.337  71.713  1.00  0.00    -0.247 C  
HETATM    5  C   UNL     1     -10.941   8.832  71.759  1.00  0.00    -0.415 C  
HETATM    6  C   UNL     1      -9.489   8.981  71.347  1.00  0.00    -0.334 C  
HETATM    7  C   UNL     1      -9.167   7.725  70.522  1.00  0.00    -0.162 C  
BRANCH   7   8
HETATM    8  C   UNL     1      -8.705   8.080  69.090  1.00  0.00    -0.137 C  
BRANCH   8   9
HETATM    9  N   UNL     1      -8.939   9.470  68.713  1.00  0.00    -0.131 N  
HETATM   10  C   UNL     1      -8.019  10.199  67.976  1.00  0.00    -0.101 C  
HETATM   11  H   UNL     1      -9.807   9.920  69.002  1.00  0.00     0.000 HD 
HETATM   12  O   UNL     1      -6.942   9.725  67.638  1.00  0.00    -0.084 OA 
BRANCH  10  13
HETATM   13  C   UNL     1      -8.408  11.612  67.636  1.00  0.00    -0.142 A  
HETATM   14  C   UNL     1      -9.513  11.893  66.798  1.00  0.00    -0.201 A  
HETATM   15  C   UNL     1      -9.826  13.229  66.498  1.00  0.00    -0.281 A  
HETATM   16  C   UNL     1      -7.625  12.676  68.124  1.00  0.00    -0.132 A  
HETATM   17  C   UNL     1      -7.962  13.996  67.815  1.00  0.00    -0.171 A  
HETATM   18  C   UNL     1      -9.056  14.278  67.001  1.00  0.00    -0.246 A  
BRANCH  14  19
HETATM   19  O   UNL     1     -10.250  10.837  66.333  1.00  0.00    -0.225 OA 
HETATM   20  C   UNL     1     -10.109  10.470  64.966  1.00  0.00    -0.321 C  
ENDBRANCH  14  19
BRANCH  17  21
HETATM   21  S   UNL     1      -6.954  15.330  68.398  1.00  0.00    -0.118 S  
HETATM   22  O   UNL     1      -6.168  15.841  67.301  1.00  0.00    -0.273 OA 
HETATM   23  N   UNL     1      -8.099  16.503  68.743  1.00  0.00    -0.234 N  
HETATM   24  O   UNL     1      -6.371  14.957  69.668  1.00  0.00    -0.119 OA 
HETATM   25  H1  UNL     1      -7.519  17.271  69.079  1.00  0.00     0.000 HD 
HETATM   26  H2  UNL     1      -9.113  16.460  68.643  1.00  0.00     0.000 HD 
ENDBRANCH  17  21
ENDBRANCH  10  13
ENDBRANCH   8   9
ENDBRANCH   7   8
ENDBRANCH   2   3
TORSDOF 6
ENDMDL
MODEL      215
REMARK 921   NORMALIZED FREE ENERGY PREDICTED BY IDOCK:   -3.41 KCAL/MOL
REMARK 922        TOTAL FREE ENERGY PREDICTED BY IDOCK:   -5.69 KCAL/MOL
REMARK 923 INTER-LIGAND FREE ENERGY PREDICTED BY IDOCK:   -5.27 KCAL/MOL
REMARK 924 INTRA-LIGAND FREE ENERGY PREDICTED BY IDOCK:   -0.43 KCAL/MOL
REMARK 927      BINDING AFFINITY PREDICTED BY RF-SCORE:    0.00 PKD
ROOT
HETATM    1  C   UNL     1     -12.352  13.996  65.654  1.00  0.00    -0.502 C  
HETATM    2  C   UNL     1     -11.779  14.493  66.979  1.00  0.00    -0.393 C  
ENDROOT
BRANCH   2   3
HETATM    3  N   UNL     1     -10.435  15.073  66.839  1.00  0.00    -0.274 NA 
HETATM    4  C   UNL     1     -10.475  16.520  66.609  1.00  0.00    -0.266 C  
HETATM    5  C   UNL     1      -9.062  16.949  66.943  1.00  0.00    -0.248 C  
HETATM    6  C   UNL     1      -8.713  16.107  68.155  1.00  0.00    -0.175 C  
HETATM    7  C   UNL     1      -9.622  14.870  68.068  1.00  0.00    -0.207 C  
BRANCH   7   8
HETATM    8  C   UNL     1      -8.804  13.559  68.005  1.00  0.00    -0.181 C  
BRANCH   8   9
HETATM    9  N   UNL     1      -9.533  12.378  68.457  1.00  0.00    -0.363 N  
HETATM   10  C   UNL     1      -8.904  11.329  69.108  1.00  0.00     0.141 C  
HETATM   11  H   UNL     1     -10.537  12.323  68.288  1.00  0.00     0.000 HD 
HETATM   12  O   UNL     1      -7.694  11.320  69.300  1.00  0.00    -0.092 OA 
BRANCH  10  13
HETATM   13  C   UNL     1      -9.786  10.190  69.543  1.00  0.00    -0.251 A  
HETATM   14  C   UNL     1      -9.543   8.864  69.115  1.00  0.00    -0.162 A  
HETATM   15  C   UNL     1     -10.405   7.837  69.536  1.00  0.00    -0.219 A  
HETATM   16  C   UNL     1     -10.904  10.458  70.355  1.00  0.00    -0.257 A  
HETATM   17  C   UNL     1     -11.741   9.418  70.765  1.00  0.00    -0.282 A  
HETATM   18  C   UNL     1     -11.499   8.109  70.356  1.00  0.00    -0.126 A  
BRANCH  14  19
HETATM   19  O   UNL     1      -8.452   8.635  68.319  1.00  0.00    -0.128 OA 
HETATM   20  C   UNL     1      -8.307   7.348  67.732  1.00  0.00    -0.118 C  
ENDBRANCH  14  19
BRANCH  17  21
HETATM   21  S   UNL     1     -13.169   9.763  71.754  1.00  0.00    -0.447 S  
HETATM   22  O   UNL     1     -14.356   9.466  70.989  1.00  0.00     0.008 OA 
HETATM   23  N   UNL     1     -13.063   8.582  72.937  1.00  0.00    -0.594 N  
HETATM   24  O   UNL     1     -12.975  11.025  72.433  1.00  0.00    -0.132 OA 
HETATM   25  H1  UNL     1     -13.885   8.781  73.507  1.00  0.00     0.000 HD 
HETATM   26  H2  UNL     1     -12.359   7.854  73.057  1.00  0.00     0.000 HD 
ENDBRANCH  17  21
ENDBRANCH  10  13
ENDBRANCH   8   9
ENDBRANCH   7   8
ENDBRANCH   2   3
TORSDOF 6
ENDMDL
MODEL      216
REMARK 921   NORMALIZED FREE ENERGY PREDICTED BY IDOCK:   -3.41 KCAL/MOL
REMARK 922        TOTAL FREE ENERGY PREDICTED BY IDOCK:   -5.69 KCAL/MOL
REMARK 923 INTER-LIGAND FREE ENERGY PREDICTED BY IDOCK:   -4.79 KCAL/MOL
REMARK 924 INTRA-LIGAND FREE ENERGY PREDICTED BY IDOCK:   -0.91 KCAL/MOL
REMARK 927      BINDING AFFINITY PREDICTED BY RF-SCORE:    0.00 PKD
ROOT
HETATM    1  C   UNL     1     -12.698  14.056  65.436  1.00  0.00    -0.499 C  
HETATM    2  C   UNL     1     -12.144  13.778  66.830  1.00  0.00    -0.413 C  
ENDROOT
BRANCH   2   3
HETATM    3  N   UNL     1     -11.105  14.739  67.235  1.00  0.00    -0.322 NA 
HETATM    4  C   UNL     1     -11.598  15.710  68.217  1.00  0.00    -0.319 C  
HETATM    5  C   UNL     1     -10.319  16.268  68.802  1.00  0.00    -0.261 C  
HETATM    6  C   UNL     1      -9.421  15.051  68.916  1.00  0.00    -0.211 C  
HETATM    7  C   UNL     1      -9.948  14.055  67.871  1.00  0.00    -0.237 C  
BRANCH   7   8
HETATM    8  C   UNL     1      -8.863  13.680  66.835  1.00  0.00    -0.187 C  
BRANCH   8   9
HETATM    9  N   UNL     1      -8.875  12.275  66.440  1.00  0.00    -0.382 N  
HETATM   10  C   UNL     1      -8.368  11.276  67.254  1.00  0.00    -0.145 C  
HETATM   11  H   UNL     1      -9.269  12.021  65.534  1.00  0.00     0.000 HD 
HETATM   12  O   UNL     1      -7.844  11.525  68.333  1.00  0.00    -0.122 OA 
BRANCH  10  13
HETATM   13  C   UNL     1      -8.474   9.869  66.729  1.00  0.00    -0.125 A  
HETATM   14  C   UNL     1      -7.851   9.485  65.518  1.00  0.00    -0.108 A  
HETATM   15  C   UNL     1      -7.993   8.164  65.062  1.00  0.00    -0.139 A  
HETATM   16  C   UNL     1      -9.250   8.929  67.434  1.00  0.00    -0.157 A  
HETATM   17  C   UNL     1      -9.368   7.620  66.961  1.00  0.00    -0.157 A  
HETATM   18  C   UNL     1      -8.747   7.234  65.777  1.00  0.00    -0.129 A  
BRANCH  14  19
HETATM   19  O   UNL     1      -7.110  10.424  64.851  1.00  0.00    -0.122 OA 
HETATM   20  C   UNL     1      -7.387  10.644  63.474  1.00  0.00     0.175 C  
ENDBRANCH  14  19
BRANCH  17  21
HETATM   21  S   UNL     1     -10.376   6.450  67.829  1.00  0.00    -0.224 S  
HETATM   22  O   UNL     1     -11.002   7.108  68.951  1.00  0.00    -0.170 OA 
HETATM   23  N   UNL     1     -11.594   6.154  66.718  1.00  0.00    -0.410 N  
HETATM   24  O   UNL     1      -9.646   5.209  67.961  1.00  0.00    -0.125 OA 
HETATM   25  H1  UNL     1     -12.174   5.480  67.217  1.00  0.00     0.000 HD 
HETATM   26  H2  UNL     1     -11.722   6.545  65.785  1.00  0.00     0.000 HD 
ENDBRANCH  17  21
ENDBRANCH  10  13
ENDBRANCH   8   9
ENDBRANCH   7   8
ENDBRANCH   2   3
TORSDOF 6
ENDMDL
MODEL      217
REMARK 921   NORMALIZED FREE ENERGY PREDICTED BY IDOCK:   -3.39 KCAL/MOL
REMARK 922        TOTAL FREE ENERGY PREDICTED BY IDOCK:   -5.66 KCAL/MOL
REMARK 923 INTER-LIGAND FREE ENERGY PREDICTED BY IDOCK:   -4.54 KCAL/MOL
REMARK 924 INTRA-LIGAND FREE ENERGY PREDICTED BY IDOCK:   -1.12 KCAL/MOL
REMARK 927      BINDING AFFINITY PREDICTED BY RF-SCORE:    0.00 PKD
ROOT
HETATM    1  C   UNL     1      -7.363  13.988  67.603  1.00  0.00    -0.188 C  
HETATM    2  C   UNL     1      -6.107  13.126  67.515  1.00  0.00    -0.105 C  
ENDROOT
BRANCH   2   3
HETATM    3  N   UNL     1      -6.405  11.691  67.394  1.00  0.00    -0.087 NA 
HETATM    4  C   UNL     1      -5.650  11.055  66.310  1.00  0.00    -0.139 C  
HETATM    5  C   UNL     1      -5.754   9.584  66.651  1.00  0.00    -0.054 C  
HETATM    6  C   UNL     1      -5.610   9.560  68.161  1.00  0.00    -0.037 C  
HETATM    7  C   UNL     1      -6.050  10.953  68.636  1.00  0.00    -0.043 C  
BRANCH   7   8
HETATM    8  C   UNL     1      -7.241  10.876  69.619  1.00  0.00    -0.095 C  
BRANCH   8   9
HETATM    9  N   UNL     1      -8.009   9.639  69.532  1.00  0.00    -0.111 N  
HETATM   10  C   UNL     1      -9.175   9.545  68.789  1.00  0.00    -0.140 C  
HETATM   11  H   UNL     1      -7.677   8.816  70.035  1.00  0.00     0.000 HD 
HETATM   12  O   UNL     1      -9.644  10.510  68.200  1.00  0.00    -0.149 OA 
BRANCH  10  13
HETATM   13  C   UNL     1      -9.845   8.198  68.767  1.00  0.00    -0.181 A  
HETATM   14  C   UNL     1     -10.688   7.776  69.822  1.00  0.00    -0.236 A  
HETATM   15  C   UNL     1     -11.279   6.502  69.763  1.00  0.00    -0.456 A  
HETATM   16  C   UNL     1      -9.589   7.320  67.696  1.00  0.00    -0.160 A  
HETATM   17  C   UNL     1     -10.194   6.061  67.659  1.00  0.00    -0.181 A  
HETATM   18  C   UNL     1     -11.035   5.647  68.689  1.00  0.00    -0.076 A  
BRANCH  14  19
HETATM   19  O   UNL     1     -10.912   8.649  70.853  1.00  0.00    -0.236 OA 
HETATM   20  C   UNL     1     -10.298   8.379  72.107  1.00  0.00    -0.327 C  
ENDBRANCH  14  19
BRANCH  17  21
HETATM   21  S   UNL     1      -9.840   4.945  66.331  1.00  0.00    -0.233 S  
HETATM   22  O   UNL     1      -9.605   3.628  66.872  1.00  0.00    -0.205 OA 
HETATM   23  N   UNL     1     -11.314   4.872  65.539  1.00  0.00    -0.942 N  
HETATM   24  O   UNL     1      -8.926   5.584  65.412  1.00  0.00    -0.157 OA 
HETATM   25  H1  UNL     1     -11.111   4.229  64.774  1.00  0.00     0.000 HD 
HETATM   26  H2  UNL     1     -12.189   5.347  65.763  1.00  0.00     0.000 HD 
ENDBRANCH  17  21
ENDBRANCH  10  13
ENDBRANCH   8   9
ENDBRANCH   7   8
ENDBRANCH   2   3
TORSDOF 6
ENDMDL
MODEL      218
REMARK 921   NORMALIZED FREE ENERGY PREDICTED BY IDOCK:   -3.36 KCAL/MOL
REMARK 922        TOTAL FREE ENERGY PREDICTED BY IDOCK:   -5.61 KCAL/MOL
REMARK 923 INTER-LIGAND FREE ENERGY PREDICTED BY IDOCK:   -4.81 KCAL/MOL
REMARK 924 INTRA-LIGAND FREE ENERGY PREDICTED BY IDOCK:   -0.81 KCAL/MOL
REMARK 927      BINDING AFFINITY PREDICTED BY RF-SCORE:    0.00 PKD
ROOT
HETATM    1  C   UNL     1      -6.536   4.548  72.653  1.00  0.00    -0.040 C  
HETATM    2  C   UNL     1      -7.588   5.626  72.408  1.00  0.00    -0.101 C  
ENDROOT
BRANCH   2   3
HETATM    3  N   UNL     1      -8.960   5.096  72.409  1.00  0.00    -0.131 NA 
HETATM    4  C   UNL     1      -9.449   4.820  73.763  1.00  0.00    -0.124 C  
HETATM    5  C   UNL     1     -10.947   4.733  73.565  1.00  0.00    -0.398 C  
HETATM    6  C   UNL     1     -11.237   5.841  72.570  1.00  0.00    -0.347 C  
HETATM    7  C   UNL     1      -9.919   6.063  71.810  1.00  0.00    -0.170 C  
BRANCH   7   8
HETATM    8  C   UNL     1     -10.086   5.839  70.290  1.00  0.00    -0.211 C  
BRANCH   8   9
HETATM    9  N   UNL     1      -9.576   6.929  69.465  1.00  0.00    -0.149 N  
HETATM   10  C   UNL     1     -10.136   7.249  68.239  1.00  0.00    -0.170 C  
HETATM   11  H   UNL     1      -8.782   7.473  69.802  1.00  0.00     0.000 HD 
HETATM   12  O   UNL     1     -11.063   6.605  67.764  1.00  0.00    -0.285 OA 
BRANCH  10  13
HETATM   13  C   UNL     1      -9.525   8.417  67.512  1.00  0.00    -0.182 A  
HETATM   14  C   UNL     1      -8.232   8.338  66.945  1.00  0.00    -0.103 A  
HETATM   15  C   UNL     1      -7.699   9.462  66.289  1.00  0.00    -0.097 A  
HETATM   16  C   UNL     1     -10.239   9.629  67.436  1.00  0.00    -0.283 A  
HETATM   17  C   UNL     1      -9.689  10.728  66.772  1.00  0.00    -0.187 A  
HETATM   18  C   UNL     1      -8.421  10.651  66.202  1.00  0.00    -0.159 A  
BRANCH  14  19
HETATM   19  O   UNL     1      -7.559   7.150  67.041  1.00  0.00    -0.095 OA 
HETATM   20  C   UNL     1      -6.952   6.624  65.867  1.00  0.00    -0.061 C  
ENDBRANCH  14  19
BRANCH  17  21
HETATM   21  S   UNL     1     -10.572  12.262  66.712  1.00  0.00    -0.229 S  
HETATM   22  O   UNL     1     -10.096  13.122  67.769  1.00  0.00    -0.217 OA 
HETATM   23  N   UNL     1     -10.013  12.925  65.279  1.00  0.00    -0.452 N  
HETATM   24  O   UNL     1     -11.976  11.987  66.504  1.00  0.00    -0.616 OA 
HETATM   25  H1  UNL     1     -10.522  13.808  65.244  1.00  0.00     0.000 HD 
HETATM   26  H2  UNL     1      -9.341  12.544  64.614  1.00  0.00     0.000 HD 
ENDBRANCH  17  21
ENDBRANCH  10  13
ENDBRANCH   8   9
ENDBRANCH   7   8
ENDBRANCH   2   3
TORSDOF 6
ENDMDL
MODEL      219
REMARK 921   NORMALIZED FREE ENERGY PREDICTED BY IDOCK:   -3.29 KCAL/MOL
REMARK 922        TOTAL FREE ENERGY PREDICTED BY IDOCK:   -5.53 KCAL/MOL
REMARK 923 INTER-LIGAND FREE ENERGY PREDICTED BY IDOCK:   -4.55 KCAL/MOL
REMARK 924 INTRA-LIGAND FREE ENERGY PREDICTED BY IDOCK:   -0.98 KCAL/MOL
REMARK 927      BINDING AFFINITY PREDICTED BY RF-SCORE:    0.00 PKD
ROOT
HETATM    1  C   UNL     1     -14.391   7.721  71.713  1.00  0.00    -0.594 C  
HETATM    2  C   UNL     1     -13.281   6.720  71.404  1.00  0.00    -0.096 C  
ENDROOT
BRANCH   2   3
HETATM    3  N   UNL     1     -11.945   7.337  71.381  1.00  0.00    -0.303 NA 
HETATM    4  C   UNL     1     -11.912   8.619  72.091  1.00  0.00    -0.379 C  
HETATM    5  C   UNL     1     -10.432   8.830  72.327  1.00  0.00    -0.317 C  
HETATM    6  C   UNL     1      -9.927   7.443  72.677  1.00  0.00    -0.241 C  
HETATM    7  C   UNL     1     -10.932   6.470  72.040  1.00  0.00    -0.247 C  
BRANCH   7   8
HETATM    8  C   UNL     1     -10.249   5.517  71.032  1.00  0.00    -0.223 C  
BRANCH   8   9
HETATM    9  N   UNL     1     -10.057   6.089  69.704  1.00  0.00    -0.177 N  
HETATM   10  C   UNL     1      -8.834   6.592  69.288  1.00  0.00    -0.132 C  
HETATM   11  H   UNL     1     -10.847   6.120  69.060  1.00  0.00     0.000 HD 
HETATM   12  O   UNL     1      -7.861   6.620  70.031  1.00  0.00    -0.106 OA 
BRANCH  10  13
HETATM   13  C   UNL     1      -8.776   7.124  67.882  1.00  0.00    -0.126 A  
HETATM   14  C   UNL     1      -9.093   8.471  67.589  1.00  0.00    -0.135 A  
HETATM   15  C   UNL     1      -9.038   8.916  66.257  1.00  0.00    -0.236 A  
HETATM   16  C   UNL     1      -8.444   6.249  66.829  1.00  0.00    -0.111 A  
HETATM   17  C   UNL     1      -8.390   6.720  65.515  1.00  0.00    -0.142 A  
HETATM   18  C   UNL     1      -8.690   8.048  65.223  1.00  0.00    -0.062 A  
BRANCH  14  19
HETATM   19  O   UNL     1      -9.419   9.296  68.632  1.00  0.00    -0.145 OA 
HETATM   20  C   UNL     1     -10.122  10.498  68.344  1.00  0.00    -0.164 C  
ENDBRANCH  14  19
BRANCH  17  21
HETATM   21  S   UNL     1      -8.011   5.609  64.189  1.00  0.00    -0.123 S  
HETATM   22  O   UNL     1      -7.114   4.587  64.672  1.00  0.00    -0.059 OA 
HETATM   23  N   UNL     1      -9.487   4.858  63.936  1.00  0.00    -0.350 N  
HETATM   24  O   UNL     1      -7.746   6.378  62.994  1.00  0.00    -0.079 OA 
HETATM   25  H1  UNL     1      -9.269   4.218  63.172  1.00  0.00     0.000 HD 
HETATM   26  H2  UNL     1     -10.373   5.002  64.419  1.00  0.00     0.000 HD 
ENDBRANCH  17  21
ENDBRANCH  10  13
ENDBRANCH   8   9
ENDBRANCH   7   8
ENDBRANCH   2   3
TORSDOF 6
ENDMDL
MODEL      220
REMARK 921   NORMALIZED FREE ENERGY PREDICTED BY IDOCK:   -3.26 KCAL/MOL
REMARK 922        TOTAL FREE ENERGY PREDICTED BY IDOCK:   -5.48 KCAL/MOL
REMARK 923 INTER-LIGAND FREE ENERGY PREDICTED BY IDOCK:   -4.76 KCAL/MOL
REMARK 924 INTRA-LIGAND FREE ENERGY PREDICTED BY IDOCK:   -0.72 KCAL/MOL
REMARK 927      BINDING AFFINITY PREDICTED BY RF-SCORE:    0.00 PKD
ROOT
HETATM    1  C   UNL     1     -14.311   8.357  71.623  1.00  0.00    -0.536 C  
HETATM    2  C   UNL     1     -12.894   8.819  71.952  1.00  0.00    -0.375 C  
ENDROOT
BRANCH   2   3
HETATM    3  N   UNL     1     -11.991   8.764  70.791  1.00  0.00    -0.198 NA 
HETATM    4  C   UNL     1     -11.163   9.968  70.673  1.00  0.00    -0.350 C  
HETATM    5  C   UNL     1     -10.054   9.520  69.746  1.00  0.00    -0.238 C  
HETATM    6  C   UNL     1      -9.758   8.105  70.208  1.00  0.00    -0.175 C  
HETATM    7  C   UNL     1     -11.047   7.619  70.888  1.00  0.00    -0.263 C  
BRANCH   7   8
HETATM    8  C   UNL     1     -11.613   6.350  70.209  1.00  0.00    -0.383 C  
BRANCH   8   9
HETATM    9  N   UNL     1     -10.654   5.647  69.364  1.00  0.00    -0.297 N  
HETATM   10  C   UNL     1     -10.569   5.874  67.999  1.00  0.00    -0.252 C  
HETATM   11  H   UNL     1     -10.026   4.966  69.790  1.00  0.00     0.000 HD 
HETATM   12  O   UNL     1     -11.326   6.648  67.426  1.00  0.00    -0.299 OA 
BRANCH  10  13
HETATM   13  C   UNL     1      -9.514   5.098  67.258  1.00  0.00    -0.141 A  
HETATM   14  C   UNL     1      -8.184   5.021  67.734  1.00  0.00    -0.098 A  
HETATM   15  C   UNL     1      -7.232   4.297  66.998  1.00  0.00    -0.068 A  
HETATM   16  C   UNL     1      -9.848   4.476  66.040  1.00  0.00    -0.240 A  
HETATM   17  C   UNL     1      -8.883   3.756  65.331  1.00  0.00    -0.121 A  
HETATM   18  C   UNL     1      -7.575   3.667  65.802  1.00  0.00    -0.078 A  
BRANCH  14  19
HETATM   19  O   UNL     1      -7.889   5.643  68.918  1.00  0.00    -0.093 OA 
HETATM   20  C   UNL     1      -6.628   6.290  69.040  1.00  0.00    -0.048 C  
ENDBRANCH  14  19
BRANCH  17  21
HETATM   21  S   UNL     1      -9.295   3.008  63.780  1.00  0.00    -0.109 S  
HETATM   22  O   UNL     1     -10.681   3.275  63.481  1.00  0.00    -0.238 OA 
HETATM   23  N   UNL     1      -8.396   3.925  62.705  1.00  0.00    -0.080 N  
HETATM   24  O   UNL     1      -8.731   1.677  63.737  1.00  0.00    -0.080 OA 
HETATM   25  H1  UNL     1      -8.633   3.494  61.812  1.00  0.00     0.000 HD 
HETATM   26  H2  UNL     1      -7.773   4.710  62.894  1.00  0.00     0.000 HD 
ENDBRANCH  17  21
ENDBRANCH  10  13
ENDBRANCH   8   9
ENDBRANCH   7   8
ENDBRANCH   2   3
TORSDOF 6
ENDMDL
MODEL      221
REMARK 921   NORMALIZED FREE ENERGY PREDICTED BY IDOCK:   -3.26 KCAL/MOL
REMARK 922        TOTAL FREE ENERGY PREDICTED BY IDOCK:   -5.48 KCAL/MOL
REMARK 923 INTER-LIGAND FREE ENERGY PREDICTED BY IDOCK:   -4.44 KCAL/MOL
REMARK 924 INTRA-LIGAND FREE ENERGY PREDICTED BY IDOCK:   -1.04 KCAL/MOL
REMARK 927      BINDING AFFINITY PREDICTED BY RF-SCORE:    0.00 PKD
ROOT
HETATM    1  C   UNL     1      -6.810  12.015  67.865  1.00  0.00    -0.087 C  
HETATM    2  C   UNL     1      -8.290  11.667  67.995  1.00  0.00    -0.148 C  
ENDROOT
BRANCH   2   3
HETATM    3  N   UNL     1      -8.518  10.389  68.686  1.00  0.00    -0.121 NA 
HETATM    4  C   UNL     1      -7.625  10.210  69.835  1.00  0.00    -0.166 C  
HETATM    5  C   UNL     1      -8.311   9.114  70.622  1.00  0.00    -0.239 C  
HETATM    6  C   UNL     1      -9.782   9.461  70.504  1.00  0.00    -0.331 C  
HETATM    7  C   UNL     1      -9.904  10.295  69.218  1.00  0.00    -0.228 C  
BRANCH   7   8
HETATM    8  C   UNL     1     -10.868   9.645  68.199  1.00  0.00    -0.190 C  
BRANCH   8   9
HETATM    9  N   UNL     1     -10.717   8.200  68.072  1.00  0.00    -0.441 N  
HETATM   10  C   UNL     1      -9.914   7.625  67.099  1.00  0.00    -0.229 C  
HETATM   11  H   UNL     1     -11.218   7.592  68.720  1.00  0.00     0.000 HD 
HETATM   12  O   UNL     1      -9.323   8.302  66.268  1.00  0.00    -0.191 OA 
BRANCH  10  13
HETATM   13  C   UNL     1      -9.831   6.122  67.105  1.00  0.00    -0.169 A  
HETATM   14  C   UNL     1      -9.674   5.397  68.309  1.00  0.00    -0.135 A  
HETATM   15  C   UNL     1      -9.586   3.995  68.261  1.00  0.00    -0.188 A  
HETATM   16  C   UNL     1      -9.863   5.428  65.881  1.00  0.00    -0.072 A  
HETATM   17  C   UNL     1      -9.780   4.033  65.861  1.00  0.00    -0.188 A  
HETATM   18  C   UNL     1      -9.638   3.314  67.045  1.00  0.00    -0.077 A  
BRANCH  14  19
HETATM   19  O   UNL     1      -9.639   6.101  69.483  1.00  0.00    -0.141 OA 
HETATM   20  C   UNL     1     -10.228   5.513  70.637  1.00  0.00    -0.240 C  
ENDBRANCH  14  19
BRANCH  17  21
HETATM   21  S   UNL     1      -9.782   3.165  64.318  1.00  0.00    -0.154 S  
HETATM   22  O   UNL     1      -8.547   3.438  63.622  1.00  0.00    -0.090 OA 
HETATM   23  N   UNL     1      -9.696   1.569  64.821  1.00  0.00    -0.323 N  
HETATM   24  O   UNL     1     -11.077   3.317  63.696  1.00  0.00    -0.291 OA 
HETATM   25  H1  UNL     1      -9.696   1.069  63.932  1.00  0.00     0.000 HD 
HETATM   26  H2  UNL     1      -9.654   1.195  65.768  1.00  0.00     0.000 HD 
ENDBRANCH  17  21
ENDBRANCH  10  13
ENDBRANCH   8   9
ENDBRANCH   7   8
ENDBRANCH   2   3
TORSDOF 6
ENDMDL
MODEL      222
REMARK 921   NORMALIZED FREE ENERGY PREDICTED BY IDOCK:   -3.23 KCAL/MOL
REMARK 922        TOTAL FREE ENERGY PREDICTED BY IDOCK:   -5.44 KCAL/MOL
REMARK 923 INTER-LIGAND FREE ENERGY PREDICTED BY IDOCK:   -4.66 KCAL/MOL
REMARK 924 INTRA-LIGAND FREE ENERGY PREDICTED BY IDOCK:   -0.78 KCAL/MOL
REMARK 927      BINDING AFFINITY PREDICTED BY RF-SCORE:    0.00 PKD
ROOT
HETATM    1  C   UNL     1     -11.361  10.841  70.144  1.00  0.00    -0.390 C  
HETATM    2  C   UNL     1     -11.659   9.358  70.345  1.00  0.00    -0.192 C  
ENDROOT
BRANCH   2   3
HETATM    3  N   UNL     1     -10.827   8.744  71.392  1.00  0.00    -0.264 NA 
HETATM    4  C   UNL     1     -11.622   8.284  72.535  1.00  0.00    -0.385 C  
HETATM    5  C   UNL     1     -10.678   7.327  73.232  1.00  0.00    -0.428 C  
HETATM    6  C   UNL     1     -10.002   6.599  72.086  1.00  0.00    -0.173 C  
HETATM    7  C   UNL     1     -10.102   7.550  70.882  1.00  0.00    -0.191 C  
BRANCH   7   8
HETATM    8  C   UNL     1      -8.709   7.920  70.323  1.00  0.00    -0.138 C  
BRANCH   8   9
HETATM    9  N   UNL     1      -8.375   7.260  69.065  1.00  0.00    -0.125 N  
HETATM   10  C   UNL     1      -8.705   7.807  67.836  1.00  0.00    -0.124 C  
HETATM   11  H   UNL     1      -7.882   6.367  69.092  1.00  0.00     0.000 HD 
HETATM   12  O   UNL     1      -9.334   8.854  67.743  1.00  0.00    -0.139 OA 
BRANCH  10  13
HETATM   13  C   UNL     1      -8.272   7.030  66.622  1.00  0.00    -0.112 A  
HETATM   14  C   UNL     1      -7.104   7.376  65.903  1.00  0.00    -0.065 A  
HETATM   15  C   UNL     1      -6.750   6.629  64.767  1.00  0.00    -0.046 A  
HETATM   16  C   UNL     1      -9.073   5.966  66.166  1.00  0.00    -0.160 A  
HETATM   17  C   UNL     1      -8.694   5.235  65.037  1.00  0.00    -0.136 A  
HETATM   18  C   UNL     1      -7.539   5.564  64.333  1.00  0.00    -0.074 A  
BRANCH  14  19
HETATM   19  O   UNL     1      -6.349   8.420  66.367  1.00  0.00    -0.055 OA 
HETATM   20  C   UNL     1      -6.318   9.618  65.601  1.00  0.00    -0.069 C  
ENDBRANCH  14  19
BRANCH  17  21
HETATM   21  S   UNL     1      -9.723   3.923  64.442  1.00  0.00    -0.189 S  
HETATM   22  O   UNL     1      -9.413   2.714  65.168  1.00  0.00    -0.131 OA 
HETATM   23  N   UNL     1     -11.239   4.409  64.965  1.00  0.00    -0.928 N  
HETATM   24  O   UNL     1      -9.764   3.976  62.998  1.00  0.00    -0.146 OA 
HETATM   25  H1  UNL     1     -11.832   3.653  64.623  1.00  0.00     0.000 HD 
HETATM   26  H2  UNL     1     -11.501   5.243  65.489  1.00  0.00     0.000 HD 
ENDBRANCH  17  21
ENDBRANCH  10  13
ENDBRANCH   8   9
ENDBRANCH   7   8
ENDBRANCH   2   3
TORSDOF 6
ENDMDL
MODEL      223
REMARK 921   NORMALIZED FREE ENERGY PREDICTED BY IDOCK:   -3.19 KCAL/MOL
REMARK 922        TOTAL FREE ENERGY PREDICTED BY IDOCK:   -5.40 KCAL/MOL
REMARK 923 INTER-LIGAND FREE ENERGY PREDICTED BY IDOCK:   -5.50 KCAL/MOL
REMARK 924 INTRA-LIGAND FREE ENERGY PREDICTED BY IDOCK:    0.11 KCAL/MOL
REMARK 927      BINDING AFFINITY PREDICTED BY RF-SCORE:    0.00 PKD
ROOT
HETATM    1  C   UNL     1      -6.605  11.210  67.917  1.00  0.00    -0.062 C  
HETATM    2  C   UNL     1      -7.976  11.079  68.574  1.00  0.00    -0.137 C  
ENDROOT
BRANCH   2   3
HETATM    3  N   UNL     1      -8.821  12.267  68.378  1.00  0.00    -0.170 NA 
HETATM    4  C   UNL     1      -8.046  13.511  68.411  1.00  0.00    -0.145 C  
HETATM    5  C   UNL     1      -8.985  14.505  67.761  1.00  0.00    -0.190 C  
HETATM    6  C   UNL     1      -9.613  13.712  66.632  1.00  0.00    -0.289 C  
HETATM    7  C   UNL     1      -9.504  12.239  67.057  1.00  0.00    -0.204 C  
BRANCH   7   8
HETATM    8  C   UNL     1     -10.890  11.560  67.142  1.00  0.00    -0.268 C  
BRANCH   8   9
HETATM    9  N   UNL     1     -10.912  10.345  67.949  1.00  0.00    -0.280 N  
HETATM   10  C   UNL     1     -10.572   9.107  67.427  1.00  0.00    -0.244 C  
HETATM   11  H   UNL     1     -11.187  10.408  68.929  1.00  0.00     0.000 HD 
HETATM   12  O   UNL     1     -10.275   8.963  66.248  1.00  0.00    -0.284 OA 
BRANCH  10  13
HETATM   13  C   UNL     1     -10.612   7.946  68.384  1.00  0.00    -0.154 A  
HETATM   14  C   UNL     1     -10.347   6.625  67.954  1.00  0.00    -0.189 A  
HETATM   15  C   UNL     1     -10.412   5.573  68.883  1.00  0.00    -0.282 A  
HETATM   16  C   UNL     1     -10.968   8.175  69.728  1.00  0.00    -0.133 A  
HETATM   17  C   UNL     1     -11.019   7.112  70.632  1.00  0.00    -0.258 A  
HETATM   18  C   UNL     1     -10.746   5.812  70.215  1.00  0.00    -0.380 A  
BRANCH  14  19
HETATM   19  O   UNL     1     -10.010   6.433  66.640  1.00  0.00    -0.171 OA 
HETATM   20  C   UNL     1     -10.167   5.131  66.090  1.00  0.00    -0.222 C  
ENDBRANCH  14  19
BRANCH  17  21
HETATM   21  S   UNL     1     -11.505   7.397  72.311  1.00  0.00    -0.295 S  
HETATM   22  O   UNL     1     -12.493   8.448  72.344  1.00  0.00    -0.359 OA 
HETATM   23  N   UNL     1     -12.314   5.978  72.681  1.00  0.00    -0.524 N  
HETATM   24  O   UNL     1     -10.324   7.411  73.145  1.00  0.00    -0.263 OA 
HETATM   25  H1  UNL     1     -12.594   6.142  73.648  1.00  0.00     0.000 HD 
HETATM   26  H2  UNL     1     -12.483   5.162  72.093  1.00  0.00     0.000 HD 
ENDBRANCH  17  21
ENDBRANCH  10  13
ENDBRANCH   8   9
ENDBRANCH   7   8
ENDBRANCH   2   3
TORSDOF 6
ENDMDL
MODEL      224
REMARK 921   NORMALIZED FREE ENERGY PREDICTED BY IDOCK:   -3.19 KCAL/MOL
REMARK 922        TOTAL FREE ENERGY PREDICTED BY IDOCK:   -5.39 KCAL/MOL
REMARK 923 INTER-LIGAND FREE ENERGY PREDICTED BY IDOCK:   -4.64 KCAL/MOL
REMARK 924 INTRA-LIGAND FREE ENERGY PREDICTED BY IDOCK:   -0.75 KCAL/MOL
REMARK 927      BINDING AFFINITY PREDICTED BY RF-SCORE:    0.00 PKD
ROOT
HETATM    1  C   UNL     1      -5.834  16.108  69.235  1.00  0.00    -0.130 C  
HETATM    2  C   UNL     1      -7.211  15.451  69.288  1.00  0.00    -0.186 C  
ENDROOT
BRANCH   2   3
HETATM    3  N   UNL     1      -8.242  16.229  68.583  1.00  0.00    -0.202 NA 
HETATM    4  C   UNL     1      -7.777  17.572  68.223  1.00  0.00    -0.247 C  
HETATM    5  C   UNL     1      -8.771  17.995  67.163  1.00  0.00    -0.247 C  
HETATM    6  C   UNL     1      -8.990  16.729  66.357  1.00  0.00    -0.325 C  
HETATM    7  C   UNL     1      -8.644  15.573  67.309  1.00  0.00    -0.193 C  
BRANCH   7   8
HETATM    8  C   UNL     1      -9.841  14.615  67.510  1.00  0.00    -0.218 C  
BRANCH   8   9
HETATM    9  N   UNL     1      -9.478  13.313  68.059  1.00  0.00    -0.213 N  
HETATM   10  C   UNL     1     -10.171  12.157  67.734  1.00  0.00    -0.201 C  
HETATM   11  H   UNL     1      -8.689  13.250  68.702  1.00  0.00     0.000 HD 
HETATM   12  O   UNL     1     -11.151  12.177  67.001  1.00  0.00    -0.262 OA 
BRANCH  10  13
HETATM   13  C   UNL     1      -9.666  10.881  68.352  1.00  0.00    -0.179 A  
HETATM   14  C   UNL     1      -8.524  10.217  67.846  1.00  0.00    -0.118 A  
HETATM   15  C   UNL     1      -8.102   9.020  68.449  1.00  0.00    -0.108 A  
HETATM   16  C   UNL     1     -10.375  10.312  69.428  1.00  0.00    -0.256 A  
HETATM   17  C   UNL     1      -9.930   9.124  70.013  1.00  0.00    -0.199 A  
HETATM   18  C   UNL     1      -8.799   8.474  69.526  1.00  0.00    -0.141 A  
BRANCH  14  19
HETATM   19  O   UNL     1      -7.860  10.791  66.795  1.00  0.00    -0.123 OA 
HETATM   20  C   UNL     1      -7.684  10.023  65.612  1.00  0.00    -0.136 C  
ENDBRANCH  14  19
BRANCH  17  21
HETATM   21  S   UNL     1     -10.844   8.390  71.339  1.00  0.00    -0.261 S  
HETATM   22  O   UNL     1     -10.366   8.922  72.593  1.00  0.00    -0.066 OA 
HETATM   23  N   UNL     1     -12.371   9.038  71.105  1.00  0.00    -0.395 N  
HETATM   24  O   UNL     1     -10.971   6.972  71.093  1.00  0.00    -0.238 OA 
HETATM   25  H1  UNL     1     -12.898   8.615  71.869  1.00  0.00     0.000 HD 
HETATM   26  H2  UNL     1     -12.691   9.686  70.386  1.00  0.00     0.000 HD 
ENDBRANCH  17  21
ENDBRANCH  10  13
ENDBRANCH   8   9
ENDBRANCH   7   8
ENDBRANCH   2   3
TORSDOF 6
ENDMDL
MODEL      225
REMARK 921   NORMALIZED FREE ENERGY PREDICTED BY IDOCK:   -3.18 KCAL/MOL
REMARK 922        TOTAL FREE ENERGY PREDICTED BY IDOCK:   -5.38 KCAL/MOL
REMARK 923 INTER-LIGAND FREE ENERGY PREDICTED BY IDOCK:   -4.64 KCAL/MOL
REMARK 924 INTRA-LIGAND FREE ENERGY PREDICTED BY IDOCK:   -0.74 KCAL/MOL
REMARK 927      BINDING AFFINITY PREDICTED BY RF-SCORE:    0.00 PKD
ROOT
HETATM    1  C   UNL     1      -6.572   4.917  72.002  1.00  0.00    -0.039 C  
HETATM    2  C   UNL     1      -7.463   6.061  71.527  1.00  0.00    -0.094 C  
ENDROOT
BRANCH   2   3
HETATM    3  N   UNL     1      -8.875   5.669  71.395  1.00  0.00    -0.135 NA 
HETATM    4  C   UNL     1      -9.353   4.910  72.555  1.00  0.00    -0.135 C  
HETATM    5  C   UNL     1     -10.857   5.011  72.422  1.00  0.00    -0.234 C  
HETATM    6  C   UNL     1     -11.076   6.440  71.963  1.00  0.00    -0.306 C  
HETATM    7  C   UNL     1      -9.763   6.857  71.281  1.00  0.00    -0.172 C  
BRANCH   7   8
HETATM    8  C   UNL     1      -9.985   7.268  69.807  1.00  0.00    -0.183 C  
BRANCH   8   9
HETATM    9  N   UNL     1      -9.686   8.669  69.527  1.00  0.00    -0.177 N  
HETATM   10  C   UNL     1     -10.122   9.298  68.371  1.00  0.00    -0.191 C  
HETATM   11  H   UNL     1      -9.139   9.202  70.202  1.00  0.00     0.000 HD 
HETATM   12  O   UNL     1     -10.745   8.697  67.505  1.00  0.00    -0.249 OA 
BRANCH  10  13
HETATM   13  C   UNL     1      -9.764  10.753  68.229  1.00  0.00    -0.172 A  
HETATM   14  C   UNL     1      -8.512  11.157  67.709  1.00  0.00    -0.124 A  
HETATM   15  C   UNL     1      -8.219  12.528  67.611  1.00  0.00    -0.172 A  
HETATM   16  C   UNL     1     -10.678  11.731  68.667  1.00  0.00    -0.252 A  
HETATM   17  C   UNL     1     -10.364  13.087  68.552  1.00  0.00    -0.239 A  
HETATM   18  C   UNL     1      -9.138  13.490  68.029  1.00  0.00    -0.201 A  
BRANCH  14  19
HETATM   19  O   UNL     1      -7.642  10.183  67.298  1.00  0.00    -0.094 OA 
HETATM   20  C   UNL     1      -7.362  10.075  65.908  1.00  0.00    -0.115 C  
ENDBRANCH  14  19
BRANCH  17  21
HETATM   21  S   UNL     1     -11.498  14.314  69.139  1.00  0.00    -0.311 S  
HETATM   22  O   UNL     1     -10.757  15.483  69.550  1.00  0.00    -0.233 OA 
HETATM   23  N   UNL     1     -12.305  14.738  67.734  1.00  0.00    -0.518 N  
HETATM   24  O   UNL     1     -12.480  13.677  69.987  1.00  0.00    -0.293 OA 
HETATM   25  H1  UNL     1     -12.958  15.444  68.073  1.00  0.00     0.000 HD 
HETATM   26  H2  UNL     1     -12.178  14.382  66.787  1.00  0.00     0.000 HD 
ENDBRANCH  17  21
ENDBRANCH  10  13
ENDBRANCH   8   9
ENDBRANCH   7   8
ENDBRANCH   2   3
TORSDOF 6
ENDMDL
MODEL      226
REMARK 921   NORMALIZED FREE ENERGY PREDICTED BY IDOCK:   -3.17 KCAL/MOL
REMARK 922        TOTAL FREE ENERGY PREDICTED BY IDOCK:   -5.36 KCAL/MOL
REMARK 923 INTER-LIGAND FREE ENERGY PREDICTED BY IDOCK:   -4.41 KCAL/MOL
REMARK 924 INTRA-LIGAND FREE ENERGY PREDICTED BY IDOCK:   -0.95 KCAL/MOL
REMARK 927      BINDING AFFINITY PREDICTED BY RF-SCORE:    0.00 PKD
ROOT
HETATM    1  C   UNL     1     -13.575   7.828  71.377  1.00  0.00    -0.334 C  
HETATM    2  C   UNL     1     -12.704   6.608  71.668  1.00  0.00    -0.228 C  
ENDROOT
BRANCH   2   3
HETATM    3  N   UNL     1     -11.276   6.942  71.788  1.00  0.00    -0.243 NA 
HETATM    4  C   UNL     1     -11.030   7.984  72.789  1.00  0.00    -0.382 C  
HETATM    5  C   UNL     1      -9.548   7.842  73.061  1.00  0.00    -0.320 C  
HETATM    6  C   UNL     1      -9.331   6.341  73.060  1.00  0.00    -0.140 C  
HETATM    7  C   UNL     1     -10.474   5.763  72.211  1.00  0.00    -0.209 C  
BRANCH   7   8
HETATM    8  C   UNL     1      -9.942   4.965  70.997  1.00  0.00    -0.212 C  
BRANCH   8   9
HETATM    9  N   UNL     1      -9.916   5.721  69.750  1.00  0.00    -0.176 N  
HETATM   10  C   UNL     1      -8.764   6.333  69.283  1.00  0.00    -0.124 C  
HETATM   11  H   UNL     1     -10.774   5.802  69.204  1.00  0.00     0.000 HD 
HETATM   12  O   UNL     1      -7.717   6.306  69.917  1.00  0.00    -0.099 OA 
BRANCH  10  13
HETATM   13  C   UNL     1      -8.879   7.054  67.967  1.00  0.00    -0.124 A  
HETATM   14  C   UNL     1      -8.355   6.502  66.775  1.00  0.00    -0.111 A  
HETATM   15  C   UNL     1      -8.473   7.222  65.574  1.00  0.00    -0.119 A  
HETATM   16  C   UNL     1      -9.479   8.328  67.932  1.00  0.00    -0.163 A  
HETATM   17  C   UNL     1      -9.590   9.019  66.723  1.00  0.00    -0.200 A  
HETATM   18  C   UNL     1      -9.086   8.474  65.545  1.00  0.00    -0.150 A  
BRANCH  14  19
HETATM   19  O   UNL     1      -7.770   5.266  66.842  1.00  0.00    -0.094 OA 
HETATM   20  C   UNL     1      -6.664   4.998  65.990  1.00  0.00    -0.053 C  
ENDBRANCH  14  19
BRANCH  17  21
HETATM   21  S   UNL     1     -10.309  10.637  66.687  1.00  0.00    -0.234 S  
HETATM   22  O   UNL     1     -11.182  10.790  67.827  1.00  0.00    -0.297 OA 
HETATM   23  N   UNL     1      -8.979  11.612  66.979  1.00  0.00    -0.176 N  
HETATM   24  O   UNL     1     -10.731  10.933  65.337  1.00  0.00    -0.219 OA 
HETATM   25  H1  UNL     1      -9.393  12.544  66.959  1.00  0.00     0.000 HD 
HETATM   26  H2  UNL     1      -8.008  11.344  67.136  1.00  0.00     0.000 HD 
ENDBRANCH  17  21
ENDBRANCH  10  13
ENDBRANCH   8   9
ENDBRANCH   7   8
ENDBRANCH   2   3
TORSDOF 6
ENDMDL
MODEL      227
REMARK 921   NORMALIZED FREE ENERGY PREDICTED BY IDOCK:   -3.16 KCAL/MOL
REMARK 922        TOTAL FREE ENERGY PREDICTED BY IDOCK:   -5.36 KCAL/MOL
REMARK 923 INTER-LIGAND FREE ENERGY PREDICTED BY IDOCK:   -4.54 KCAL/MOL
REMARK 924 INTRA-LIGAND FREE ENERGY PREDICTED BY IDOCK:   -0.81 KCAL/MOL
REMARK 927      BINDING AFFINITY PREDICTED BY RF-SCORE:    0.00 PKD
ROOT
HETATM    1  C   UNL     1      -5.719  10.876  66.450  1.00  0.00    -0.115 C  
HETATM    2  C   UNL     1      -6.882  10.781  67.434  1.00  0.00    -0.078 C  
ENDROOT
BRANCH   2   3
HETATM    3  N   UNL     1      -7.341  12.096  67.906  1.00  0.00    -0.098 NA 
HETATM    4  C   UNL     1      -6.627  13.200  67.257  1.00  0.00     0.057 C  
HETATM    5  C   UNL     1      -7.528  14.385  67.529  1.00  0.00    -0.206 C  
HETATM    6  C   UNL     1      -8.923  13.816  67.355  1.00  0.00    -0.224 C  
HETATM    7  C   UNL     1      -8.784  12.307  67.614  1.00  0.00    -0.175 C  
BRANCH   7   8
HETATM    8  C   UNL     1      -9.681  11.839  68.783  1.00  0.00    -0.067 C  
BRANCH   8   9
HETATM    9  N   UNL     1      -9.781  10.390  68.916  1.00  0.00    -0.188 N  
HETATM   10  C   UNL     1     -10.684   9.643  68.175  1.00  0.00    -0.217 C  
HETATM   11  H   UNL     1      -9.168   9.910  69.575  1.00  0.00     0.000 HD 
HETATM   12  O   UNL     1     -11.474  10.167  67.401  1.00  0.00    -0.212 OA 
BRANCH  10  13
HETATM   13  C   UNL     1     -10.656   8.154  68.395  1.00  0.00    -0.148 A  
HETATM   14  C   UNL     1     -10.899   7.592  69.670  1.00  0.00    -0.202 A  
HETATM   15  C   UNL     1     -10.846   6.196  69.827  1.00  0.00    -0.421 A  
HETATM   16  C   UNL     1     -10.334   7.307  67.317  1.00  0.00    -0.349 A  
HETATM   17  C   UNL     1     -10.295   5.922  67.500  1.00  0.00    -0.215 A  
HETATM   18  C   UNL     1     -10.545   5.363  68.750  1.00  0.00    -0.179 A  
BRANCH  14  19
HETATM   19  O   UNL     1     -11.202   8.442  70.700  1.00  0.00    -0.256 OA 
HETATM   20  C   UNL     1     -12.346   8.154  71.494  1.00  0.00    -0.306 C  
ENDBRANCH  14  19
BRANCH  17  21
HETATM   21  S   UNL     1      -9.852   4.861  66.153  1.00  0.00    -0.228 S  
HETATM   22  O   UNL     1      -8.615   5.327  65.573  1.00  0.00    -0.135 OA 
HETATM   23  N   UNL     1      -9.490   3.431  66.946  1.00  0.00    -0.327 N  
HETATM   24  O   UNL     1     -11.031   4.591  65.361  1.00  0.00    -0.256 OA 
HETATM   25  H1  UNL     1      -9.235   2.819  66.170  1.00  0.00     0.000 HD 
HETATM   26  H2  UNL     1      -9.518   3.224  67.944  1.00  0.00     0.000 HD 
ENDBRANCH  17  21
ENDBRANCH  10  13
ENDBRANCH   8   9
ENDBRANCH   7   8
ENDBRANCH   2   3
TORSDOF 6
ENDMDL
MODEL      228
REMARK 921   NORMALIZED FREE ENERGY PREDICTED BY IDOCK:   -3.16 KCAL/MOL
REMARK 922        TOTAL FREE ENERGY PREDICTED BY IDOCK:   -5.35 KCAL/MOL
REMARK 923 INTER-LIGAND FREE ENERGY PREDICTED BY IDOCK:   -5.18 KCAL/MOL
REMARK 924 INTRA-LIGAND FREE ENERGY PREDICTED BY IDOCK:   -0.17 KCAL/MOL
REMARK 927      BINDING AFFINITY PREDICTED BY RF-SCORE:    0.00 PKD
ROOT
HETATM    1  C   UNL     1     -11.335   6.268  69.915  1.00  0.00    -0.504 C  
HETATM    2  C   UNL     1     -11.142   6.082  68.412  1.00  0.00    -0.177 C  
ENDROOT
BRANCH   2   3
HETATM    3  N   UNL     1      -9.847   6.591  67.934  1.00  0.00    -0.121 NA 
HETATM    4  C   UNL     1      -9.328   5.816  66.803  1.00  0.00    -0.133 C  
HETATM    5  C   UNL     1      -8.288   6.744  66.214  1.00  0.00    -0.126 C  
HETATM    6  C   UNL     1      -8.935   8.112  66.317  1.00  0.00    -0.215 C  
HETATM    7  C   UNL     1      -9.955   7.997  67.461  1.00  0.00    -0.194 C  
BRANCH   7   8
HETATM    8  C   UNL     1      -9.667   9.008  68.594  1.00  0.00    -0.160 C  
BRANCH   8   9
HETATM    9  N   UNL     1      -9.720  10.405  68.176  1.00  0.00    -0.149 N  
HETATM   10  C   UNL     1      -8.608  11.230  68.221  1.00  0.00    -0.153 C  
HETATM   11  H   UNL     1     -10.604  10.787  67.840  1.00  0.00     0.000 HD 
HETATM   12  O   UNL     1      -7.531  10.840  68.654  1.00  0.00    -0.088 OA 
BRANCH  10  13
HETATM   13  C   UNL     1      -8.804  12.640  67.731  1.00  0.00    -0.179 A  
HETATM   14  C   UNL     1      -8.083  13.722  68.289  1.00  0.00    -0.150 A  
HETATM   15  C   UNL     1      -8.313  15.022  67.808  1.00  0.00    -0.158 A  
HETATM   16  C   UNL     1      -9.760  12.892  66.729  1.00  0.00    -0.246 A  
HETATM   17  C   UNL     1      -9.964  14.194  66.264  1.00  0.00    -0.303 A  
HETATM   18  C   UNL     1      -9.248  15.260  66.802  1.00  0.00    -0.274 A  
BRANCH  14  19
HETATM   19  O   UNL     1      -7.165  13.446  69.267  1.00  0.00    -0.022 OA 
HETATM   20  C   UNL     1      -6.512  14.538  69.903  1.00  0.00    -0.161 C  
ENDBRANCH  14  19
BRANCH  17  21
HETATM   21  S   UNL     1     -11.195  14.514  65.032  1.00  0.00    -0.404 S  
HETATM   22  O   UNL     1     -11.181  13.445  64.062  1.00  0.00    -0.369 OA 
HETATM   23  N   UNL     1     -12.612  14.338  65.906  1.00  0.00    -0.420 N  
HETATM   24  O   UNL     1     -11.130  15.908  64.655  1.00  0.00    -0.476 OA 
HETATM   25  H1  UNL     1     -13.321  14.522  65.197  1.00  0.00     0.000 HD 
HETATM   26  H2  UNL     1     -12.735  14.106  66.892  1.00  0.00     0.000 HD 
ENDBRANCH  17  21
ENDBRANCH  10  13
ENDBRANCH   8   9
ENDBRANCH   7   8
ENDBRANCH   2   3
TORSDOF 6
ENDMDL
MODEL      229
REMARK 921   NORMALIZED FREE ENERGY PREDICTED BY IDOCK:   -3.15 KCAL/MOL
REMARK 922        TOTAL FREE ENERGY PREDICTED BY IDOCK:   -5.34 KCAL/MOL
REMARK 923 INTER-LIGAND FREE ENERGY PREDICTED BY IDOCK:   -4.49 KCAL/MOL
REMARK 924 INTRA-LIGAND FREE ENERGY PREDICTED BY IDOCK:   -0.84 KCAL/MOL
REMARK 927      BINDING AFFINITY PREDICTED BY RF-SCORE:    0.00 PKD
ROOT
HETATM    1  C   UNL     1      -6.356   9.120  69.263  1.00  0.00    -0.041 C  
HETATM    2  C   UNL     1      -7.558   9.574  70.086  1.00  0.00    -0.142 C  
ENDROOT
BRANCH   2   3
HETATM    3  N   UNL     1      -8.786   8.832  69.762  1.00  0.00    -0.129 NA 
HETATM    4  C   UNL     1      -8.598   7.380  69.850  1.00  0.00    -0.140 C  
HETATM    5  C   UNL     1     -10.019   6.865  69.930  1.00  0.00    -0.185 C  
HETATM    6  C   UNL     1     -10.710   7.872  70.830  1.00  0.00    -0.230 C  
HETATM    7  C   UNL     1      -9.889   9.165  70.702  1.00  0.00    -0.249 C  
BRANCH   7   8
HETATM    8  C   UNL     1     -10.748  10.342  70.185  1.00  0.00    -0.233 C  
BRANCH   8   9
HETATM    9  N   UNL     1     -10.713  10.517  68.737  1.00  0.00    -0.202 N  
HETATM   10  C   UNL     1     -10.019  11.556  68.137  1.00  0.00    -0.192 C  
HETATM   11  H   UNL     1     -11.215   9.854  68.147  1.00  0.00     0.000 HD 
HETATM   12  O   UNL     1      -9.434  12.407  68.795  1.00  0.00    -0.064 OA 
BRANCH  10  13
HETATM   13  C   UNL     1     -10.047  11.595  66.633  1.00  0.00    -0.238 A  
HETATM   14  C   UNL     1      -8.908  11.257  65.865  1.00  0.00    -0.169 A  
HETATM   15  C   UNL     1      -8.980  11.324  64.463  1.00  0.00     0.085 A  
HETATM   16  C   UNL     1     -11.219  12.023  65.978  1.00  0.00    -0.385 A  
HETATM   17  C   UNL     1     -11.265  12.073  64.583  1.00  0.00    -0.326 A  
HETATM   18  C   UNL     1     -10.150  11.730  63.822  1.00  0.00    -0.421 A  
BRANCH  14  19
HETATM   19  O   UNL     1      -7.782  10.853  66.530  1.00  0.00    -0.138 OA 
HETATM   20  C   UNL     1      -6.708  10.315  65.768  1.00  0.00    -0.120 C  
ENDBRANCH  14  19
BRANCH  17  21
HETATM   21  S   UNL     1     -12.726  12.648  63.763  1.00  0.00    -0.158 S  
HETATM   22  O   UNL     1     -12.417  13.862  63.046  1.00  0.00    -0.689 OA 
HETATM   23  N   UNL     1     -12.959  11.463  62.603  1.00  0.00    -0.379 N  
HETATM   24  O   UNL     1     -13.845  12.543  64.672  1.00  0.00     0.249 OA 
HETATM   25  H1  UNL     1     -13.801  11.794  62.131  1.00  0.00     0.000 HD 
HETATM   26  H2  UNL     1     -12.405  10.627  62.418  1.00  0.00     0.000 HD 
ENDBRANCH  17  21
ENDBRANCH  10  13
ENDBRANCH   8   9
ENDBRANCH   7   8
ENDBRANCH   2   3
TORSDOF 6
ENDMDL
MODEL      230
REMARK 921   NORMALIZED FREE ENERGY PREDICTED BY IDOCK:   -3.12 KCAL/MOL
REMARK 922        TOTAL FREE ENERGY PREDICTED BY IDOCK:   -5.30 KCAL/MOL
REMARK 923 INTER-LIGAND FREE ENERGY PREDICTED BY IDOCK:   -5.28 KCAL/MOL
REMARK 924 INTRA-LIGAND FREE ENERGY PREDICTED BY IDOCK:   -0.02 KCAL/MOL
REMARK 927      BINDING AFFINITY PREDICTED BY RF-SCORE:    0.00 PKD
ROOT
HETATM    1  C   UNL     1     -11.808  11.089  70.573  1.00  0.00    -0.464 C  
HETATM    2  C   UNL     1     -12.459   9.710  70.524  1.00  0.00     0.002 C  
ENDROOT
BRANCH   2   3
HETATM    3  N   UNL     1     -11.610   8.657  71.105  1.00  0.00    -0.274 NA 
HETATM    4  C   UNL     1     -11.850   8.478  72.540  1.00  0.00    -0.328 C  
HETATM    5  C   UNL     1     -11.247   7.116  72.810  1.00  0.00    -0.314 C  
HETATM    6  C   UNL     1     -11.642   6.306  71.590  1.00  0.00    -0.353 C  
HETATM    7  C   UNL     1     -11.870   7.336  70.472  1.00  0.00    -0.199 C  
BRANCH   7   8
HETATM    8  C   UNL     1     -10.943   7.087  69.261  1.00  0.00    -0.178 C  
BRANCH   8   9
HETATM    9  N   UNL     1     -10.543   8.299  68.555  1.00  0.00    -0.374 N  
HETATM   10  C   UNL     1      -9.301   8.885  68.742  1.00  0.00    -0.137 C  
HETATM   11  H   UNL     1     -11.198   8.730  67.903  1.00  0.00     0.000 HD 
HETATM   12  O   UNL     1      -8.490   8.438  69.543  1.00  0.00    -0.121 OA 
BRANCH  10  13
HETATM   13  C   UNL     1      -9.015  10.116  67.925  1.00  0.00    -0.128 A  
HETATM   14  C   UNL     1      -7.814  10.846  68.086  1.00  0.00    -0.114 A  
HETATM   15  C   UNL     1      -7.600  11.998  67.310  1.00  0.00    -0.157 A  
HETATM   16  C   UNL     1      -9.985  10.577  67.014  1.00  0.00    -0.244 A  
HETATM   17  C   UNL     1      -9.744  11.721  66.250  1.00  0.00    -0.222 A  
HETATM   18  C   UNL     1      -8.559  12.436  66.397  1.00  0.00     0.076 A  
BRANCH  14  19
HETATM   19  O   UNL     1      -6.893  10.378  68.984  1.00  0.00    -0.057 OA 
HETATM   20  C   UNL     1      -6.260  11.314  69.848  1.00  0.00    -0.137 C  
ENDBRANCH  14  19
BRANCH  17  21
HETATM   21  S   UNL     1     -10.982  12.321  65.134  1.00  0.00    -0.313 S  
HETATM   22  O   UNL     1     -11.921  13.138  65.865  1.00  0.00    -0.383 OA 
HETATM   23  N   UNL     1     -10.099  13.367  64.170  1.00  0.00    -0.607 N  
HETATM   24  O   UNL     1     -11.398  11.239  64.271  1.00  0.00    -0.250 OA 
HETATM   25  H1  UNL     1     -10.811  13.713  63.527  1.00  0.00     0.000 HD 
HETATM   26  H2  UNL     1      -9.106  13.599  64.214  1.00  0.00     0.000 HD 
ENDBRANCH  17  21
ENDBRANCH  10  13
ENDBRANCH   8   9
ENDBRANCH   7   8
ENDBRANCH   2   3
TORSDOF 6
ENDMDL
MODEL      231
REMARK 921   NORMALIZED FREE ENERGY PREDICTED BY IDOCK:   -3.11 KCAL/MOL
REMARK 922        TOTAL FREE ENERGY PREDICTED BY IDOCK:   -5.28 KCAL/MOL
REMARK 923 INTER-LIGAND FREE ENERGY PREDICTED BY IDOCK:   -4.63 KCAL/MOL
REMARK 924 INTRA-LIGAND FREE ENERGY PREDICTED BY IDOCK:   -0.66 KCAL/MOL
REMARK 927      BINDING AFFINITY PREDICTED BY RF-SCORE:    0.00 PKD
ROOT
HETATM    1  C   UNL     1      -6.477  11.765  67.484  1.00  0.00    -0.095 C  
HETATM    2  C   UNL     1      -7.823  11.823  68.201  1.00  0.00    -0.135 C  
ENDROOT
BRANCH   2   3
HETATM    3  N   UNL     1      -8.576  13.051  67.903  1.00  0.00    -0.177 NA 
HETATM    4  C   UNL     1      -7.722  14.107  67.352  1.00  0.00    -0.169 C  
HETATM    5  C   UNL     1      -8.725  15.052  66.724  1.00  0.00    -0.293 C  
HETATM    6  C   UNL     1      -9.745  14.120  66.099  1.00  0.00    -0.310 C  
HETATM    7  C   UNL     1      -9.640  12.808  66.893  1.00  0.00    -0.235 C  
BRANCH   7   8
HETATM    8  C   UNL     1     -10.984  12.426  67.555  1.00  0.00    -0.252 C  
BRANCH   8   9
HETATM    9  N   UNL     1     -10.854  11.534  68.702  1.00  0.00    -0.200 N  
HETATM   10  C   UNL     1     -10.850  10.155  68.566  1.00  0.00    -0.237 C  
HETATM   11  H   UNL     1     -10.762  11.937  69.634  1.00  0.00     0.000 HD 
HETATM   12  O   UNL     1     -10.999   9.613  67.477  1.00  0.00    -0.260 OA 
BRANCH  10  13
HETATM   13  C   UNL     1     -10.679   9.360  69.832  1.00  0.00    -0.258 A  
HETATM   14  C   UNL     1     -11.454   9.631  70.984  1.00  0.00    -0.371 A  
HETATM   15  C   UNL     1     -11.245   8.871  72.147  1.00  0.00    -0.362 A  
HETATM   16  C   UNL     1      -9.692   8.357  69.885  1.00  0.00    -0.179 A  
HETATM   17  C   UNL     1      -9.509   7.611  71.053  1.00  0.00    -0.159 A  
HETATM   18  C   UNL     1     -10.279   7.866  72.185  1.00  0.00    -0.286 A  
BRANCH  14  19
HETATM   19  O   UNL     1     -12.400  10.617  70.904  1.00  0.00    -0.331 OA 
HETATM   20  C   UNL     1     -13.739  10.293  71.255  1.00  0.00     0.100 C  
ENDBRANCH  14  19
BRANCH  17  21
HETATM   21  S   UNL     1      -8.242   6.377  71.130  1.00  0.00    -0.123 S  
HETATM   22  O   UNL     1      -7.154   6.764  70.264  1.00  0.00    -0.067 OA 
HETATM   23  N   UNL     1      -7.682   6.555  72.698  1.00  0.00    -0.102 N  
HETATM   24  O   UNL     1      -8.856   5.070  71.072  1.00  0.00    -0.126 OA 
HETATM   25  H1  UNL     1      -6.952   5.845  72.743  1.00  0.00     0.000 HD 
HETATM   26  H2  UNL     1      -7.991   7.205  73.421  1.00  0.00     0.000 HD 
ENDBRANCH  17  21
ENDBRANCH  10  13
ENDBRANCH   8   9
ENDBRANCH   7   8
ENDBRANCH   2   3
TORSDOF 6
ENDMDL
MODEL      232
REMARK 921   NORMALIZED FREE ENERGY PREDICTED BY IDOCK:   -3.11 KCAL/MOL
REMARK 922        TOTAL FREE ENERGY PREDICTED BY IDOCK:   -5.28 KCAL/MOL
REMARK 923 INTER-LIGAND FREE ENERGY PREDICTED BY IDOCK:   -4.44 KCAL/MOL
REMARK 924 INTRA-LIGAND FREE ENERGY PREDICTED BY IDOCK:   -0.84 KCAL/MOL
REMARK 927      BINDING AFFINITY PREDICTED BY RF-SCORE:    0.00 PKD
ROOT
HETATM    1  C   UNL     1     -14.399   7.724  71.664  1.00  0.00    -0.607 C  
HETATM    2  C   UNL     1     -13.282   6.701  71.476  1.00  0.00     0.002 C  
ENDROOT
BRANCH   2   3
HETATM    3  N   UNL     1     -11.953   7.322  71.361  1.00  0.00    -0.303 NA 
HETATM    4  C   UNL     1     -11.977   8.752  71.686  1.00  0.00    -0.332 C  
HETATM    5  C   UNL     1     -10.517   9.059  71.942  1.00  0.00    -0.373 C  
HETATM    6  C   UNL     1     -10.025   7.838  72.695  1.00  0.00    -0.298 C  
HETATM    7  C   UNL     1     -10.977   6.700  72.295  1.00  0.00    -0.246 C  
BRANCH   7   8
HETATM    8  C   UNL     1     -10.223   5.522  71.637  1.00  0.00    -0.209 C  
BRANCH   8   9
HETATM    9  N   UNL     1      -9.976   5.694  70.209  1.00  0.00    -0.192 N  
HETATM   10  C   UNL     1      -8.781   5.318  69.617  1.00  0.00    -0.101 C  
HETATM   11  H   UNL     1     -10.707   6.103  69.628  1.00  0.00     0.000 HD 
HETATM   12  O   UNL     1      -7.852   4.861  70.272  1.00  0.00    -0.061 OA 
BRANCH  10  13
HETATM   13  C   UNL     1      -8.678   5.527  68.131  1.00  0.00    -0.102 A  
HETATM   14  C   UNL     1      -8.733   4.440  67.227  1.00  0.00    -0.105 A  
HETATM   15  C   UNL     1      -8.617   4.686  65.848  1.00  0.00    -0.117 A  
HETATM   16  C   UNL     1      -8.475   6.829  67.632  1.00  0.00    -0.122 A  
HETATM   17  C   UNL     1      -8.370   7.046  66.256  1.00  0.00    -0.129 A  
HETATM   18  C   UNL     1      -8.436   5.981  65.362  1.00  0.00    -0.145 A  
BRANCH  14  19
HETATM   19  O   UNL     1      -8.924   3.186  67.742  1.00  0.00    -0.121 OA 
HETATM   20  C   UNL     1      -8.671   2.069  66.899  1.00  0.00    -0.120 C  
ENDBRANCH  14  19
BRANCH  17  21
HETATM   21  S   UNL     1      -8.077   8.678  65.635  1.00  0.00    -0.117 S  
HETATM   22  O   UNL     1      -7.331   8.586  64.402  1.00  0.00    -0.091 OA 
HETATM   23  N   UNL     1      -9.621   9.170  65.215  1.00  0.00    -0.459 N  
HETATM   24  O   UNL     1      -7.670   9.531  66.729  1.00  0.00    -0.097 OA 
HETATM   25  H1  UNL     1      -9.453  10.110  64.857  1.00  0.00     0.000 HD 
HETATM   26  H2  UNL     1     -10.502   8.663  65.296  1.00  0.00     0.000 HD 
ENDBRANCH  17  21
ENDBRANCH  10  13
ENDBRANCH   8   9
ENDBRANCH   7   8
ENDBRANCH   2   3
TORSDOF 6
ENDMDL
MODEL      233
REMARK 921   NORMALIZED FREE ENERGY PREDICTED BY IDOCK:   -3.08 KCAL/MOL
REMARK 922        TOTAL FREE ENERGY PREDICTED BY IDOCK:   -5.25 KCAL/MOL
REMARK 923 INTER-LIGAND FREE ENERGY PREDICTED BY IDOCK:   -4.30 KCAL/MOL
REMARK 924 INTRA-LIGAND FREE ENERGY PREDICTED BY IDOCK:   -0.94 KCAL/MOL
REMARK 927      BINDING AFFINITY PREDICTED BY RF-SCORE:    0.00 PKD
ROOT
HETATM    1  C   UNL     1      -5.133  15.277  70.077  1.00  0.00    -0.100 C  
HETATM    2  C   UNL     1      -6.626  14.989  70.216  1.00  0.00    -0.068 C  
ENDROOT
BRANCH   2   3
HETATM    3  N   UNL     1      -7.433  15.635  69.169  1.00  0.00    -0.184 NA 
HETATM    4  C   UNL     1      -6.716  16.732  68.512  1.00  0.00    -0.161 C  
HETATM    5  C   UNL     1      -7.508  16.930  67.238  1.00  0.00    -0.195 C  
HETATM    6  C   UNL     1      -7.847  15.516  66.808  1.00  0.00    -0.162 C  
HETATM    7  C   UNL     1      -7.801  14.675  68.094  1.00  0.00    -0.128 C  
BRANCH   7   8
HETATM    8  C   UNL     1      -9.154  13.984  68.379  1.00  0.00    -0.191 C  
BRANCH   8   9
HETATM    9  N   UNL     1      -9.034  12.621  68.886  1.00  0.00    -0.364 N  
HETATM   10  C   UNL     1      -9.014  11.521  68.043  1.00  0.00    -0.170 C  
HETATM   11  H   UNL     1      -8.962  12.473  69.892  1.00  0.00     0.000 HD 
HETATM   12  O   UNL     1      -9.140  11.635  66.830  1.00  0.00    -0.176 OA 
BRANCH  10  13
HETATM   13  C   UNL     1      -8.856  10.178  68.703  1.00  0.00    -0.136 A  
HETATM   14  C   UNL     1      -7.857   9.948  69.678  1.00  0.00    -0.154 A  
HETATM   15  C   UNL     1      -7.740   8.672  70.254  1.00  0.00    -0.083 A  
HETATM   16  C   UNL     1      -9.692   9.116  68.307  1.00  0.00    -0.171 A  
HETATM   17  C   UNL     1      -9.559   7.858  68.901  1.00  0.00    -0.155 A  
HETATM   18  C   UNL     1      -8.584   7.630  69.870  1.00  0.00    -0.138 A  
BRANCH  14  19
HETATM   19  O   UNL     1      -7.055  10.998  70.036  1.00  0.00    -0.088 OA 
HETATM   20  C   UNL     1      -5.646  10.812  69.997  1.00  0.00    -0.064 C  
ENDBRANCH  14  19
BRANCH  17  21
HETATM   21  S   UNL     1     -10.584   6.514  68.374  1.00  0.00    -0.274 S  
HETATM   22  O   UNL     1      -9.911   5.269  68.656  1.00  0.00    -0.136 OA 
HETATM   23  N   UNL     1     -11.862   6.612  69.452  1.00  0.00    -0.602 N  
HETATM   24  O   UNL     1     -11.134   6.826  67.074  1.00  0.00    -0.403 OA 
HETATM   25  H1  UNL     1     -12.453   5.838  69.149  1.00  0.00     0.000 HD 
HETATM   26  H2  UNL     1     -12.012   7.274  70.213  1.00  0.00     0.000 HD 
ENDBRANCH  17  21
ENDBRANCH  10  13
ENDBRANCH   8   9
ENDBRANCH   7   8
ENDBRANCH   2   3
TORSDOF 6
ENDMDL
MODEL      234
REMARK 921   NORMALIZED FREE ENERGY PREDICTED BY IDOCK:   -3.03 KCAL/MOL
REMARK 922        TOTAL FREE ENERGY PREDICTED BY IDOCK:   -5.17 KCAL/MOL
REMARK 923 INTER-LIGAND FREE ENERGY PREDICTED BY IDOCK:   -4.25 KCAL/MOL
REMARK 924 INTRA-LIGAND FREE ENERGY PREDICTED BY IDOCK:   -0.93 KCAL/MOL
REMARK 927      BINDING AFFINITY PREDICTED BY RF-SCORE:    0.00 PKD
ROOT
HETATM    1  C   UNL     1     -14.392   7.708  71.659  1.00  0.00    -0.613 C  
HETATM    2  C   UNL     1     -13.335   6.628  71.442  1.00  0.00     0.109 C  
ENDROOT
BRANCH   2   3
HETATM    3  N   UNL     1     -11.975   7.176  71.316  1.00  0.00    -0.318 NA 
HETATM    4  C   UNL     1     -11.909   8.593  71.689  1.00  0.00    -0.323 C  
HETATM    5  C   UNL     1     -10.429   8.807  71.918  1.00  0.00    -0.423 C  
HETATM    6  C   UNL     1      -9.991   7.535  72.617  1.00  0.00    -0.259 C  
HETATM    7  C   UNL     1     -11.016   6.467  72.204  1.00  0.00    -0.249 C  
BRANCH   7   8
HETATM    8  C   UNL     1     -10.346   5.272  71.487  1.00  0.00    -0.221 C  
BRANCH   8   9
HETATM    9  N   UNL     1     -10.098   5.490  70.066  1.00  0.00    -0.219 N  
HETATM   10  C   UNL     1      -8.955   5.022  69.437  1.00  0.00    -0.092 C  
HETATM   11  H   UNL     1     -10.788   6.003  69.517  1.00  0.00     0.000 HD 
HETATM   12  O   UNL     1      -8.073   4.438  70.053  1.00  0.00    -0.059 OA 
BRANCH  10  13
HETATM   13  C   UNL     1      -8.847   5.296  67.961  1.00  0.00    -0.106 A  
HETATM   14  C   UNL     1      -8.450   6.562  67.472  1.00  0.00    -0.120 A  
HETATM   15  C   UNL     1      -8.380   6.772  66.084  1.00  0.00    -0.130 A  
HETATM   16  C   UNL     1      -9.195   4.281  67.048  1.00  0.00    -0.163 A  
HETATM   17  C   UNL     1      -9.110   4.515  65.673  1.00  0.00    -0.140 A  
HETATM   18  C   UNL     1      -8.708   5.756  65.187  1.00  0.00    -0.070 A  
BRANCH  14  19
HETATM   19  O   UNL     1      -8.125   7.530  68.385  1.00  0.00    -0.121 OA 
HETATM   20  C   UNL     1      -8.020   8.873  67.930  1.00  0.00    -0.102 C  
ENDBRANCH  14  19
BRANCH  17  21
HETATM   21  S   UNL     1      -9.585   3.251  64.527  1.00  0.00    -0.152 S  
HETATM   22  O   UNL     1     -10.901   3.550  64.015  1.00  0.00    -0.259 OA 
HETATM   23  N   UNL     1      -8.518   3.514  63.263  1.00  0.00    -0.089 N  
HETATM   24  O   UNL     1      -9.238   1.962  65.080  1.00  0.00    -0.126 OA 
HETATM   25  H1  UNL     1      -8.791   2.786  62.603  1.00  0.00     0.000 HD 
HETATM   26  H2  UNL     1      -7.785   4.217  63.176  1.00  0.00     0.000 HD 
ENDBRANCH  17  21
ENDBRANCH  10  13
ENDBRANCH   8   9
ENDBRANCH   7   8
ENDBRANCH   2   3
TORSDOF 6
ENDMDL
MODEL      235
REMARK 921   NORMALIZED FREE ENERGY PREDICTED BY IDOCK:   -3.03 KCAL/MOL
REMARK 922        TOTAL FREE ENERGY PREDICTED BY IDOCK:   -5.17 KCAL/MOL
REMARK 923 INTER-LIGAND FREE ENERGY PREDICTED BY IDOCK:   -5.26 KCAL/MOL
REMARK 924 INTRA-LIGAND FREE ENERGY PREDICTED BY IDOCK:    0.09 KCAL/MOL
REMARK 927      BINDING AFFINITY PREDICTED BY RF-SCORE:    0.00 PKD
ROOT
HETATM    1  C   UNL     1     -12.576  12.598  70.456  1.00  0.00    -0.178 C  
HETATM    2  C   UNL     1     -12.856  11.122  70.184  1.00  0.00    -0.004 C  
ENDROOT
BRANCH   2   3
HETATM    3  N   UNL     1     -12.082  10.223  71.053  1.00  0.00    -0.353 NA 
HETATM    4  C   UNL     1     -12.942   9.362  71.870  1.00  0.00    -0.417 C  
HETATM    5  C   UNL     1     -11.995   8.267  72.311  1.00  0.00    -0.448 C  
HETATM    6  C   UNL     1     -11.152   8.010  71.076  1.00  0.00    -0.275 C  
HETATM    7  C   UNL     1     -11.213   9.312  70.261  1.00  0.00    -0.231 C  
BRANCH   7   8
HETATM    8  C   UNL     1      -9.808   9.914  70.031  1.00  0.00    -0.243 C  
BRANCH   8   9
HETATM    9  N   UNL     1      -9.555  10.333  68.657  1.00  0.00    -0.161 N  
HETATM   10  C   UNL     1     -10.284   9.836  67.589  1.00  0.00    -0.213 C  
HETATM   11  H   UNL     1      -8.817  11.014  68.476  1.00  0.00     0.000 HD 
HETATM   12  O   UNL     1     -11.153   8.985  67.740  1.00  0.00    -0.040 OA 
BRANCH  10  13
HETATM   13  C   UNL     1      -9.933  10.380  66.230  1.00  0.00    -0.283 A  
HETATM   14  C   UNL     1     -10.701  11.401  65.623  1.00  0.00    -0.242 A  
HETATM   15  C   UNL     1     -10.341  11.864  64.346  1.00  0.00    -0.341 A  
HETATM   16  C   UNL     1      -8.843   9.827  65.530  1.00  0.00    -0.192 A  
HETATM   17  C   UNL     1      -8.502  10.312  64.265  1.00  0.00    -0.179 A  
HETATM   18  C   UNL     1      -9.249  11.325  63.668  1.00  0.00    -0.120 A  
BRANCH  14  19
HETATM   19  O   UNL     1     -11.759  11.913  66.325  1.00  0.00    -0.506 OA 
HETATM   20  C   UNL     1     -12.564  12.905  65.700  1.00  0.00    -0.203 C  
ENDBRANCH  14  19
BRANCH  17  21
HETATM   21  S   UNL     1      -7.157   9.589  63.370  1.00  0.00    -0.104 S  
HETATM   22  O   UNL     1      -7.670   8.565  62.492  1.00  0.00    -0.117 OA 
HETATM   23  N   UNL     1      -6.677  10.856  62.385  1.00  0.00    -0.337 N  
HETATM   24  O   UNL     1      -6.059   9.355  64.281  1.00  0.00    -0.074 OA 
HETATM   25  H1  UNL     1      -5.902  10.440  61.870  1.00  0.00     0.000 HD 
HETATM   26  H2  UNL     1      -7.060  11.799  62.318  1.00  0.00     0.000 HD 
ENDBRANCH  17  21
ENDBRANCH  10  13
ENDBRANCH   8   9
ENDBRANCH   7   8
ENDBRANCH   2   3
TORSDOF 6
ENDMDL
MODEL      236
REMARK 921   NORMALIZED FREE ENERGY PREDICTED BY IDOCK:   -2.99 KCAL/MOL
REMARK 922        TOTAL FREE ENERGY PREDICTED BY IDOCK:   -5.12 KCAL/MOL
REMARK 923 INTER-LIGAND FREE ENERGY PREDICTED BY IDOCK:   -4.83 KCAL/MOL
REMARK 924 INTRA-LIGAND FREE ENERGY PREDICTED BY IDOCK:   -0.29 KCAL/MOL
REMARK 927      BINDING AFFINITY PREDICTED BY RF-SCORE:    0.00 PKD
ROOT
HETATM    1  C   UNL     1     -11.087  11.656  63.549  1.00  0.00    -0.476 C  
HETATM    2  C   UNL     1      -9.949  11.872  64.544  1.00  0.00    -0.228 C  
ENDROOT
BRANCH   2   3
HETATM    3  N   UNL     1      -9.383  10.611  65.048  1.00  0.00    -0.201 NA 
HETATM    4  C   UNL     1      -9.243   9.603  63.992  1.00  0.00    -0.148 C  
HETATM    5  C   UNL     1      -8.270   8.617  64.601  1.00  0.00    -0.167 C  
HETATM    6  C   UNL     1      -7.271   9.503  65.319  1.00  0.00    -0.104 C  
HETATM    7  C   UNL     1      -8.022  10.811  65.614  1.00  0.00    -0.095 C  
BRANCH   7   8
HETATM    8  C   UNL     1      -8.070  11.119  67.128  1.00  0.00    -0.138 C  
BRANCH   8   9
HETATM    9  N   UNL     1      -8.482  12.482  67.448  1.00  0.00    -0.172 N  
HETATM   10  C   UNL     1      -7.567  13.512  67.600  1.00  0.00    -0.177 C  
HETATM   11  H   UNL     1      -9.475  12.684  67.563  1.00  0.00     0.000 HD 
HETATM   12  O   UNL     1      -6.360  13.321  67.515  1.00  0.00    -0.165 OA 
BRANCH  10  13
HETATM   13  C   UNL     1      -8.137  14.871  67.900  1.00  0.00    -0.148 A  
HETATM   14  C   UNL     1      -9.529  15.117  67.845  1.00  0.00    -0.194 A  
HETATM   15  C   UNL     1     -10.011  16.408  68.119  1.00  0.00    -0.242 A  
HETATM   16  C   UNL     1      -7.261  15.934  68.196  1.00  0.00    -0.134 A  
HETATM   17  C   UNL     1      -7.767  17.206  68.472  1.00  0.00    -0.248 A  
HETATM   18  C   UNL     1      -9.138  17.449  68.430  1.00  0.00    -0.274 A  
BRANCH  14  19
HETATM   19  O   UNL     1     -10.355  14.066  67.547  1.00  0.00    -0.242 OA 
HETATM   20  C   UNL     1     -11.759  14.264  67.655  1.00  0.00    -0.389 C  
ENDBRANCH  14  19
BRANCH  17  21
HETATM   21  S   UNL     1      -6.662  18.549  68.805  1.00  0.00    -0.273 S  
HETATM   22  O   UNL     1      -7.309  19.483  69.695  1.00  0.00    -0.236 OA 
HETATM   23  N   UNL     1      -5.465  17.795  69.703  1.00  0.00    -0.197 N  
HETATM   24  O   UNL     1      -6.034  18.958  67.568  1.00  0.00    -0.180 OA 
HETATM   25  H1  UNL     1      -4.828  18.568  69.895  1.00  0.00     0.000 HD 
HETATM   26  H2  UNL     1      -5.392  16.818  69.984  1.00  0.00     0.000 HD 
ENDBRANCH  17  21
ENDBRANCH  10  13
ENDBRANCH   8   9
ENDBRANCH   7   8
ENDBRANCH   2   3
TORSDOF 6
ENDMDL
MODEL      237
REMARK 921   NORMALIZED FREE ENERGY PREDICTED BY IDOCK:   -2.95 KCAL/MOL
REMARK 922        TOTAL FREE ENERGY PREDICTED BY IDOCK:   -5.06 KCAL/MOL
REMARK 923 INTER-LIGAND FREE ENERGY PREDICTED BY IDOCK:   -4.45 KCAL/MOL
REMARK 924 INTRA-LIGAND FREE ENERGY PREDICTED BY IDOCK:   -0.61 KCAL/MOL
REMARK 927      BINDING AFFINITY PREDICTED BY RF-SCORE:    0.00 PKD
ROOT
HETATM    1  C   UNL     1      -6.219  14.546  68.112  1.00  0.00    -0.146 C  
HETATM    2  C   UNL     1      -5.231  13.430  67.783  1.00  0.00    -0.063 C  
ENDROOT
BRANCH   2   3
HETATM    3  N   UNL     1      -5.892  12.143  67.515  1.00  0.00    -0.106 NA 
HETATM    4  C   UNL     1      -5.330  11.464  66.343  1.00  0.00    -0.121 C  
HETATM    5  C   UNL     1      -5.810  10.040  66.523  1.00  0.00    -0.059 C  
HETATM    6  C   UNL     1      -5.672   9.806  68.015  1.00  0.00    -0.040 C  
HETATM    7  C   UNL     1      -5.736  11.202  68.655  1.00  0.00    -0.042 C  
BRANCH   7   8
HETATM    8  C   UNL     1      -6.903  11.321  69.662  1.00  0.00    -0.095 C  
BRANCH   8   9
HETATM    9  N   UNL     1      -7.755  10.139  69.733  1.00  0.00    -0.162 N  
HETATM   10  C   UNL     1      -8.962  10.059  69.057  1.00  0.00    -0.163 C  
HETATM   11  H   UNL     1      -7.452   9.345  70.297  1.00  0.00     0.000 HD 
HETATM   12  O   UNL     1      -9.397  10.996  68.400  1.00  0.00    -0.164 OA 
BRANCH  10  13
HETATM   13  C   UNL     1      -9.721   8.767  69.199  1.00  0.00    -0.175 A  
HETATM   14  C   UNL     1     -10.161   8.042  68.067  1.00  0.00    -0.210 A  
HETATM   15  C   UNL     1     -10.880   6.849  68.252  1.00  0.00    -0.244 A  
HETATM   16  C   UNL     1     -10.041   8.296  70.487  1.00  0.00    -0.210 A  
HETATM   17  C   UNL     1     -10.751   7.103  70.642  1.00  0.00    -0.235 A  
HETATM   18  C   UNL     1     -11.175   6.380  69.531  1.00  0.00    -0.477 A  
BRANCH  14  19
HETATM   19  O   UNL     1      -9.841   8.530  66.828  1.00  0.00    -0.209 OA 
HETATM   20  C   UNL     1      -8.778   7.909  66.116  1.00  0.00    -0.158 C  
ENDBRANCH  14  19
BRANCH  17  21
HETATM   21  S   UNL     1     -11.186   6.533  72.261  1.00  0.00    -0.286 S  
HETATM   22  O   UNL     1     -10.886   7.567  73.222  1.00  0.00    -0.386 OA 
HETATM   23  N   UNL     1     -12.856   6.453  72.162  1.00  0.00    -0.483 N  
HETATM   24  O   UNL     1     -10.730   5.169  72.416  1.00  0.00    -0.215 OA 
HETATM   25  H1  UNL     1     -13.106   6.124  73.094  1.00  0.00     0.000 HD 
HETATM   26  H2  UNL     1     -13.464   6.675  71.374  1.00  0.00     0.000 HD 
ENDBRANCH  17  21
ENDBRANCH  10  13
ENDBRANCH   8   9
ENDBRANCH   7   8
ENDBRANCH   2   3
TORSDOF 6
ENDMDL
MODEL      238
REMARK 921   NORMALIZED FREE ENERGY PREDICTED BY IDOCK:   -2.93 KCAL/MOL
REMARK 922        TOTAL FREE ENERGY PREDICTED BY IDOCK:   -5.05 KCAL/MOL
REMARK 923 INTER-LIGAND FREE ENERGY PREDICTED BY IDOCK:   -4.19 KCAL/MOL
REMARK 924 INTRA-LIGAND FREE ENERGY PREDICTED BY IDOCK:   -0.85 KCAL/MOL
REMARK 927      BINDING AFFINITY PREDICTED BY RF-SCORE:    0.00 PKD
ROOT
HETATM    1  C   UNL     1     -11.274   6.857  70.303  1.00  0.00    -0.363 C  
HETATM    2  C   UNL     1      -9.864   6.332  70.048  1.00  0.00    -0.169 C  
ENDROOT
BRANCH   2   3
HETATM    3  N   UNL     1      -8.922   7.393  69.656  1.00  0.00    -0.141 NA 
HETATM    4  C   UNL     1      -7.526   7.011  69.892  1.00  0.00    -0.090 C  
HETATM    5  C   UNL     1      -6.762   7.999  69.036  1.00  0.00    -0.052 C  
HETATM    6  C   UNL     1      -7.604   8.103  67.779  1.00  0.00    -0.098 C  
HETATM    7  C   UNL     1      -9.027   7.708  68.206  1.00  0.00    -0.127 C  
BRANCH   7   8
HETATM    8  C   UNL     1     -10.045   8.840  67.937  1.00  0.00    -0.207 C  
BRANCH   8   9
HETATM    9  N   UNL     1      -9.566  10.171  68.295  1.00  0.00    -0.139 N  
HETATM   10  C   UNL     1      -9.465  11.192  67.364  1.00  0.00    -0.164 C  
HETATM   11  H   UNL     1      -9.298  10.356  69.261  1.00  0.00     0.000 HD 
HETATM   12  O   UNL     1      -9.731  11.017  66.181  1.00  0.00    -0.202 OA 
BRANCH  10  13
HETATM   13  C   UNL     1      -8.984  12.521  67.882  1.00  0.00    -0.188 A  
HETATM   14  C   UNL     1      -7.690  12.673  68.434  1.00  0.00    -0.133 A  
HETATM   15  C   UNL     1      -7.294  13.932  68.918  1.00  0.00    -0.088 A  
HETATM   16  C   UNL     1      -9.859  13.625  67.859  1.00  0.00    -0.237 A  
HETATM   17  C   UNL     1      -9.436  14.866  68.341  1.00  0.00    -0.209 A  
HETATM   18  C   UNL     1      -8.160  15.024  68.874  1.00  0.00    -0.176 A  
BRANCH  14  19
HETATM   19  O   UNL     1      -6.866  11.581  68.449  1.00  0.00    -0.063 OA 
HETATM   20  C   UNL     1      -5.891  11.489  69.481  1.00  0.00    -0.077 C  
ENDBRANCH  14  19
BRANCH  17  21
HETATM   21  S   UNL     1     -10.551  16.242  68.347  1.00  0.00    -0.318 S  
HETATM   22  O   UNL     1      -9.914  17.361  68.999  1.00  0.00    -0.302 OA 
HETATM   23  N   UNL     1     -10.630  16.629  66.719  1.00  0.00    -0.262 N  
HETATM   24  O   UNL     1     -11.870  15.775  68.710  1.00  0.00    -0.387 OA 
HETATM   25  H1  UNL     1     -11.272  17.421  66.722  1.00  0.00     0.000 HD 
HETATM   26  H2  UNL     1     -10.159  16.187  65.930  1.00  0.00     0.000 HD 
ENDBRANCH  17  21
ENDBRANCH  10  13
ENDBRANCH   8   9
ENDBRANCH   7   8
ENDBRANCH   2   3
TORSDOF 6
ENDMDL
MODEL      239
REMARK 921   NORMALIZED FREE ENERGY PREDICTED BY IDOCK:   -2.91 KCAL/MOL
REMARK 922        TOTAL FREE ENERGY PREDICTED BY IDOCK:   -5.01 KCAL/MOL
REMARK 923 INTER-LIGAND FREE ENERGY PREDICTED BY IDOCK:   -4.71 KCAL/MOL
REMARK 924 INTRA-LIGAND FREE ENERGY PREDICTED BY IDOCK:   -0.30 KCAL/MOL
REMARK 927      BINDING AFFINITY PREDICTED BY RF-SCORE:    0.00 PKD
ROOT
HETATM    1  C   UNL     1     -12.086  15.010  64.434  1.00  0.00    -0.373 C  
HETATM    2  C   UNL     1     -11.639  13.592  64.778  1.00  0.00    -0.349 C  
ENDROOT
BRANCH   2   3
HETATM    3  N   UNL     1     -11.177  13.459  66.168  1.00  0.00    -0.292 NA 
HETATM    4  C   UNL     1     -12.159  13.967  67.131  1.00  0.00    -0.387 C  
HETATM    5  C   UNL     1     -11.703  13.340  68.432  1.00  0.00    -0.389 C  
HETATM    6  C   UNL     1     -11.288  11.940  68.024  1.00  0.00    -0.352 C  
HETATM    7  C   UNL     1     -10.936  12.037  66.531  1.00  0.00    -0.295 C  
BRANCH   7   8
HETATM    8  C   UNL     1      -9.475  11.613  66.254  1.00  0.00    -0.218 C  
BRANCH   8   9
HETATM    9  N   UNL     1      -8.995  10.532  67.108  1.00  0.00    -0.140 N  
HETATM   10  C   UNL     1      -9.294   9.203  66.852  1.00  0.00    -0.156 C  
HETATM   11  H   UNL     1      -8.420  10.761  67.918  1.00  0.00     0.000 HD 
HETATM   12  O   UNL     1     -10.015   8.872  65.919  1.00  0.00    -0.245 OA 
BRANCH  10  13
HETATM   13  C   UNL     1      -8.707   8.193  67.800  1.00  0.00    -0.130 A  
HETATM   14  C   UNL     1      -8.281   6.921  67.352  1.00  0.00    -0.119 A  
HETATM   15  C   UNL     1      -7.753   6.006  68.280  1.00  0.00    -0.102 A  
HETATM   16  C   UNL     1      -8.623   8.505  69.171  1.00  0.00    -0.133 A  
HETATM   17  C   UNL     1      -8.088   7.580  70.071  1.00  0.00    -0.127 A  
HETATM   18  C   UNL     1      -7.656   6.331  69.632  1.00  0.00    -0.094 A  
BRANCH  14  19
HETATM   19  O   UNL     1      -8.381   6.644  66.015  1.00  0.00    -0.121 OA 
HETATM   20  C   UNL     1      -7.792   5.443  65.531  1.00  0.00    -0.098 C  
ENDBRANCH  14  19
BRANCH  17  21
HETATM   21  S   UNL     1      -8.020   7.959  71.799  1.00  0.00    -0.112 S  
HETATM   22  O   UNL     1      -9.167   8.762  72.151  1.00  0.00    -0.305 OA 
HETATM   23  N   UNL     1      -8.269   6.455  72.492  1.00  0.00    -0.106 N  
HETATM   24  O   UNL     1      -6.668   8.338  72.144  1.00  0.00    -0.069 OA 
HETATM   25  H1  UNL     1      -8.230   6.673  73.488  1.00  0.00     0.000 HD 
HETATM   26  H2  UNL     1      -8.420   5.555  72.037  1.00  0.00     0.000 HD 
ENDBRANCH  17  21
ENDBRANCH  10  13
ENDBRANCH   8   9
ENDBRANCH   7   8
ENDBRANCH   2   3
TORSDOF 6
ENDMDL
MODEL      240
REMARK 921   NORMALIZED FREE ENERGY PREDICTED BY IDOCK:   -2.91 KCAL/MOL
REMARK 922        TOTAL FREE ENERGY PREDICTED BY IDOCK:   -5.01 KCAL/MOL
REMARK 923 INTER-LIGAND FREE ENERGY PREDICTED BY IDOCK:   -4.90 KCAL/MOL
REMARK 924 INTRA-LIGAND FREE ENERGY PREDICTED BY IDOCK:   -0.11 KCAL/MOL
REMARK 927      BINDING AFFINITY PREDICTED BY RF-SCORE:    0.00 PKD
ROOT
HETATM    1  C   UNL     1      -8.690   6.953  71.387  1.00  0.00    -0.126 C  
HETATM    2  C   UNL     1      -9.386   5.789  70.686  1.00  0.00    -0.159 C  
ENDROOT
BRANCH   2   3
HETATM    3  N   UNL     1      -8.509   5.088  69.735  1.00  0.00    -0.087 NA 
HETATM    4  C   UNL     1      -7.543   4.216  70.409  1.00  0.00    -0.045 C  
HETATM    5  C   UNL     1      -7.089   3.298  69.295  1.00  0.00    -0.045 C  
HETATM    6  C   UNL     1      -8.364   3.021  68.522  1.00  0.00    -0.085 C  
HETATM    7  C   UNL     1      -9.288   4.214  68.817  1.00  0.00    -0.159 C  
BRANCH   7   8
HETATM    8  C   UNL     1      -9.697   4.958  67.525  1.00  0.00    -0.164 C  
BRANCH   8   9
HETATM    9  N   UNL     1     -10.100   6.344  67.736  1.00  0.00    -0.134 N  
HETATM   10  C   UNL     1      -9.634   7.377  66.938  1.00  0.00    -0.187 C  
HETATM   11  H   UNL     1     -10.746   6.561  68.495  1.00  0.00     0.000 HD 
HETATM   12  O   UNL     1      -8.825   7.184  66.040  1.00  0.00    -0.152 OA 
BRANCH  10  13
HETATM   13  C   UNL     1     -10.158   8.752  67.254  1.00  0.00    -0.301 A  
HETATM   14  C   UNL     1     -10.094   9.801  66.308  1.00  0.00    -0.243 A  
HETATM   15  C   UNL     1     -10.583  11.072  66.656  1.00  0.00    -0.315 A  
HETATM   16  C   UNL     1     -10.680   9.011  68.537  1.00  0.00    -0.140 A  
HETATM   17  C   UNL     1     -11.165  10.281  68.855  1.00  0.00    -0.207 A  
HETATM   18  C   UNL     1     -11.116  11.314  67.922  1.00  0.00    -0.325 A  
BRANCH  14  19
HETATM   19  O   UNL     1      -9.575   9.521  65.072  1.00  0.00    -0.268 OA 
HETATM   20  C   UNL     1      -8.818  10.532  64.417  1.00  0.00    -0.197 C  
ENDBRANCH  14  19
BRANCH  17  21
HETATM   21  S   UNL     1     -11.785  10.614  70.480  1.00  0.00    -0.368 S  
HETATM   22  O   UNL     1     -11.997  12.035  70.622  1.00  0.00    -0.331 OA 
HETATM   23  N   UNL     1     -13.306   9.915  70.419  1.00  0.00    -0.515 N  
HETATM   24  O   UNL     1     -11.029   9.839  71.438  1.00  0.00    -0.342 OA 
HETATM   25  H1  UNL     1     -13.663  10.107  71.354  1.00  0.00     0.000 HD 
HETATM   26  H2  UNL     1     -13.758   9.426  69.647  1.00  0.00     0.000 HD 
ENDBRANCH  17  21
ENDBRANCH  10  13
ENDBRANCH   8   9
ENDBRANCH   7   8
ENDBRANCH   2   3
TORSDOF 6
ENDMDL
MODEL      241
REMARK 921   NORMALIZED FREE ENERGY PREDICTED BY IDOCK:   -2.89 KCAL/MOL
REMARK 922        TOTAL FREE ENERGY PREDICTED BY IDOCK:   -4.99 KCAL/MOL
REMARK 923 INTER-LIGAND FREE ENERGY PREDICTED BY IDOCK:   -3.97 KCAL/MOL
REMARK 924 INTRA-LIGAND FREE ENERGY PREDICTED BY IDOCK:   -1.01 KCAL/MOL
REMARK 927      BINDING AFFINITY PREDICTED BY RF-SCORE:    0.00 PKD
ROOT
HETATM    1  C   UNL     1      -6.847  17.693  68.270  1.00  0.00    -0.213 C  
HETATM    2  C   UNL     1      -6.699  16.711  69.429  1.00  0.00    -0.218 C  
ENDROOT
BRANCH   2   3
HETATM    3  N   UNL     1      -7.711  15.644  69.407  1.00  0.00    -0.223 NA 
HETATM    4  C   UNL     1      -9.050  16.153  69.095  1.00  0.00    -0.243 C  
HETATM    5  C   UNL     1      -9.796  14.901  68.689  1.00  0.00    -0.225 C  
HETATM    6  C   UNL     1      -8.774  14.126  67.880  1.00  0.00    -0.182 C  
HETATM    7  C   UNL     1      -7.404  14.622  68.370  1.00  0.00    -0.115 C  
BRANCH   7   8
HETATM    8  C   UNL     1      -6.544  13.470  68.938  1.00  0.00    -0.106 C  
BRANCH   8   9
HETATM    9  N   UNL     1      -7.315  12.401  69.564  1.00  0.00    -0.270 N  
HETATM   10  C   UNL     1      -7.086  11.064  69.281  1.00  0.00    -0.123 C  
HETATM   11  H   UNL     1      -8.046  12.645  70.232  1.00  0.00     0.000 HD 
HETATM   12  O   UNL     1      -6.251  10.712  68.456  1.00  0.00    -0.049 OA 
BRANCH  10  13
HETATM   13  C   UNL     1      -7.937  10.069  70.023  1.00  0.00    -0.166 A  
HETATM   14  C   UNL     1      -9.316   9.922  69.741  1.00  0.00    -0.221 A  
HETATM   15  C   UNL     1     -10.071   8.991  70.473  1.00  0.00    -0.263 A  
HETATM   16  C   UNL     1      -7.359   9.303  71.053  1.00  0.00    -0.091 A  
HETATM   17  C   UNL     1      -8.131   8.379  71.761  1.00  0.00    -0.148 A  
HETATM   18  C   UNL     1      -9.486   8.222  71.478  1.00  0.00    -0.244 A  
BRANCH  14  19
HETATM   19  O   UNL     1      -9.851  10.686  68.739  1.00  0.00    -0.175 OA 
HETATM   20  C   UNL     1     -11.034  10.223  68.100  1.00  0.00    -0.274 C  
ENDBRANCH  14  19
BRANCH  17  21
HETATM   21  S   UNL     1      -7.411   7.445  73.081  1.00  0.00    -0.077 S  
HETATM   22  O   UNL     1      -7.955   7.906  74.337  1.00  0.00    -0.193 OA 
HETATM   23  N   UNL     1      -8.057   5.923  72.819  1.00  0.00    -0.104 N  
HETATM   24  O   UNL     1      -5.990   7.321  72.847  1.00  0.00    -0.048 OA 
HETATM   25  H1  UNL     1      -7.642   5.384  73.580  1.00  0.00     0.000 HD 
HETATM   26  H2  UNL     1      -8.698   5.613  72.089  1.00  0.00     0.000 HD 
ENDBRANCH  17  21
ENDBRANCH  10  13
ENDBRANCH   8   9
ENDBRANCH   7   8
ENDBRANCH   2   3
TORSDOF 6
ENDMDL
MODEL      242
REMARK 921   NORMALIZED FREE ENERGY PREDICTED BY IDOCK:   -2.81 KCAL/MOL
REMARK 922        TOTAL FREE ENERGY PREDICTED BY IDOCK:   -4.88 KCAL/MOL
REMARK 923 INTER-LIGAND FREE ENERGY PREDICTED BY IDOCK:   -4.66 KCAL/MOL
REMARK 924 INTRA-LIGAND FREE ENERGY PREDICTED BY IDOCK:   -0.22 KCAL/MOL
REMARK 927      BINDING AFFINITY PREDICTED BY RF-SCORE:    0.00 PKD
ROOT
HETATM    1  C   UNL     1      -9.938   6.016  69.481  1.00  0.00    -0.225 C  
HETATM    2  C   UNL     1      -8.727   5.849  68.567  1.00  0.00    -0.112 C  
ENDROOT
BRANCH   2   3
HETATM    3  N   UNL     1      -8.387   7.081  67.838  1.00  0.00    -0.117 NA 
HETATM    4  C   UNL     1      -7.212   6.911  66.977  1.00  0.00    -0.084 C  
HETATM    5  C   UNL     1      -7.321   8.087  66.030  1.00  0.00    -0.073 C  
HETATM    6  C   UNL     1      -8.807   8.172  65.741  1.00  0.00    -0.173 C  
HETATM    7  C   UNL     1      -9.497   7.511  66.945  1.00  0.00    -0.171 C  
BRANCH   7   8
HETATM    8  C   UNL     1     -10.464   8.483  67.660  1.00  0.00    -0.241 C  
BRANCH   8   9
HETATM    9  N   UNL     1      -9.931   9.828  67.845  1.00  0.00    -0.156 N  
HETATM   10  C   UNL     1     -10.750  10.944  67.902  1.00  0.00    -0.231 C  
HETATM   11  H   UNL     1      -8.923   9.951  67.936  1.00  0.00     0.000 HD 
HETATM   12  O   UNL     1     -11.963  10.862  67.757  1.00  0.00    -0.553 OA 
BRANCH  10  13
HETATM   13  C   UNL     1     -10.064  12.264  68.127  1.00  0.00    -0.211 A  
HETATM   14  C   UNL     1      -8.682  12.430  67.876  1.00  0.00    -0.175 A  
HETATM   15  C   UNL     1      -8.084  13.679  68.116  1.00  0.00    -0.156 A  
HETATM   16  C   UNL     1     -10.805  13.345  68.644  1.00  0.00    -0.287 A  
HETATM   17  C   UNL     1     -10.187  14.578  68.867  1.00  0.00    -0.229 A  
HETATM   18  C   UNL     1      -8.830  14.748  68.609  1.00  0.00    -0.180 A  
BRANCH  14  19
HETATM   19  O   UNL     1      -7.986  11.359  67.381  1.00  0.00    -0.127 OA 
HETATM   20  C   UNL     1      -6.642  11.566  66.964  1.00  0.00    -0.138 C  
ENDBRANCH  14  19
BRANCH  17  21
HETATM   21  S   UNL     1     -11.112  15.923  69.553  1.00  0.00    -0.344 S  
HETATM   22  O   UNL     1     -12.499  15.781  69.179  1.00  0.00    -0.106 OA 
HETATM   23  N   UNL     1     -11.031  15.596  71.194  1.00  0.00    -0.278 N  
HETATM   24  O   UNL     1     -10.373  17.150  69.354  1.00  0.00    -0.290 OA 
HETATM   25  H1  UNL     1     -11.563  16.371  71.589  1.00  0.00     0.000 HD 
HETATM   26  H2  UNL     1     -10.568  14.824  71.673  1.00  0.00     0.000 HD 
ENDBRANCH  17  21
ENDBRANCH  10  13
ENDBRANCH   8   9
ENDBRANCH   7   8
ENDBRANCH   2   3
TORSDOF 6
ENDMDL
MODEL      243
REMARK 921   NORMALIZED FREE ENERGY PREDICTED BY IDOCK:   -2.77 KCAL/MOL
REMARK 922        TOTAL FREE ENERGY PREDICTED BY IDOCK:   -4.82 KCAL/MOL
REMARK 923 INTER-LIGAND FREE ENERGY PREDICTED BY IDOCK:   -4.56 KCAL/MOL
REMARK 924 INTRA-LIGAND FREE ENERGY PREDICTED BY IDOCK:   -0.26 KCAL/MOL
REMARK 927      BINDING AFFINITY PREDICTED BY RF-SCORE:    0.00 PKD
ROOT
HETATM    1  C   UNL     1      -9.141   8.010  72.301  1.00  0.00    -0.237 C  
HETATM    2  C   UNL     1      -9.931   7.481  71.107  1.00  0.00    -0.180 C  
ENDROOT
BRANCH   2   3
HETATM    3  N   UNL     1      -9.333   6.272  70.517  1.00  0.00    -0.161 NA 
HETATM    4  C   UNL     1      -9.336   5.139  71.448  1.00  0.00    -0.148 C  
HETATM    5  C   UNL     1      -9.119   3.955  70.531  1.00  0.00    -0.186 C  
HETATM    6  C   UNL     1      -9.959   4.292  69.313  1.00  0.00    -0.086 C  
HETATM    7  C   UNL     1     -10.085   5.824  69.315  1.00  0.00    -0.205 C  
BRANCH   7   8
HETATM    8  C   UNL     1      -9.519   6.449  68.018  1.00  0.00    -0.116 C  
BRANCH   8   9
HETATM    9  N   UNL     1      -9.471   7.907  68.029  1.00  0.00    -0.148 N  
HETATM   10  C   UNL     1      -8.464   8.616  67.395  1.00  0.00    -0.123 C  
HETATM   11  H   UNL     1     -10.203   8.421  68.520  1.00  0.00     0.000 HD 
HETATM   12  O   UNL     1      -7.537   8.053  66.827  1.00  0.00    -0.091 OA 
BRANCH  10  13
HETATM   13  C   UNL     1      -8.559  10.116  67.465  1.00  0.00    -0.118 A  
HETATM   14  C   UNL     1      -7.689  10.874  68.284  1.00  0.00    -0.111 A  
HETATM   15  C   UNL     1      -7.829  12.272  68.326  1.00  0.00    -0.153 A  
HETATM   16  C   UNL     1      -9.567  10.775  66.735  1.00  0.00    -0.201 A  
HETATM   17  C   UNL     1      -9.679  12.167  66.790  1.00  0.00    -0.207 A  
HETATM   18  C   UNL     1      -8.817  12.917  67.585  1.00  0.00    -0.187 A  
BRANCH  14  19
HETATM   19  O   UNL     1      -6.724  10.204  68.987  1.00  0.00    -0.051 OA 
HETATM   20  C   UNL     1      -7.016   9.815  70.324  1.00  0.00    -0.135 C  
ENDBRANCH  14  19
BRANCH  17  21
HETATM   21  S   UNL     1     -10.972  12.990  65.902  1.00  0.00    -0.274 S  
HETATM   22  O   UNL     1     -11.149  14.314  66.446  1.00  0.00    -0.313 OA 
HETATM   23  N   UNL     1     -10.278  13.191  64.391  1.00  0.00    -0.590 N  
HETATM   24  O   UNL     1     -12.072  12.070  65.716  1.00  0.00    -0.536 OA 
HETATM   25  H1  UNL     1     -11.022  13.665  63.879  1.00  0.00     0.000 HD 
HETATM   26  H2  UNL     1      -9.352  12.912  64.066  1.00  0.00     0.000 HD 
ENDBRANCH  17  21
ENDBRANCH  10  13
ENDBRANCH   8   9
ENDBRANCH   7   8
ENDBRANCH   2   3
TORSDOF 6
ENDMDL
MODEL      244
REMARK 921   NORMALIZED FREE ENERGY PREDICTED BY IDOCK:   -2.74 KCAL/MOL
REMARK 922        TOTAL FREE ENERGY PREDICTED BY IDOCK:   -4.78 KCAL/MOL
REMARK 923 INTER-LIGAND FREE ENERGY PREDICTED BY IDOCK:   -4.36 KCAL/MOL
REMARK 924 INTRA-LIGAND FREE ENERGY PREDICTED BY IDOCK:   -0.42 KCAL/MOL
REMARK 927      BINDING AFFINITY PREDICTED BY RF-SCORE:    0.00 PKD
ROOT
HETATM    1  C   UNL     1      -9.461  17.678  68.165  1.00  0.00    -0.286 C  
HETATM    2  C   UNL     1     -10.472  16.535  68.187  1.00  0.00    -0.313 C  
ENDROOT
BRANCH   2   3
HETATM    3  N   UNL     1     -10.891  16.116  66.840  1.00  0.00    -0.237 NA 
HETATM    4  C   UNL     1     -11.276  17.253  65.998  1.00  0.00     0.688 C  
HETATM    5  C   UNL     1     -11.223  16.666  64.604  1.00  0.00    -0.023 C  
HETATM    6  C   UNL     1      -9.994  15.779  64.640  1.00  0.00     1.021 C  
HETATM    7  C   UNL     1      -9.792  15.418  66.120  1.00  0.00    -0.311 C  
BRANCH   7   8
HETATM    8  C   UNL     1      -9.834  13.890  66.351  1.00  0.00    -0.295 C  
BRANCH   8   9
HETATM    9  N   UNL     1     -10.357  13.497  67.655  1.00  0.00    -0.236 N  
HETATM   10  C   UNL     1     -11.624  12.958  67.809  1.00  0.00    -0.343 C  
HETATM   11  H   UNL     1      -9.770  13.622  68.480  1.00  0.00     0.000 HD 
HETATM   12  O   UNL     1     -12.388  12.824  66.862  1.00  0.00    -0.412 OA 
BRANCH  10  13
HETATM   13  C   UNL     1     -12.019  12.572  69.209  1.00  0.00    -0.304 A  
HETATM   14  C   UNL     1     -12.270  11.225  69.560  1.00  0.00    -0.256 A  
HETATM   15  C   UNL     1     -12.650  10.917  70.877  1.00  0.00    -0.494 A  
HETATM   16  C   UNL     1     -12.187  13.580  70.178  1.00  0.00    -0.400 A  
HETATM   17  C   UNL     1     -12.560  13.245  71.483  1.00  0.00    -0.214 A  
HETATM   18  C   UNL     1     -12.796  11.919  71.835  1.00  0.00    -0.341 A  
BRANCH  14  19
HETATM   19  O   UNL     1     -12.104  10.268  68.594  1.00  0.00    -0.099 OA 
HETATM   20  C   UNL     1     -10.816   9.687  68.438  1.00  0.00    -0.167 C  
ENDBRANCH  14  19
BRANCH  17  21
HETATM   21  S   UNL     1     -12.810  14.517  72.689  1.00  0.00    -0.405 S  
HETATM   22  O   UNL     1     -11.981  14.246  73.839  1.00  0.00    -0.050 OA 
HETATM   23  N   UNL     1     -12.137  15.850  71.928  1.00  0.00    -0.454 N  
HETATM   24  O   UNL     1     -14.225  14.792  72.795  1.00  0.00    -0.422 OA 
HETATM   25  H1  UNL     1     -12.281  16.583  72.623  1.00  0.00     0.000 HD 
HETATM   26  H2  UNL     1     -11.699  15.912  71.010  1.00  0.00     0.000 HD 
ENDBRANCH  17  21
ENDBRANCH  10  13
ENDBRANCH   8   9
ENDBRANCH   7   8
ENDBRANCH   2   3
TORSDOF 6
ENDMDL
MODEL      245
REMARK 921   NORMALIZED FREE ENERGY PREDICTED BY IDOCK:   -2.70 KCAL/MOL
REMARK 922        TOTAL FREE ENERGY PREDICTED BY IDOCK:   -4.73 KCAL/MOL
REMARK 923 INTER-LIGAND FREE ENERGY PREDICTED BY IDOCK:   -3.98 KCAL/MOL
REMARK 924 INTRA-LIGAND FREE ENERGY PREDICTED BY IDOCK:   -0.75 KCAL/MOL
REMARK 927      BINDING AFFINITY PREDICTED BY RF-SCORE:    0.00 PKD
ROOT
HETATM    1  C   UNL     1     -10.315   1.995  63.491  1.00  0.00    -0.144 C  
HETATM    2  C   UNL     1      -9.419   1.753  64.702  1.00  0.00    -0.084 C  
ENDROOT
BRANCH   2   3
HETATM    3  N   UNL     1      -8.568   2.909  65.025  1.00  0.00    -0.098 NA 
HETATM    4  C   UNL     1      -7.693   3.284  63.910  1.00  0.00    -0.076 C  
HETATM    5  C   UNL     1      -7.275   4.692  64.274  1.00  0.00    -0.054 C  
HETATM    6  C   UNL     1      -8.543   5.303  64.840  1.00  0.00    -0.145 C  
HETATM    7  C   UNL     1      -9.382   4.115  65.337  1.00  0.00    -0.163 C  
BRANCH   7   8
HETATM    8  C   UNL     1      -9.692   4.222  66.848  1.00  0.00    -0.214 C  
BRANCH   8   9
HETATM    9  N   UNL     1     -10.021   5.571  67.296  1.00  0.00    -0.149 N  
HETATM   10  C   UNL     1      -9.310   6.207  68.301  1.00  0.00    -0.116 C  
HETATM   11  H   UNL     1     -10.800   6.061  66.857  1.00  0.00     0.000 HD 
HETATM   12  O   UNL     1      -8.393   5.652  68.894  1.00  0.00    -0.102 OA 
BRANCH  10  13
HETATM   13  C   UNL     1      -9.743   7.608  68.639  1.00  0.00    -0.157 A  
HETATM   14  C   UNL     1     -10.384   7.907  69.864  1.00  0.00    -0.224 A  
HETATM   15  C   UNL     1     -10.784   9.228  70.127  1.00  0.00    -0.269 A  
HETATM   16  C   UNL     1      -9.548   8.635  67.695  1.00  0.00    -0.190 A  
HETATM   17  C   UNL     1      -9.949   9.941  67.985  1.00  0.00    -0.152 A  
HETATM   18  C   UNL     1     -10.569  10.242  69.194  1.00  0.00    -0.254 A  
BRANCH  14  19
HETATM   19  O   UNL     1     -10.567   6.886  70.759  1.00  0.00    -0.214 OA 
HETATM   20  C   UNL     1     -11.898   6.526  71.105  1.00  0.00    -0.325 C  
ENDBRANCH  14  19
BRANCH  17  21
HETATM   21  S   UNL     1      -9.738  11.222  66.780  1.00  0.00    -0.197 S  
HETATM   22  O   UNL     1     -10.296  10.784  65.523  1.00  0.00    -0.265 OA 
HETATM   23  N   UNL     1     -10.763  12.413  67.361  1.00  0.00    -0.225 N  
HETATM   24  O   UNL     1      -8.400  11.758  66.895  1.00  0.00    -0.163 OA 
HETATM   25  H1  UNL     1     -10.642  13.151  66.667  1.00  0.00     0.000 HD 
HETATM   26  H2  UNL     1     -11.355  12.403  68.192  1.00  0.00     0.000 HD 
ENDBRANCH  17  21
ENDBRANCH  10  13
ENDBRANCH   8   9
ENDBRANCH   7   8
ENDBRANCH   2   3
TORSDOF 6
ENDMDL
MODEL      246
REMARK 921   NORMALIZED FREE ENERGY PREDICTED BY IDOCK:   -2.68 KCAL/MOL
REMARK 922        TOTAL FREE ENERGY PREDICTED BY IDOCK:   -4.70 KCAL/MOL
REMARK 923 INTER-LIGAND FREE ENERGY PREDICTED BY IDOCK:   -4.19 KCAL/MOL
REMARK 924 INTRA-LIGAND FREE ENERGY PREDICTED BY IDOCK:   -0.51 KCAL/MOL
REMARK 927      BINDING AFFINITY PREDICTED BY RF-SCORE:    0.00 PKD
ROOT
HETATM    1  C   UNL     1      -9.311  13.298  68.316  1.00  0.00    -0.205 C  
HETATM    2  C   UNL     1      -9.356  12.750  66.892  1.00  0.00    -0.234 C  
ENDROOT
BRANCH   2   3
HETATM    3  N   UNL     1      -9.515  11.288  66.848  1.00  0.00    -0.175 NA 
HETATM    4  C   UNL     1     -10.231  10.842  65.648  1.00  0.00    -0.263 C  
HETATM    5  C   UNL     1      -9.889   9.370  65.584  1.00  0.00    -0.294 C  
HETATM    6  C   UNL     1      -8.427   9.328  65.987  1.00  0.00    -0.144 C  
HETATM    7  C   UNL     1      -8.199  10.595  66.826  1.00  0.00    -0.130 C  
BRANCH   7   8
HETATM    8  C   UNL     1      -7.703  10.261  68.252  1.00  0.00    -0.092 C  
BRANCH   8   9
HETATM    9  N   UNL     1      -8.024   8.908  68.694  1.00  0.00    -0.102 N  
HETATM   10  C   UNL     1      -9.149   8.629  69.454  1.00  0.00    -0.149 C  
HETATM   11  H   UNL     1      -7.401   8.143  68.436  1.00  0.00     0.000 HD 
HETATM   12  O   UNL     1      -9.910   9.512  69.829  1.00  0.00    -0.188 OA 
BRANCH  10  13
HETATM   13  C   UNL     1      -9.369   7.184  69.813  1.00  0.00    -0.146 A  
HETATM   14  C   UNL     1      -9.877   6.807  71.078  1.00  0.00    -0.182 A  
HETATM   15  C   UNL     1     -10.050   5.444  71.372  1.00  0.00    -0.262 A  
HETATM   16  C   UNL     1      -9.016   6.184  68.886  1.00  0.00    -0.124 A  
HETATM   17  C   UNL     1      -9.205   4.836  69.200  1.00  0.00    -0.123 A  
HETATM   18  C   UNL     1      -9.716   4.461  70.440  1.00  0.00    -0.284 A  
BRANCH  14  19
HETATM   19  O   UNL     1     -10.204   7.802  71.961  1.00  0.00    -0.186 OA 
HETATM   20  C   UNL     1     -10.530   7.434  73.296  1.00  0.00    -0.374 C  
ENDBRANCH  14  19
BRANCH  17  21
HETATM   21  S   UNL     1      -8.725   3.580  68.049  1.00  0.00    -0.117 S  
HETATM   22  O   UNL     1      -9.210   2.303  68.514  1.00  0.00    -0.144 OA 
HETATM   23  N   UNL     1      -9.646   3.973  66.706  1.00  0.00    -0.206 N  
HETATM   24  O   UNL     1      -7.348   3.798  67.664  1.00  0.00    -0.065 OA 
HETATM   25  H1  UNL     1      -9.370   3.249  66.043  1.00  0.00     0.000 HD 
HETATM   26  H2  UNL     1     -10.311   4.737  66.584  1.00  0.00     0.000 HD 
ENDBRANCH  17  21
ENDBRANCH  10  13
ENDBRANCH   8   9
ENDBRANCH   7   8
ENDBRANCH   2   3
TORSDOF 6
ENDMDL
MODEL      247
REMARK 921   NORMALIZED FREE ENERGY PREDICTED BY IDOCK:   -2.64 KCAL/MOL
REMARK 922        TOTAL FREE ENERGY PREDICTED BY IDOCK:   -4.65 KCAL/MOL
REMARK 923 INTER-LIGAND FREE ENERGY PREDICTED BY IDOCK:   -4.00 KCAL/MOL
REMARK 924 INTRA-LIGAND FREE ENERGY PREDICTED BY IDOCK:   -0.66 KCAL/MOL
REMARK 927      BINDING AFFINITY PREDICTED BY RF-SCORE:    0.00 PKD
ROOT
HETATM    1  C   UNL     1     -12.459   7.019  71.532  1.00  0.00    -0.426 C  
HETATM    2  C   UNL     1     -11.325   6.167  70.968  1.00  0.00    -0.282 C  
ENDROOT
BRANCH   2   3
HETATM    3  N   UNL     1     -10.050   6.372  71.673  1.00  0.00    -0.186 NA 
HETATM    4  C   UNL     1      -9.569   5.148  72.321  1.00  0.00    -0.150 C  
HETATM    5  C   UNL     1      -8.109   5.456  72.571  1.00  0.00    -0.103 C  
HETATM    6  C   UNL     1      -7.683   6.194  71.316  1.00  0.00    -0.106 C  
HETATM    7  C   UNL     1      -8.973   6.799  70.740  1.00  0.00    -0.151 C  
BRANCH   7   8
HETATM    8  C   UNL     1      -8.888   8.339  70.628  1.00  0.00    -0.143 C  
BRANCH   8   9
HETATM    9  N   UNL     1      -8.769   8.833  69.261  1.00  0.00    -0.134 N  
HETATM   10  C   UNL     1      -9.877   9.061  68.461  1.00  0.00    -0.169 C  
HETATM   11  H   UNL     1      -7.840   9.017  68.881  1.00  0.00     0.000 HD 
HETATM   12  O   UNL     1     -11.014   8.818  68.848  1.00  0.00    -0.071 OA 
BRANCH  10  13
HETATM   13  C   UNL     1      -9.605   9.599  67.082  1.00  0.00    -0.210 A  
HETATM   14  C   UNL     1     -10.105  10.856  66.668  1.00  0.00    -0.219 A  
HETATM   15  C   UNL     1      -9.836  11.307  65.364  1.00  0.00    -0.281 A  
HETATM   16  C   UNL     1      -8.876   8.812  66.169  1.00  0.00    -0.201 A  
HETATM   17  C   UNL     1      -8.617   9.288  64.881  1.00  0.00    -0.181 A  
HETATM   18  C   UNL     1      -9.097  10.529  64.474  1.00  0.00    -0.251 A  
BRANCH  14  19
HETATM   19  O   UNL     1     -10.817  11.594  67.575  1.00  0.00    -0.213 OA 
HETATM   20  C   UNL     1     -12.117  12.038  67.208  1.00  0.00     0.185 C  
ENDBRANCH  14  19
BRANCH  17  21
HETATM   21  S   UNL     1      -7.734   8.280  63.724  1.00  0.00    -0.151 S  
HETATM   22  O   UNL     1      -6.324   8.342  64.024  1.00  0.00    -0.066 OA 
HETATM   23  N   UNL     1      -8.240   6.741  64.150  1.00  0.00    -0.323 N  
HETATM   24  O   UNL     1      -8.259   8.519  62.398  1.00  0.00    -0.164 OA 
HETATM   25  H1  UNL     1      -7.731   6.161  63.483  1.00  0.00     0.000 HD 
HETATM   26  H2  UNL     1      -8.887   6.458  64.885  1.00  0.00     0.000 HD 
ENDBRANCH  17  21
ENDBRANCH  10  13
ENDBRANCH   8   9
ENDBRANCH   7   8
ENDBRANCH   2   3
TORSDOF 6
ENDMDL
MODEL      248
REMARK 921   NORMALIZED FREE ENERGY PREDICTED BY IDOCK:   -2.61 KCAL/MOL
REMARK 922        TOTAL FREE ENERGY PREDICTED BY IDOCK:   -4.61 KCAL/MOL
REMARK 923 INTER-LIGAND FREE ENERGY PREDICTED BY IDOCK:   -4.34 KCAL/MOL
REMARK 924 INTRA-LIGAND FREE ENERGY PREDICTED BY IDOCK:   -0.26 KCAL/MOL
REMARK 927      BINDING AFFINITY PREDICTED BY RF-SCORE:    0.00 PKD
ROOT
HETATM    1  C   UNL     1     -10.489  16.309  68.297  1.00  0.00    -0.284 C  
HETATM    2  C   UNL     1     -10.300  15.541  66.992  1.00  0.00    -0.279 C  
ENDROOT
BRANCH   2   3
HETATM    3  N   UNL     1     -11.386  14.583  66.730  1.00  0.00    -0.342 NA 
HETATM    4  C   UNL     1     -11.894  14.679  65.359  1.00  0.00    -0.304 C  
HETATM    5  C   UNL     1     -12.632  13.369  65.184  1.00  0.00    -0.495 C  
HETATM    6  C   UNL     1     -11.738  12.364  65.885  1.00  0.00    -0.476 C  
HETATM    7  C   UNL     1     -10.929  13.178  66.906  1.00  0.00    -0.276 C  
BRANCH   7   8
HETATM    8  C   UNL     1     -11.155  12.678  68.352  1.00  0.00    -0.265 C  
BRANCH   8   9
HETATM    9  N   UNL     1     -10.423  11.461  68.685  1.00  0.00    -0.195 N  
HETATM   10  C   UNL     1      -9.057  11.345  68.483  1.00  0.00    -0.169 C  
HETATM   11  H   UNL     1     -10.932  10.670  69.078  1.00  0.00     0.000 HD 
HETATM   12  O   UNL     1      -8.400  12.245  67.975  1.00  0.00    -0.148 OA 
BRANCH  10  13
HETATM   13  C   UNL     1      -8.430  10.042  68.900  1.00  0.00    -0.132 A  
HETATM   14  C   UNL     1      -7.460   9.985  69.928  1.00  0.00    -0.167 A  
HETATM   15  C   UNL     1      -6.892   8.746  70.270  1.00  0.00    -0.042 A  
HETATM   16  C   UNL     1      -8.783   8.860  68.219  1.00  0.00    -0.134 A  
HETATM   17  C   UNL     1      -8.208   7.640  68.584  1.00  0.00    -0.128 A  
HETATM   18  C   UNL     1      -7.262   7.578  69.603  1.00  0.00    -0.077 A  
BRANCH  14  19
HETATM   19  O   UNL     1      -7.132  11.151  70.567  1.00  0.00     0.141 OA 
HETATM   20  C   UNL     1      -5.814  11.660  70.402  1.00  0.00    -0.156 C  
ENDBRANCH  14  19
BRANCH  17  21
HETATM   21  S   UNL     1      -8.624   6.163  67.700  1.00  0.00    -0.105 S  
HETATM   22  O   UNL     1     -10.001   6.241  67.274  1.00  0.00    -0.127 OA 
HETATM   23  N   UNL     1      -7.694   6.316  66.316  1.00  0.00    -0.097 N  
HETATM   24  O   UNL     1      -8.092   5.024  68.414  1.00  0.00    -0.086 OA 
HETATM   25  H1  UNL     1      -7.934   5.466  65.807  1.00  0.00     0.000 HD 
HETATM   26  H2  UNL     1      -7.054   7.065  66.051  1.00  0.00     0.000 HD 
ENDBRANCH  17  21
ENDBRANCH  10  13
ENDBRANCH   8   9
ENDBRANCH   7   8
ENDBRANCH   2   3
TORSDOF 6
ENDMDL
MODEL      249
REMARK 921   NORMALIZED FREE ENERGY PREDICTED BY IDOCK:   -2.60 KCAL/MOL
REMARK 922        TOTAL FREE ENERGY PREDICTED BY IDOCK:   -4.60 KCAL/MOL
REMARK 923 INTER-LIGAND FREE ENERGY PREDICTED BY IDOCK:   -4.43 KCAL/MOL
REMARK 924 INTRA-LIGAND FREE ENERGY PREDICTED BY IDOCK:   -0.17 KCAL/MOL
REMARK 927      BINDING AFFINITY PREDICTED BY RF-SCORE:    0.00 PKD
ROOT
HETATM    1  C   UNL     1     -12.107  12.919  63.347  1.00  0.00    -0.610 C  
HETATM    2  C   UNL     1     -10.928  12.221  64.020  1.00  0.00    -0.383 C  
ENDROOT
BRANCH   2   3
HETATM    3  N   UNL     1     -10.320  13.028  65.089  1.00  0.00    -0.302 NA 
HETATM    4  C   UNL     1     -11.117  14.216  65.410  1.00  0.00    -0.321 C  
HETATM    5  C   UNL     1     -10.582  14.619  66.768  1.00  0.00    -0.288 C  
HETATM    6  C   UNL     1     -10.377  13.292  67.475  1.00  0.00    -0.229 C  
HETATM    7  C   UNL     1     -10.199  12.255  66.354  1.00  0.00    -0.225 C  
BRANCH   7   8
HETATM    8  C   UNL     1      -8.838  11.528  66.454  1.00  0.00    -0.193 C  
BRANCH   8   9
HETATM    9  N   UNL     1      -8.940  10.114  66.800  1.00  0.00    -0.132 N  
HETATM   10  C   UNL     1      -8.983   9.678  68.114  1.00  0.00    -0.123 C  
HETATM   11  H   UNL     1      -8.981   9.425  66.049  1.00  0.00     0.000 HD 
HETATM   12  O   UNL     1      -8.895  10.456  69.056  1.00  0.00    -0.154 OA 
BRANCH  10  13
HETATM   13  C   UNL     1      -9.118   8.193  68.320  1.00  0.00    -0.135 A  
HETATM   14  C   UNL     1      -9.009   7.613  69.605  1.00  0.00    -0.140 A  
HETATM   15  C   UNL     1      -9.127   6.219  69.742  1.00  0.00    -0.143 A  
HETATM   16  C   UNL     1      -9.311   7.360  67.201  1.00  0.00    -0.172 A  
HETATM   17  C   UNL     1      -9.432   5.978  67.366  1.00  0.00    -0.111 A  
HETATM   18  C   UNL     1      -9.337   5.403  68.631  1.00  0.00    -0.147 A  
BRANCH  14  19
HETATM   19  O   UNL     1      -8.814   8.448  70.672  1.00  0.00    -0.135 OA 
HETATM   20  C   UNL     1      -8.046   7.969  71.769  1.00  0.00    -0.117 C  
ENDBRANCH  14  19
BRANCH  17  21
HETATM   21  S   UNL     1      -9.635   4.928  65.955  1.00  0.00    -0.180 S  
HETATM   22  O   UNL     1     -10.920   5.191  65.353  1.00  0.00     0.117 OA 
HETATM   23  N   UNL     1      -8.487   5.543  64.901  1.00  0.00    -0.153 N  
HETATM   24  O   UNL     1      -9.191   3.595  66.294  1.00  0.00    -0.152 OA 
HETATM   25  H1  UNL     1      -8.604   4.939  64.087  1.00  0.00     0.000 HD 
HETATM   26  H2  UNL     1      -7.840   6.319  65.036  1.00  0.00     0.000 HD 
ENDBRANCH  17  21
ENDBRANCH  10  13
ENDBRANCH   8   9
ENDBRANCH   7   8
ENDBRANCH   2   3
TORSDOF 6
ENDMDL
MODEL      250
REMARK 921   NORMALIZED FREE ENERGY PREDICTED BY IDOCK:   -2.54 KCAL/MOL
REMARK 922        TOTAL FREE ENERGY PREDICTED BY IDOCK:   -4.52 KCAL/MOL
REMARK 923 INTER-LIGAND FREE ENERGY PREDICTED BY IDOCK:   -3.84 KCAL/MOL
REMARK 924 INTRA-LIGAND FREE ENERGY PREDICTED BY IDOCK:   -0.68 KCAL/MOL
REMARK 927      BINDING AFFINITY PREDICTED BY RF-SCORE:    0.00 PKD
ROOT
HETATM    1  C   UNL     1      -8.531  13.988  68.363  1.00  0.00    -0.166 C  
HETATM    2  C   UNL     1      -7.557  13.145  67.544  1.00  0.00    -0.163 C  
ENDROOT
BRANCH   2   3
HETATM    3  N   UNL     1      -7.920  11.719  67.516  1.00  0.00    -0.139 NA 
HETATM    4  C   UNL     1      -8.032  11.201  66.149  1.00  0.00    -0.090 C  
HETATM    5  C   UNL     1      -7.956   9.704  66.353  1.00  0.00    -0.108 C  
HETATM    6  C   UNL     1      -6.901   9.547  67.432  1.00  0.00    -0.083 C  
HETATM    7  C   UNL     1      -6.895  10.882  68.194  1.00  0.00    -0.067 C  
BRANCH   7   8
HETATM    8  C   UNL     1      -7.213  10.689  69.695  1.00  0.00    -0.139 C  
BRANCH   8   9
HETATM    9  N   UNL     1      -7.749   9.373  70.028  1.00  0.00    -0.105 N  
HETATM   10  C   UNL     1      -9.110   9.113  70.036  1.00  0.00    -0.192 C  
HETATM   11  H   UNL     1      -7.101   8.621  70.263  1.00  0.00     0.000 HD 
HETATM   12  O   UNL     1      -9.936   9.987  69.805  1.00  0.00    -0.225 OA 
BRANCH  10  13
HETATM   13  C   UNL     1      -9.517   7.703  70.370  1.00  0.00    -0.164 A  
HETATM   14  C   UNL     1     -10.328   6.942  69.497  1.00  0.00    -0.207 A  
HETATM   15  C   UNL     1     -10.694   5.635  69.861  1.00  0.00    -0.399 A  
HETATM   16  C   UNL     1      -9.119   7.147  71.602  1.00  0.00    -0.141 A  
HETATM   17  C   UNL     1      -9.491   5.843  71.937  1.00  0.00    -0.151 A  
HETATM   18  C   UNL     1     -10.280   5.086  71.074  1.00  0.00    -0.283 A  
BRANCH  14  19
HETATM   19  O   UNL     1     -10.705   7.513  68.310  1.00  0.00    -0.167 OA 
HETATM   20  C   UNL     1     -10.994   6.654  67.214  1.00  0.00    -0.385 C  
ENDBRANCH  14  19
BRANCH  17  21
HETATM   21  S   UNL     1      -9.023   5.160  73.502  1.00  0.00    -0.117 S  
HETATM   22  O   UNL     1      -9.320   3.747  73.508  1.00  0.00    -0.100 OA 
HETATM   23  N   UNL     1      -7.354   5.289  73.449  1.00  0.00    -0.093 N  
HETATM   24  O   UNL     1      -9.459   6.052  74.552  1.00  0.00    -0.155 OA 
HETATM   25  H1  UNL     1      -7.084   4.896  74.351  1.00  0.00     0.000 HD 
HETATM   26  H2  UNL     1      -6.762   5.664  72.709  1.00  0.00     0.000 HD 
ENDBRANCH  17  21
ENDBRANCH  10  13
ENDBRANCH   8   9
ENDBRANCH   7   8
ENDBRANCH   2   3
TORSDOF 6
ENDMDL
MODEL      251
REMARK 921   NORMALIZED FREE ENERGY PREDICTED BY IDOCK:   -2.54 KCAL/MOL
REMARK 922        TOTAL FREE ENERGY PREDICTED BY IDOCK:   -4.51 KCAL/MOL
REMARK 923 INTER-LIGAND FREE ENERGY PREDICTED BY IDOCK:   -4.14 KCAL/MOL
REMARK 924 INTRA-LIGAND FREE ENERGY PREDICTED BY IDOCK:   -0.37 KCAL/MOL
REMARK 927      BINDING AFFINITY PREDICTED BY RF-SCORE:    0.00 PKD
ROOT
HETATM    1  C   UNL     1     -11.984  15.813  70.952  1.00  0.00    -0.453 C  
HETATM    2  C   UNL     1     -10.795  15.753  69.997  1.00  0.00    -0.342 C  
ENDROOT
BRANCH   2   3
HETATM    3  N   UNL     1     -11.158  16.082  68.610  1.00  0.00    -0.329 NA 
HETATM    4  C   UNL     1     -11.027  17.514  68.325  1.00  0.00    -0.099 C  
HETATM    5  C   UNL     1     -11.001  17.552  66.813  1.00  0.00     0.170 C  
HETATM    6  C   UNL     1     -10.159  16.345  66.443  1.00  0.00    -0.328 C  
HETATM    7  C   UNL     1     -10.280  15.382  67.635  1.00  0.00    -0.246 C  
BRANCH   7   8
HETATM    8  C   UNL     1     -10.865  14.015  67.214  1.00  0.00    -0.284 C  
BRANCH   8   9
HETATM    9  N   UNL     1      -9.979  12.883  67.466  1.00  0.00    -0.212 N  
HETATM   10  C   UNL     1     -10.206  11.633  66.912  1.00  0.00    -0.214 C  
HETATM   11  H   UNL     1      -9.167  13.015  68.068  1.00  0.00     0.000 HD 
HETATM   12  O   UNL     1     -11.186  11.403  66.215  1.00  0.00    -0.270 OA 
BRANCH  10  13
HETATM   13  C   UNL     1      -9.193  10.567  67.235  1.00  0.00    -0.156 A  
HETATM   14  C   UNL     1      -7.907  10.895  67.723  1.00  0.00    -0.109 A  
HETATM   15  C   UNL     1      -6.991   9.864  67.995  1.00  0.00    -0.077 A  
HETATM   16  C   UNL     1      -9.519   9.217  67.001  1.00  0.00    -0.201 A  
HETATM   17  C   UNL     1      -8.592   8.211  67.287  1.00  0.00    -0.124 A  
HETATM   18  C   UNL     1      -7.329   8.528  67.779  1.00  0.00    -0.093 A  
BRANCH  14  19
HETATM   19  O   UNL     1      -7.617  12.217  67.933  1.00  0.00    -0.104 OA 
HETATM   20  C   UNL     1      -6.250  12.602  68.001  1.00  0.00    -0.094 C  
ENDBRANCH  14  19
BRANCH  17  21
HETATM   21  S   UNL     1      -8.990   6.518  66.955  1.00  0.00    -0.124 S  
HETATM   22  O   UNL     1      -8.295   5.676  67.901  1.00  0.00    -0.101 OA 
HETATM   23  N   UNL     1     -10.611   6.456  67.372  1.00  0.00    -0.251 N  
HETATM   24  O   UNL     1      -8.936   6.294  65.528  1.00  0.00    -0.095 OA 
HETATM   25  H1  UNL     1     -10.840   5.480  67.181  1.00  0.00     0.000 HD 
HETATM   26  H2  UNL     1     -11.212   7.200  67.725  1.00  0.00     0.000 HD 
ENDBRANCH  17  21
ENDBRANCH  10  13
ENDBRANCH   8   9
ENDBRANCH   7   8
ENDBRANCH   2   3
TORSDOF 6
ENDMDL
MODEL      252
REMARK 921   NORMALIZED FREE ENERGY PREDICTED BY IDOCK:   -2.51 KCAL/MOL
REMARK 922        TOTAL FREE ENERGY PREDICTED BY IDOCK:   -4.47 KCAL/MOL
REMARK 923 INTER-LIGAND FREE ENERGY PREDICTED BY IDOCK:   -3.70 KCAL/MOL
REMARK 924 INTRA-LIGAND FREE ENERGY PREDICTED BY IDOCK:   -0.78 KCAL/MOL
REMARK 927      BINDING AFFINITY PREDICTED BY RF-SCORE:    0.00 PKD
ROOT
HETATM    1  C   UNL     1      -8.171   7.295  70.869  1.00  0.00    -0.115 C  
HETATM    2  C   UNL     1      -9.121   6.439  70.036  1.00  0.00    -0.150 C  
ENDROOT
BRANCH   2   3
HETATM    3  N   UNL     1      -8.690   6.305  68.636  1.00  0.00    -0.121 NA 
HETATM    4  C   UNL     1      -7.635   5.300  68.473  1.00  0.00    -0.079 C  
HETATM    5  C   UNL     1      -7.674   5.014  66.987  1.00  0.00    -0.092 C  
HETATM    6  C   UNL     1      -9.157   5.015  66.666  1.00  0.00    -0.119 C  
HETATM    7  C   UNL     1      -9.811   5.876  67.758  1.00  0.00    -0.124 C  
BRANCH   7   8
HETATM    8  C   UNL     1     -10.568   7.085  67.161  1.00  0.00    -0.341 C  
BRANCH   8   9
HETATM    9  N   UNL     1     -10.113   8.379  67.658  1.00  0.00    -0.194 N  
HETATM   10  C   UNL     1      -9.913   9.462  66.817  1.00  0.00    -0.239 C  
HETATM   11  H   UNL     1      -9.936   8.491  68.656  1.00  0.00     0.000 HD 
HETATM   12  O   UNL     1     -10.068   9.376  65.605  1.00  0.00    -0.261 OA 
BRANCH  10  13
HETATM   13  C   UNL     1      -9.470  10.743  67.472  1.00  0.00    -0.168 A  
HETATM   14  C   UNL     1      -8.163  10.893  67.990  1.00  0.00    -0.121 A  
HETATM   15  C   UNL     1      -7.803  12.103  68.607  1.00  0.00    -0.078 A  
HETATM   16  C   UNL     1     -10.394  11.796  67.615  1.00  0.00    -0.219 A  
HETATM   17  C   UNL     1     -10.008  12.991  68.227  1.00  0.00    -0.235 A  
HETATM   18  C   UNL     1      -8.718  13.148  68.727  1.00  0.00     0.159 A  
BRANCH  14  19
HETATM   19  O   UNL     1      -7.289   9.849  67.843  1.00  0.00    -0.087 OA 
HETATM   20  C   UNL     1      -6.146   9.805  68.687  1.00  0.00    -0.042 C  
ENDBRANCH  14  19
BRANCH  17  21
HETATM   21  S   UNL     1     -11.182  14.299  68.441  1.00  0.00    -0.285 S  
HETATM   22  O   UNL     1     -11.175  14.719  69.822  1.00  0.00    -0.260 OA 
HETATM   23  N   UNL     1     -10.476  15.542  67.567  1.00  0.00    -0.276 N  
HETATM   24  O   UNL     1     -12.398  13.958  67.736  1.00  0.00    -0.252 OA 
HETATM   25  H1  UNL     1     -11.152  16.296  67.690  1.00  0.00     0.000 HD 
HETATM   26  H2  UNL     1      -9.599  15.545  67.048  1.00  0.00     0.000 HD 
ENDBRANCH  17  21
ENDBRANCH  10  13
ENDBRANCH   8   9
ENDBRANCH   7   8
ENDBRANCH   2   3
TORSDOF 6
ENDMDL
MODEL      253
REMARK 921   NORMALIZED FREE ENERGY PREDICTED BY IDOCK:   -2.36 KCAL/MOL
REMARK 922        TOTAL FREE ENERGY PREDICTED BY IDOCK:   -4.26 KCAL/MOL
REMARK 923 INTER-LIGAND FREE ENERGY PREDICTED BY IDOCK:   -3.88 KCAL/MOL
REMARK 924 INTRA-LIGAND FREE ENERGY PREDICTED BY IDOCK:   -0.39 KCAL/MOL
REMARK 927      BINDING AFFINITY PREDICTED BY RF-SCORE:    0.00 PKD
ROOT
HETATM    1  C   UNL     1     -12.795  11.783  62.857  1.00  0.00     0.379 C  
HETATM    2  C   UNL     1     -11.298  11.542  63.031  1.00  0.00     0.211 C  
ENDROOT
BRANCH   2   3
HETATM    3  N   UNL     1     -10.907  11.363  64.438  1.00  0.00    -0.342 NA 
HETATM    4  C   UNL     1     -10.034  10.201  64.630  1.00  0.00    -0.234 C  
HETATM    5  C   UNL     1      -9.418  10.468  65.986  1.00  0.00    -0.227 C  
HETATM    6  C   UNL     1      -9.158  11.962  65.968  1.00  0.00    -0.120 C  
HETATM    7  C   UNL     1     -10.153  12.539  64.949  1.00  0.00    -0.226 C  
BRANCH   7   8
HETATM    8  C   UNL     1     -11.090  13.589  65.588  1.00  0.00    -0.289 C  
BRANCH   8   9
HETATM    9  N   UNL     1     -10.396  14.638  66.328  1.00  0.00    -0.285 N  
HETATM   10  C   UNL     1     -10.250  15.921  65.825  1.00  0.00    -0.365 C  
HETATM   11  H   UNL     1     -10.005  14.420  67.244  1.00  0.00     0.000 HD 
HETATM   12  O   UNL     1     -10.661  16.229  64.714  1.00  0.00    -0.680 OA 
BRANCH  10  13
HETATM   13  C   UNL     1      -9.537  16.907  66.711  1.00  0.00    -0.273 A  
HETATM   14  C   UNL     1      -9.948  18.258  66.792  1.00  0.00    -0.352 A  
HETATM   15  C   UNL     1      -9.240  19.143  67.622  1.00  0.00    -0.349 A  
HETATM   16  C   UNL     1      -8.407  16.485  67.437  1.00  0.00    -0.188 A  
HETATM   17  C   UNL     1      -7.724  17.385  68.260  1.00  0.00    -0.241 A  
HETATM   18  C   UNL     1      -8.133  18.712  68.352  1.00  0.00    -0.360 A  
BRANCH  14  19
HETATM   19  O   UNL     1     -11.046  18.640  66.068  1.00  0.00     0.043 OA 
HETATM   20  C   UNL     1     -11.008  19.896  65.403  1.00  0.00     0.105 C  
ENDBRANCH  14  19
BRANCH  17  21
HETATM   21  S   UNL     1      -6.281  16.862  69.142  1.00  0.00    -0.208 S  
HETATM   22  O   UNL     1      -6.327  17.396  70.482  1.00  0.00     0.362 OA 
HETATM   23  N   UNL     1      -6.541  15.213  69.283  1.00  0.00    -0.128 N  
HETATM   24  O   UNL     1      -5.127  17.011  68.283  1.00  0.00    -0.115 OA 
HETATM   25  H1  UNL     1      -5.710  14.912  69.791  1.00  0.00     0.000 HD 
HETATM   26  H2  UNL     1      -7.327  14.656  68.949  1.00  0.00     0.000 HD 
ENDBRANCH  17  21
ENDBRANCH  10  13
ENDBRANCH   8   9
ENDBRANCH   7   8
ENDBRANCH   2   3
TORSDOF 6
ENDMDL
MODEL      254
REMARK 921   NORMALIZED FREE ENERGY PREDICTED BY IDOCK:   -2.34 KCAL/MOL
REMARK 922        TOTAL FREE ENERGY PREDICTED BY IDOCK:   -4.24 KCAL/MOL
REMARK 923 INTER-LIGAND FREE ENERGY PREDICTED BY IDOCK:   -4.17 KCAL/MOL
REMARK 924 INTRA-LIGAND FREE ENERGY PREDICTED BY IDOCK:   -0.07 KCAL/MOL
REMARK 927      BINDING AFFINITY PREDICTED BY RF-SCORE:    0.00 PKD
ROOT
HETATM    1  C   UNL     1     -12.800  11.649  62.712  1.00  0.00     0.828 C  
HETATM    2  C   UNL     1     -11.420  11.148  63.132  1.00  0.00     0.602 C  
ENDROOT
BRANCH   2   3
HETATM    3  N   UNL     1     -11.069  11.529  64.509  1.00  0.00    -0.304 NA 
HETATM    4  C   UNL     1     -10.161  10.565  65.138  1.00  0.00    -0.314 C  
HETATM    5  C   UNL     1      -9.598  11.349  66.303  1.00  0.00    -0.237 C  
HETATM    6  C   UNL     1      -9.390  12.737  65.728  1.00  0.00     0.075 C  
HETATM    7  C   UNL     1     -10.373  12.843  64.551  1.00  0.00    -0.357 C  
BRANCH   7   8
HETATM    8  C   UNL     1     -11.366  14.013  64.733  1.00  0.00    -0.366 C  
BRANCH   8   9
HETATM    9  N   UNL     1     -11.155  14.793  65.948  1.00  0.00    -0.335 N  
HETATM   10  C   UNL     1     -10.650  16.083  65.916  1.00  0.00    -0.328 C  
HETATM   11  H   UNL     1     -11.386  14.376  66.849  1.00  0.00     0.000 HD 
HETATM   12  O   UNL     1     -10.315  16.620  64.868  1.00  0.00    -0.577 OA 
BRANCH  10  13
HETATM   13  C   UNL     1     -10.512  16.778  67.245  1.00  0.00    -0.310 A  
HETATM   14  C   UNL     1      -9.745  17.958  67.384  1.00  0.00    -0.288 A  
HETATM   15  C   UNL     1      -9.635  18.560  68.649  1.00  0.00    -0.382 A  
HETATM   16  C   UNL     1     -11.122  16.213  68.382  1.00  0.00    -0.359 A  
HETATM   17  C   UNL     1     -11.002  16.836  69.626  1.00  0.00    -0.119 A  
HETATM   18  C   UNL     1     -10.258  18.004  69.766  1.00  0.00     0.568 A  
BRANCH  14  19
HETATM   19  O   UNL     1      -9.158  18.479  66.263  1.00  0.00    -0.393 OA 
HETATM   20  C   UNL     1      -8.605  19.787  66.340  1.00  0.00    -0.360 C  
ENDBRANCH  14  19
BRANCH  17  21
HETATM   21  S   UNL     1     -11.737  16.103  71.061  1.00  0.00    -0.279 S  
HETATM   22  O   UNL     1     -13.122  15.806  70.782  1.00  0.00    -0.522 OA 
HETATM   23  N   UNL     1     -10.946  14.629  71.138  1.00  0.00    -0.407 N  
HETATM   24  O   UNL     1     -11.319  16.842  72.231  1.00  0.00    -0.000 OA 
HETATM   25  H1  UNL     1     -11.369  14.206  71.965  1.00  0.00     0.000 HD 
HETATM   26  H2  UNL     1     -10.227  14.251  70.520  1.00  0.00     0.000 HD 
ENDBRANCH  17  21
ENDBRANCH  10  13
ENDBRANCH   8   9
ENDBRANCH   7   8
ENDBRANCH   2   3
TORSDOF 6
ENDMDL
MODEL      255
REMARK 921   NORMALIZED FREE ENERGY PREDICTED BY IDOCK:   -2.30 KCAL/MOL
REMARK 922        TOTAL FREE ENERGY PREDICTED BY IDOCK:   -4.19 KCAL/MOL
REMARK 923 INTER-LIGAND FREE ENERGY PREDICTED BY IDOCK:   -3.47 KCAL/MOL
REMARK 924 INTRA-LIGAND FREE ENERGY PREDICTED BY IDOCK:   -0.72 KCAL/MOL
REMARK 927      BINDING AFFINITY PREDICTED BY RF-SCORE:    0.00 PKD
ROOT
HETATM    1  C   UNL     1     -13.737   6.729  72.060  1.00  0.00    -0.049 C  
HETATM    2  C   UNL     1     -12.384   6.879  71.370  1.00  0.00    -0.376 C  
ENDROOT
BRANCH   2   3
HETATM    3  N   UNL     1     -12.146   8.242  70.871  1.00  0.00    -0.203 NA 
HETATM    4  C   UNL     1     -13.389   8.924  70.499  1.00  0.00     0.813 C  
HETATM    5  C   UNL     1     -12.973  10.379  70.460  1.00  0.00    -0.280 C  
HETATM    6  C   UNL     1     -12.040  10.511  71.649  1.00  0.00    -0.197 C  
HETATM    7  C   UNL     1     -11.497   9.096  71.902  1.00  0.00    -0.353 C  
BRANCH   7   8
HETATM    8  C   UNL     1      -9.955   9.044  71.803  1.00  0.00    -0.289 C  
BRANCH   8   9
HETATM    9  N   UNL     1      -9.455   8.394  70.596  1.00  0.00    -0.163 N  
HETATM   10  C   UNL     1      -9.249   9.089  69.416  1.00  0.00    -0.150 C  
HETATM   11  H   UNL     1      -9.251   7.395  70.622  1.00  0.00     0.000 HD 
HETATM   12  O   UNL     1      -9.517  10.280  69.313  1.00  0.00    -0.198 OA 
BRANCH  10  13
HETATM   13  C   UNL     1      -8.702   8.295  68.260  1.00  0.00    -0.136 A  
HETATM   14  C   UNL     1      -7.563   8.726  67.541  1.00  0.00    -0.093 A  
HETATM   15  C   UNL     1      -7.100   7.957  66.460  1.00  0.00    -0.075 A  
HETATM   16  C   UNL     1      -9.369   7.121  67.858  1.00  0.00    -0.128 A  
HETATM   17  C   UNL     1      -8.883   6.371  66.783  1.00  0.00    -0.124 A  
HETATM   18  C   UNL     1      -7.755   6.786  66.081  1.00  0.00    -0.091 A  
BRANCH  14  19
HETATM   19  O   UNL     1      -6.941   9.875  67.952  1.00  0.00    -0.079 OA 
HETATM   20  C   UNL     1      -6.854  10.957  67.033  1.00  0.00    -0.100 C  
ENDBRANCH  14  19
BRANCH  17  21
HETATM   21  S   UNL     1      -9.745   4.918  66.254  1.00  0.00    -0.211 S  
HETATM   22  O   UNL     1      -9.733   3.947  67.323  1.00  0.00    -0.204 OA 
HETATM   23  N   UNL     1     -11.321   5.473  66.140  1.00  0.00    -0.627 N  
HETATM   24  O   UNL     1      -9.337   4.596  64.905  1.00  0.00    -0.155 OA 
HETATM   25  H1  UNL     1     -11.817   4.636  65.835  1.00  0.00     0.000 HD 
HETATM   26  H2  UNL     1     -11.689   6.406  66.327  1.00  0.00     0.000 HD 
ENDBRANCH  17  21
ENDBRANCH  10  13
ENDBRANCH   8   9
ENDBRANCH   7   8
ENDBRANCH   2   3
TORSDOF 6
ENDMDL
MODEL      256
REMARK 921   NORMALIZED FREE ENERGY PREDICTED BY IDOCK:   -2.21 KCAL/MOL
REMARK 922        TOTAL FREE ENERGY PREDICTED BY IDOCK:   -4.07 KCAL/MOL
REMARK 923 INTER-LIGAND FREE ENERGY PREDICTED BY IDOCK:   -3.16 KCAL/MOL
REMARK 924 INTRA-LIGAND FREE ENERGY PREDICTED BY IDOCK:   -0.91 KCAL/MOL
REMARK 927      BINDING AFFINITY PREDICTED BY RF-SCORE:    0.00 PKD
ROOT
HETATM    1  C   UNL     1     -10.351   9.089  70.850  1.00  0.00    -0.323 C  
HETATM    2  C   UNL     1      -9.974   7.902  71.732  1.00  0.00    -0.177 C  
ENDROOT
BRANCH   2   3
HETATM    3  N   UNL     1      -8.773   8.152  72.544  1.00  0.00    -0.184 NA 
HETATM    4  C   UNL     1      -8.994   7.868  73.965  1.00  0.00    -0.156 C  
HETATM    5  C   UNL     1      -7.584   7.752  74.504  1.00  0.00    -0.219 C  
HETATM    6  C   UNL     1      -6.846   7.010  73.406  1.00  0.00    -0.069 C  
HETATM    7  C   UNL     1      -7.638   7.290  72.119  1.00  0.00    -0.088 C  
BRANCH   7   8
HETATM    8  C   UNL     1      -6.765   7.978  71.044  1.00  0.00    -0.041 C  
BRANCH   8   9
HETATM    9  N   UNL     1      -7.212   7.748  69.675  1.00  0.00    -0.073 N  
HETATM   10  C   UNL     1      -6.695   6.727  68.893  1.00  0.00    -0.053 C  
HETATM   11  H   UNL     1      -7.927   8.358  69.279  1.00  0.00     0.000 HD 
HETATM   12  O   UNL     1      -5.804   5.991  69.299  1.00  0.00    -0.021 OA 
BRANCH  10  13
HETATM   13  C   UNL     1      -7.271   6.590  67.509  1.00  0.00    -0.086 A  
HETATM   14  C   UNL     1      -7.259   7.669  66.595  1.00  0.00    -0.087 A  
HETATM   15  C   UNL     1      -7.823   7.496  65.320  1.00  0.00    -0.120 A  
HETATM   16  C   UNL     1      -7.877   5.375  67.135  1.00  0.00    -0.101 A  
HETATM   17  C   UNL     1      -8.425   5.227  65.858  1.00  0.00    -0.124 A  
HETATM   18  C   UNL     1      -8.404   6.283  64.950  1.00  0.00    -0.076 A  
BRANCH  14  19
HETATM   19  O   UNL     1      -6.669   8.840  66.990  1.00  0.00    -0.064 OA 
HETATM   20  C   UNL     1      -7.121  10.052  66.401  1.00  0.00    -0.102 C  
ENDBRANCH  14  19
BRANCH  17  21
HETATM   21  S   UNL     1      -9.220   3.713  65.403  1.00  0.00    -0.159 S  
HETATM   22  O   UNL     1      -9.453   2.926  66.591  1.00  0.00    -0.104 OA 
HETATM   23  N   UNL     1     -10.722   4.252  64.894  1.00  0.00    -0.644 N  
HETATM   24  O   UNL     1      -8.571   3.176  64.229  1.00  0.00    -0.093 OA 
HETATM   25  H1  UNL     1     -11.181   3.379  64.632  1.00  0.00     0.000 HD 
HETATM   26  H2  UNL     1     -11.084   5.204  64.856  1.00  0.00     0.000 HD 
ENDBRANCH  17  21
ENDBRANCH  10  13
ENDBRANCH   8   9
ENDBRANCH   7   8
ENDBRANCH   2   3
TORSDOF 6
ENDMDL
MODEL      257
REMARK 921   NORMALIZED FREE ENERGY PREDICTED BY IDOCK:   -2.21 KCAL/MOL
REMARK 922        TOTAL FREE ENERGY PREDICTED BY IDOCK:   -4.07 KCAL/MOL
REMARK 923 INTER-LIGAND FREE ENERGY PREDICTED BY IDOCK:   -4.13 KCAL/MOL
REMARK 924 INTRA-LIGAND FREE ENERGY PREDICTED BY IDOCK:    0.06 KCAL/MOL
REMARK 927      BINDING AFFINITY PREDICTED BY RF-SCORE:    0.00 PKD
ROOT
HETATM    1  C   UNL     1     -11.232   6.294  70.399  1.00  0.00    -0.439 C  
HETATM    2  C   UNL     1      -9.947   5.500  70.186  1.00  0.00    -0.221 C  
ENDROOT
BRANCH   2   3
HETATM    3  N   UNL     1      -8.814   6.026  70.964  1.00  0.00    -0.138 NA 
HETATM    4  C   UNL     1      -7.725   5.053  71.089  1.00  0.00    -0.091 C  
HETATM    5  C   UNL     1      -6.552   5.917  71.498  1.00  0.00    -0.054 C  
HETATM    6  C   UNL     1      -6.726   7.169  70.660  1.00  0.00    -0.052 C  
HETATM    7  C   UNL     1      -8.224   7.231  70.322  1.00  0.00    -0.133 C  
BRANCH   7   8
HETATM    8  C   UNL     1      -8.877   8.534  70.837  1.00  0.00    -0.171 C  
BRANCH   8   9
HETATM    9  N   UNL     1      -9.014   9.575  69.824  1.00  0.00    -0.183 N  
HETATM   10  C   UNL     1      -8.053  10.556  69.640  1.00  0.00    -0.043 C  
HETATM   11  H   UNL     1      -9.844   9.580  69.231  1.00  0.00     0.000 HD 
HETATM   12  O   UNL     1      -7.057  10.625  70.349  1.00  0.00    -0.249 OA 
BRANCH  10  13
HETATM   13  C   UNL     1      -8.314  11.547  68.538  1.00  0.00    -0.146 A  
HETATM   14  C   UNL     1      -7.528  12.714  68.394  1.00  0.00    -0.127 A  
HETATM   15  C   UNL     1      -7.822  13.617  67.357  1.00  0.00    -0.162 A  
HETATM   16  C   UNL     1      -9.394  11.330  67.661  1.00  0.00    -0.162 A  
HETATM   17  C   UNL     1      -9.660  12.240  66.634  1.00  0.00    -0.223 A  
HETATM   18  C   UNL     1      -8.881  13.384  66.481  1.00  0.00     0.005 A  
BRANCH  14  19
HETATM   19  O   UNL     1      -6.490  12.901  69.266  1.00  0.00    -0.101 OA 
HETATM   20  C   UNL     1      -6.092  14.234  69.561  1.00  0.00    -0.112 C  
ENDBRANCH  14  19
BRANCH  17  21
HETATM   21  S   UNL     1     -11.042  11.985  65.557  1.00  0.00    -0.308 S  
HETATM   22  O   UNL     1     -12.232  11.799  66.353  1.00  0.00    -0.341 OA 
HETATM   23  N   UNL     1     -11.193  13.486  64.829  1.00  0.00    -0.337 N  
HETATM   24  O   UNL     1     -10.656  11.070  64.507  1.00  0.00    -0.343 OA 
HETATM   25  H1  UNL     1     -11.989  13.340  64.209  1.00  0.00     0.000 HD 
HETATM   26  H2  UNL     1     -10.634  14.328  64.970  1.00  0.00     0.000 HD 
ENDBRANCH  17  21
ENDBRANCH  10  13
ENDBRANCH   8   9
ENDBRANCH   7   8
ENDBRANCH   2   3
TORSDOF 6
ENDMDL
MODEL      258
REMARK 921   NORMALIZED FREE ENERGY PREDICTED BY IDOCK:   -2.17 KCAL/MOL
REMARK 922        TOTAL FREE ENERGY PREDICTED BY IDOCK:   -4.01 KCAL/MOL
REMARK 923 INTER-LIGAND FREE ENERGY PREDICTED BY IDOCK:   -3.45 KCAL/MOL
REMARK 924 INTRA-LIGAND FREE ENERGY PREDICTED BY IDOCK:   -0.56 KCAL/MOL
REMARK 927      BINDING AFFINITY PREDICTED BY RF-SCORE:    0.00 PKD
ROOT
HETATM    1  C   UNL     1      -6.480  20.648  66.747  1.00  0.00    -0.307 C  
HETATM    2  C   UNL     1      -7.129  19.465  67.460  1.00  0.00    -0.214 C  
ENDROOT
BRANCH   2   3
HETATM    3  N   UNL     1      -8.596  19.562  67.509  1.00  0.00    -0.299 NA 
HETATM    4  C   UNL     1      -9.089  20.822  66.944  1.00  0.00    -0.071 C  
HETATM    5  C   UNL     1     -10.550  20.522  66.686  1.00  0.00     0.182 C  
HETATM    6  C   UNL     1     -10.532  19.096  66.169  1.00  0.00    -0.558 C  
HETATM    7  C   UNL     1      -9.242  18.475  66.727  1.00  0.00    -0.297 C  
BRANCH   7   8
HETATM    8  C   UNL     1      -9.532  17.233  67.601  1.00  0.00    -0.246 C  
BRANCH   8   9
HETATM    9  N   UNL     1      -9.773  16.011  66.842  1.00  0.00    -0.229 N  
HETATM   10  C   UNL     1     -10.858  15.187  67.096  1.00  0.00    -0.320 C  
HETATM   11  H   UNL     1      -9.122  15.753  66.100  1.00  0.00     0.000 HD 
HETATM   12  O   UNL     1     -11.649  15.422  68.001  1.00  0.00    -0.344 OA 
BRANCH  10  13
HETATM   13  C   UNL     1     -10.997  13.975  66.214  1.00  0.00    -0.300 A  
HETATM   14  C   UNL     1     -11.564  14.064  64.921  1.00  0.00    -0.367 A  
HETATM   15  C   UNL     1     -11.685  12.900  64.143  1.00  0.00    -0.468 A  
HETATM   16  C   UNL     1     -10.595  12.718  66.707  1.00  0.00    -0.266 A  
HETATM   17  C   UNL     1     -10.721  11.578  65.909  1.00  0.00    -0.272 A  
HETATM   18  C   UNL     1     -11.268  11.663  64.631  1.00  0.00    -0.320 A  
BRANCH  14  19
HETATM   19  O   UNL     1     -11.951  15.298  64.473  1.00  0.00    -0.389 OA 
HETATM   20  C   UNL     1     -10.978  16.118  63.838  1.00  0.00     1.451 C  
ENDBRANCH  14  19
BRANCH  17  21
HETATM   21  S   UNL     1     -10.252   9.994  66.545  1.00  0.00    -0.203 S  
HETATM   22  O   UNL     1      -8.965  10.105  67.188  1.00  0.00    -0.135 OA 
HETATM   23  N   UNL     1     -11.372   9.769  67.770  1.00  0.00    -0.434 N  
HETATM   24  O   UNL     1     -10.541   8.985  65.550  1.00  0.00     0.953 OA 
HETATM   25  H1  UNL     1     -11.102   8.856  68.136  1.00  0.00     0.000 HD 
HETATM   26  H2  UNL     1     -12.128  10.384  68.071  1.00  0.00     0.000 HD 
ENDBRANCH  17  21
ENDBRANCH  10  13
ENDBRANCH   8   9
ENDBRANCH   7   8
ENDBRANCH   2   3
TORSDOF 6
ENDMDL
MODEL      259
REMARK 921   NORMALIZED FREE ENERGY PREDICTED BY IDOCK:   -1.94 KCAL/MOL
REMARK 922        TOTAL FREE ENERGY PREDICTED BY IDOCK:   -3.70 KCAL/MOL
REMARK 923 INTER-LIGAND FREE ENERGY PREDICTED BY IDOCK:   -2.87 KCAL/MOL
REMARK 924 INTRA-LIGAND FREE ENERGY PREDICTED BY IDOCK:   -0.83 KCAL/MOL
REMARK 927      BINDING AFFINITY PREDICTED BY RF-SCORE:    0.00 PKD
ROOT
HETATM    1  C   UNL     1      -6.711   3.774  73.584  1.00  0.00    -0.044 C  
HETATM    2  C   UNL     1      -7.942   4.609  73.244  1.00  0.00    -0.099 C  
ENDROOT
BRANCH   2   3
HETATM    3  N   UNL     1      -9.150   3.793  73.045  1.00  0.00    -0.099 NA 
HETATM    4  C   UNL     1      -9.647   3.222  74.301  1.00  0.00    -0.096 C  
HETATM    5  C   UNL     1     -11.067   2.834  73.950  1.00  0.00    -0.258 C  
HETATM    6  C   UNL     1     -11.543   3.981  73.079  1.00  0.00     0.059 C  
HETATM    7  C   UNL     1     -10.267   4.598  72.484  1.00  0.00    -0.185 C  
BRANCH   7   8
HETATM    8  C   UNL     1     -10.278   4.565  70.938  1.00  0.00    -0.099 C  
BRANCH   8   9
HETATM    9  N   UNL     1      -9.796   5.790  70.310  1.00  0.00    -0.180 N  
HETATM   10  C   UNL     1     -10.363   6.297  69.152  1.00  0.00    -0.216 C  
HETATM   11  H   UNL     1      -9.017   6.290  70.737  1.00  0.00     0.000 HD 
HETATM   12  O   UNL     1     -11.272   5.717  68.571  1.00  0.00    -0.122 OA 
BRANCH  10  13
HETATM   13  C   UNL     1      -9.782   7.585  68.633  1.00  0.00    -0.154 A  
HETATM   14  C   UNL     1     -10.051   8.822  69.264  1.00  0.00    -0.204 A  
HETATM   15  C   UNL     1      -9.497   9.999  68.732  1.00  0.00    -0.162 A  
HETATM   16  C   UNL     1      -8.993   7.562  67.467  1.00  0.00    -0.127 A  
HETATM   17  C   UNL     1      -8.449   8.746  66.963  1.00  0.00    -0.109 A  
HETATM   18  C   UNL     1      -8.701   9.965  67.588  1.00  0.00    -0.121 A  
BRANCH  14  19
HETATM   19  O   UNL     1     -10.828   8.813  70.391  1.00  0.00    -0.219 OA 
HETATM   20  C   UNL     1     -10.397   9.579  71.510  1.00  0.00    -0.043 C  
ENDBRANCH  14  19
BRANCH  17  21
HETATM   21  S   UNL     1      -7.490   8.720  65.475  1.00  0.00    -0.087 S  
HETATM   22  O   UNL     1      -8.371   8.877  64.343  1.00  0.00    -0.161 OA 
HETATM   23  N   UNL     1      -6.624  10.149  65.599  1.00  0.00    -0.104 N  
HETATM   24  O   UNL     1      -6.517   7.655  65.563  1.00  0.00    -0.041 OA 
HETATM   25  H1  UNL     1      -6.071  10.134  64.742  1.00  0.00     0.000 HD 
HETATM   26  H2  UNL     1      -6.644  10.850  66.338  1.00  0.00     0.000 HD 
ENDBRANCH  17  21
ENDBRANCH  10  13
ENDBRANCH   8   9
ENDBRANCH   7   8
ENDBRANCH   2   3
TORSDOF 6
ENDMDL
MODEL      260
REMARK 921   NORMALIZED FREE ENERGY PREDICTED BY IDOCK:   -1.92 KCAL/MOL
REMARK 922        TOTAL FREE ENERGY PREDICTED BY IDOCK:   -3.68 KCAL/MOL
REMARK 923 INTER-LIGAND FREE ENERGY PREDICTED BY IDOCK:   -3.27 KCAL/MOL
REMARK 924 INTRA-LIGAND FREE ENERGY PREDICTED BY IDOCK:   -0.41 KCAL/MOL
REMARK 927      BINDING AFFINITY PREDICTED BY RF-SCORE:    0.00 PKD
ROOT
HETATM    1  C   UNL     1     -10.667   9.442  70.292  1.00  0.00    -0.299 C  
HETATM    2  C   UNL     1     -11.005   8.134  71.003  1.00  0.00    -0.244 C  
ENDROOT
BRANCH   2   3
HETATM    3  N   UNL     1      -9.985   7.739  71.988  1.00  0.00    -0.172 NA 
HETATM    4  C   UNL     1     -10.561   7.475  73.310  1.00  0.00    -0.384 C  
HETATM    5  C   UNL     1      -9.469   6.683  73.996  1.00  0.00    -0.231 C  
HETATM    6  C   UNL     1      -8.948   5.775  72.898  1.00  0.00    -0.123 C  
HETATM    7  C   UNL     1      -9.289   6.490  71.581  1.00  0.00    -0.146 C  
BRANCH   7   8
HETATM    8  C   UNL     1      -8.024   6.784  70.742  1.00  0.00    -0.110 C  
BRANCH   8   9
HETATM    9  N   UNL     1      -8.198   6.581  69.307  1.00  0.00    -0.121 N  
HETATM   10  C   UNL     1      -7.983   5.350  68.707  1.00  0.00    -0.087 C  
HETATM   11  H   UNL     1      -8.487   7.369  68.728  1.00  0.00     0.000 HD 
HETATM   12  O   UNL     1      -7.594   4.380  69.344  1.00  0.00    -0.054 OA 
BRANCH  10  13
HETATM   13  C   UNL     1      -8.229   5.281  67.223  1.00  0.00    -0.104 A  
HETATM   14  C   UNL     1      -8.720   4.104  66.611  1.00  0.00    -0.114 A  
HETATM   15  C   UNL     1      -8.918   4.084  65.220  1.00  0.00    -0.132 A  
HETATM   16  C   UNL     1      -7.918   6.397  66.423  1.00  0.00    -0.110 A  
HETATM   17  C   UNL     1      -8.131   6.353  65.043  1.00  0.00    -0.135 A  
HETATM   18  C   UNL     1      -8.626   5.201  64.437  1.00  0.00    -0.118 A  
BRANCH  14  19
HETATM   19  O   UNL     1      -9.006   3.033  67.415  1.00  0.00    -0.131 OA 
HETATM   20  C   UNL     1      -8.566   1.746  67.000  1.00  0.00    -0.103 C  
ENDBRANCH  14  19
BRANCH  17  21
HETATM   21  S   UNL     1      -7.703   7.743  64.033  1.00  0.00    -0.127 S  
HETATM   22  O   UNL     1      -8.512   7.725  62.838  1.00  0.00    -0.024 OA 
HETATM   23  N   UNL     1      -8.258   9.025  64.958  1.00  0.00    -0.143 N  
HETATM   24  O   UNL     1      -6.264   7.872  63.998  1.00  0.00    -0.056 OA 
HETATM   25  H1  UNL     1      -8.012   9.826  64.377  1.00  0.00     0.000 HD 
HETATM   26  H2  UNL     1      -8.722   9.009  65.866  1.00  0.00     0.000 HD 
ENDBRANCH  17  21
ENDBRANCH  10  13
ENDBRANCH   8   9
ENDBRANCH   7   8
ENDBRANCH   2   3
TORSDOF 6
ENDMDL
MODEL      261
REMARK 921   NORMALIZED FREE ENERGY PREDICTED BY IDOCK:   -1.88 KCAL/MOL
REMARK 922        TOTAL FREE ENERGY PREDICTED BY IDOCK:   -3.62 KCAL/MOL
REMARK 923 INTER-LIGAND FREE ENERGY PREDICTED BY IDOCK:   -3.47 KCAL/MOL
REMARK 924 INTRA-LIGAND FREE ENERGY PREDICTED BY IDOCK:   -0.14 KCAL/MOL
REMARK 927      BINDING AFFINITY PREDICTED BY RF-SCORE:    0.00 PKD
ROOT
HETATM    1  C   UNL     1      -9.687  15.542  70.415  1.00  0.00     0.459 C  
HETATM    2  C   UNL     1      -8.239  15.396  69.956  1.00  0.00     0.352 C  
ENDROOT
BRANCH   2   3
HETATM    3  N   UNL     1      -7.891  16.318  68.863  1.00  0.00    -0.213 NA 
HETATM    4  C   UNL     1      -6.752  17.177  69.202  1.00  0.00    -0.238 C  
HETATM    5  C   UNL     1      -6.302  17.683  67.848  1.00  0.00    -0.171 C  
HETATM    6  C   UNL     1      -6.447  16.468  66.952  1.00  0.00    -0.190 C  
HETATM    7  C   UNL     1      -7.503  15.582  67.630  1.00  0.00    -0.167 C  
BRANCH   7   8
HETATM    8  C   UNL     1      -8.717  15.325  66.709  1.00  0.00    -0.270 C  
BRANCH   8   9
HETATM    9  N   UNL     1      -9.128  13.927  66.637  1.00  0.00    -0.398 N  
HETATM   10  C   UNL     1      -8.267  12.889  66.953  1.00  0.00    -0.002 C  
HETATM   11  H   UNL     1     -10.080  13.707  66.345  1.00  0.00     0.000 HD 
HETATM   12  O   UNL     1      -7.101  13.090  67.269  1.00  0.00    -0.141 OA 
BRANCH  10  13
HETATM   13  C   UNL     1      -8.837  11.499  66.862  1.00  0.00    -0.182 A  
HETATM   14  C   UNL     1      -9.579  11.078  65.734  1.00  0.00    -0.222 A  
HETATM   15  C   UNL     1     -10.103   9.775  65.703  1.00  0.00    -0.282 A  
HETATM   16  C   UNL     1      -8.667  10.614  67.945  1.00  0.00    -0.127 A  
HETATM   17  C   UNL     1      -9.193   9.321  67.885  1.00  0.00    -0.129 A  
HETATM   18  C   UNL     1      -9.914   8.899  66.771  1.00  0.00    -0.338 A  
BRANCH  14  19
HETATM   19  O   UNL     1      -9.733  11.963  64.700  1.00  0.00    -0.212 OA 
HETATM   20  C   UNL     1     -10.971  11.968  64.000  1.00  0.00    -0.381 C  
ENDBRANCH  14  19
BRANCH  17  21
HETATM   21  S   UNL     1      -9.012   8.225  69.263  1.00  0.00    -0.147 S  
HETATM   22  O   UNL     1      -7.608   8.064  69.557  1.00  0.00    -0.096 OA 
HETATM   23  N   UNL     1      -9.653   9.135  70.515  1.00  0.00    -0.223 N  
HETATM   24  O   UNL     1      -9.904   7.101  69.089  1.00  0.00    -0.157 OA 
HETATM   25  H1  UNL     1      -9.549   8.503  71.309  1.00  0.00     0.000 HD 
HETATM   26  H2  UNL     1     -10.046  10.075  70.490  1.00  0.00     0.000 HD 
ENDBRANCH  17  21
ENDBRANCH  10  13
ENDBRANCH   8   9
ENDBRANCH   7   8
ENDBRANCH   2   3
TORSDOF 6
ENDMDL
MODEL      262
REMARK 921   NORMALIZED FREE ENERGY PREDICTED BY IDOCK:   -1.02 KCAL/MOL
REMARK 922        TOTAL FREE ENERGY PREDICTED BY IDOCK:   -2.46 KCAL/MOL
REMARK 923 INTER-LIGAND FREE ENERGY PREDICTED BY IDOCK:   -3.28 KCAL/MOL
REMARK 924 INTRA-LIGAND FREE ENERGY PREDICTED BY IDOCK:    0.82 KCAL/MOL
REMARK 927      BINDING AFFINITY PREDICTED BY RF-SCORE:    0.00 PKD
ROOT
HETATM    1  C   UNL     1     -10.799   6.238  70.612  1.00  0.00    -0.339 C  
HETATM    2  C   UNL     1     -10.556   4.966  71.419  1.00  0.00    -0.034 C  
ENDROOT
BRANCH   2   3
HETATM    3  N   UNL     1      -9.972   5.233  72.743  1.00  0.00    -0.158 NA 
HETATM    4  C   UNL     1      -9.690   4.000  73.485  1.00  0.00    -0.116 C  
HETATM    5  C   UNL     1      -8.724   4.468  74.552  1.00  0.00    -0.108 C  
HETATM    6  C   UNL     1      -7.838   5.456  73.819  1.00  0.00    -0.102 C  
HETATM    7  C   UNL     1      -8.678   5.957  72.633  1.00  0.00    -0.122 C  
BRANCH   7   8
HETATM    8  C   UNL     1      -8.872   7.490  72.672  1.00  0.00    -0.139 C  
BRANCH   8   9
HETATM    9  N   UNL     1      -8.767   8.140  71.370  1.00  0.00    -0.135 N  
HETATM   10  C   UNL     1      -7.721   8.992  71.054  1.00  0.00    -0.125 C  
HETATM   11  H   UNL     1      -9.487   7.961  70.670  1.00  0.00     0.000 HD 
HETATM   12  O   UNL     1      -6.852   9.277  71.868  1.00  0.00    -0.306 OA 
BRANCH  10  13
HETATM   13  C   UNL     1      -7.727   9.567  69.663  1.00  0.00    -0.112 A  
HETATM   14  C   UNL     1      -6.705  10.439  69.221  1.00  0.00    -0.067 A  
HETATM   15  C   UNL     1      -6.764  10.962  67.918  1.00  0.00    -0.064 A  
HETATM   16  C   UNL     1      -8.799   9.267  68.800  1.00  0.00    -0.132 A  
HETATM   17  C   UNL     1      -8.830   9.795  67.507  1.00  0.00    -0.125 A  
HETATM   18  C   UNL     1      -7.819  10.644  67.063  1.00  0.00    -0.117 A  
BRANCH  14  19
HETATM   19  O   UNL     1      -5.680  10.718  70.085  1.00  0.00    -0.060 OA 
HETATM   20  C   UNL     1      -5.548  12.051  70.562  1.00  0.00    -0.165 C  
ENDBRANCH  14  19
BRANCH  17  21
HETATM   21  S   UNL     1     -10.197   9.447  66.438  1.00  0.00    -0.183 S  
HETATM   22  O   UNL     1     -10.702   8.127  66.731  1.00  0.00    -0.278 OA 
HETATM   23  N   UNL     1     -11.352  10.526  66.994  1.00  0.00     0.009 N  
HETATM   24  O   UNL     1      -9.865   9.875  65.097  1.00  0.00    -0.306 OA 
HETATM   25  H1  UNL     1     -12.140  10.327  66.378  1.00  0.00     0.000 HD 
HETATM   26  H2  UNL     1     -11.284  11.207  67.750  1.00  0.00     0.000 HD 
ENDBRANCH  17  21
ENDBRANCH  10  13
ENDBRANCH   8   9
ENDBRANCH   7   8
ENDBRANCH   2   3
TORSDOF 6
ENDMDL
