MODEL        1
REMARK 921   NORMALIZED FREE ENERGY PREDICTED BY IDOCK:   -6.79 KCAL/MOL
REMARK 922        TOTAL FREE ENERGY PREDICTED BY IDOCK:  -10.44 KCAL/MOL
REMARK 923 INTER-LIGAND FREE ENERGY PREDICTED BY IDOCK:   -9.57 KCAL/MOL
REMARK 924 INTRA-LIGAND FREE ENERGY PREDICTED BY IDOCK:   -0.87 KCAL/MOL
REMARK 927      BINDING AFFINITY PREDICTED BY RF-SCORE:    0.00 PKD
ROOT
HETATM    1  C   UNL     1     -14.055   7.554  71.600  1.00  0.00    -0.562 C  
HETATM    2  C   UNL     1     -13.775   8.931  72.193  1.00  0.00    -0.474 C  
ENDROOT
BRANCH   2   3
HETATM    3  N   UNL     1     -12.349   9.276  72.163  1.00  0.00    -0.353 NA 
HETATM    4  C   UNL     1     -11.480   8.112  72.360  1.00  0.00    -0.397 C  
HETATM    5  C   UNL     1     -10.139   8.622  71.881  1.00  0.00    -0.398 C  
HETATM    6  C   UNL     1     -10.493   9.454  70.660  1.00  0.00    -0.354 C  
HETATM    7  C   UNL     1     -11.950   9.898  70.876  1.00  0.00    -0.345 C  
BRANCH   7   8
HETATM    8  C   UNL     1     -12.089  11.436  70.936  1.00  0.00    -0.277 C  
BRANCH   8   9
HETATM    9  N   UNL     1     -11.639  12.121  69.730  1.00  0.00    -0.457 N  
HETATM   10  C   UNL     1     -11.910  13.457  69.497  1.00  0.00    -0.332 C  
HETATM   11  H   UNL     1     -11.106  11.597  69.035  1.00  0.00     0.000 HD 
HETATM   12  O   UNL     1     -12.549  14.147  70.280  1.00  0.00    -0.346 OA 
BRANCH  10  13
HETATM   13  C   UNL     1     -11.413  14.016  68.203  1.00  0.00    -0.341 A  
HETATM   14  C   UNL     1     -11.950  13.473  67.016  1.00  0.00    -0.440 A  
HETATM   15  C   UNL     1     -11.630  14.025  65.770  1.00  0.00    -0.339 A  
HETATM   16  C   UNL     1     -10.543  15.119  68.112  1.00  0.00    -0.246 A  
HETATM   17  C   UNL     1     -10.776  15.117  65.677  1.00  0.00    -0.374 A  
HETATM   18  C   UNL     1     -10.249  15.664  66.848  1.00  0.00    -0.281 A  
BRANCH  15  19
HETATM   19  S   UNL     1     -12.248  13.256  64.287  1.00  0.00    -0.377 S  
HETATM   20  O   UNL     1     -12.646  14.329  63.398  1.00  0.00    -0.777 OA 
HETATM   21  O   UNL     1     -13.202  12.246  64.701  1.00  0.00    -0.763 OA 
BRANCH  19  22
HETATM   22  C   UNL     1     -10.827  12.441  63.586  1.00  0.00    -0.462 C  
HETATM   23  C   UNL     1     -10.419  11.239  64.419  1.00  0.00    -0.407 C  
ENDBRANCH  19  22
ENDBRANCH  15  19
BRANCH  16  24
HETATM   24  O   UNL     1      -9.964  15.825  69.132  1.00  0.00    -0.210 OA 
HETATM   25  C   UNL     1      -8.611  15.519  69.446  1.00  0.00    -0.259 C  
ENDBRANCH  16  24
ENDBRANCH  10  13
ENDBRANCH   8   9
ENDBRANCH   7   8
ENDBRANCH   2   3
TORSDOF 7
ENDMDL
MODEL        2
REMARK 921   NORMALIZED FREE ENERGY PREDICTED BY IDOCK:   -6.66 KCAL/MOL
REMARK 922        TOTAL FREE ENERGY PREDICTED BY IDOCK:  -10.26 KCAL/MOL
REMARK 923 INTER-LIGAND FREE ENERGY PREDICTED BY IDOCK:   -9.38 KCAL/MOL
REMARK 924 INTRA-LIGAND FREE ENERGY PREDICTED BY IDOCK:   -0.87 KCAL/MOL
REMARK 927      BINDING AFFINITY PREDICTED BY RF-SCORE:    0.00 PKD
ROOT
HETATM    1  C   UNL     1     -10.727  16.223  65.389  1.00  0.00    -0.342 C  
HETATM    2  C   UNL     1     -10.163  15.111  66.267  1.00  0.00    -0.288 C  
ENDROOT
BRANCH   2   3
HETATM    3  N   UNL     1     -10.952  13.876  66.183  1.00  0.00    -0.292 NA 
HETATM    4  C   UNL     1     -12.093  13.992  65.272  1.00  0.00    -0.408 C  
HETATM    5  C   UNL     1     -12.470  12.546  65.036  1.00  0.00    -0.494 C  
HETATM    6  C   UNL     1     -11.128  11.843  64.929  1.00  0.00    -0.363 C  
HETATM    7  C   UNL     1     -10.141  12.725  65.714  1.00  0.00    -0.286 C  
BRANCH   7   8
HETATM    8  C   UNL     1      -9.506  11.971  66.904  1.00  0.00    -0.203 C  
BRANCH   8   9
HETATM    9  N   UNL     1     -10.189  12.184  68.175  1.00  0.00    -0.198 N  
HETATM   10  C   UNL     1     -11.299  11.447  68.547  1.00  0.00    -0.271 C  
HETATM   11  H   UNL     1      -9.836  12.899  68.811  1.00  0.00     0.000 HD 
HETATM   12  O   UNL     1     -11.785  10.579  67.834  1.00  0.00    -0.453 OA 
BRANCH  10  13
HETATM   13  C   UNL     1     -11.914  11.797  69.864  1.00  0.00    -0.405 A  
HETATM   14  C   UNL     1     -12.176  13.162  70.112  1.00  0.00    -0.360 A  
HETATM   15  C   UNL     1     -12.861  13.559  71.267  1.00  0.00    -0.338 A  
HETATM   16  C   UNL     1     -12.347  10.842  70.802  1.00  0.00    -0.383 A  
HETATM   17  C   UNL     1     -13.295  12.617  72.191  1.00  0.00    -0.570 A  
HETATM   18  C   UNL     1     -13.047  11.266  71.947  1.00  0.00    -0.510 A  
BRANCH  15  19
HETATM   19  S   UNL     1     -13.090  15.294  71.596  1.00  0.00    -0.464 S  
HETATM   20  O   UNL     1     -14.394  15.432  72.214  1.00  0.00    -0.550 OA 
HETATM   21  O   UNL     1     -12.772  16.002  70.371  1.00  0.00    -0.324 OA 
BRANCH  19  22
HETATM   22  C   UNL     1     -11.847  15.682  72.813  1.00  0.00    -0.474 C  
HETATM   23  C   UNL     1     -12.470  15.912  74.178  1.00  0.00    -0.776 C  
ENDBRANCH  19  22
ENDBRANCH  15  19
BRANCH  16  24
HETATM   24  O   UNL     1     -12.248   9.479  70.727  1.00  0.00    -0.273 OA 
HETATM   25  C   UNL     1     -12.882   8.726  71.754  1.00  0.00    -0.360 C  
ENDBRANCH  16  24
ENDBRANCH  10  13
ENDBRANCH   8   9
ENDBRANCH   7   8
ENDBRANCH   2   3
TORSDOF 7
ENDMDL
MODEL        3
REMARK 921   NORMALIZED FREE ENERGY PREDICTED BY IDOCK:   -6.66 KCAL/MOL
REMARK 922        TOTAL FREE ENERGY PREDICTED BY IDOCK:  -10.25 KCAL/MOL
REMARK 923 INTER-LIGAND FREE ENERGY PREDICTED BY IDOCK:   -9.34 KCAL/MOL
REMARK 924 INTRA-LIGAND FREE ENERGY PREDICTED BY IDOCK:   -0.91 KCAL/MOL
REMARK 927      BINDING AFFINITY PREDICTED BY RF-SCORE:    0.00 PKD
ROOT
HETATM    1  C   UNL     1     -14.255   7.567  71.565  1.00  0.00    -0.580 C  
HETATM    2  C   UNL     1     -14.073   9.067  71.770  1.00  0.00    -0.314 C  
ENDROOT
BRANCH   2   3
HETATM    3  N   UNL     1     -12.664   9.444  71.929  1.00  0.00    -0.376 NA 
HETATM    4  C   UNL     1     -11.827   8.332  72.389  1.00  0.00    -0.396 C  
HETATM    5  C   UNL     1     -10.431   8.824  72.075  1.00  0.00    -0.414 C  
HETATM    6  C   UNL     1     -10.591   9.511  70.730  1.00  0.00    -0.387 C  
HETATM    7  C   UNL     1     -12.069   9.936  70.662  1.00  0.00    -0.257 C  
BRANCH   7   8
HETATM    8  C   UNL     1     -12.230  11.467  70.531  1.00  0.00    -0.386 C  
BRANCH   8   9
HETATM    9  N   UNL     1     -11.814  12.000  69.238  1.00  0.00    -0.319 N  
HETATM   10  C   UNL     1     -11.914  13.344  68.928  1.00  0.00    -0.324 C  
HETATM   11  H   UNL     1     -11.435  11.360  68.539  1.00  0.00     0.000 HD 
HETATM   12  O   UNL     1     -12.365  14.170  69.711  1.00  0.00    -0.336 OA 
BRANCH  10  13
HETATM   13  C   UNL     1     -11.479  13.740  67.554  1.00  0.00    -0.359 A  
HETATM   14  C   UNL     1     -11.052  15.073  67.370  1.00  0.00    -0.324 A  
HETATM   15  C   UNL     1     -10.514  15.487  66.146  1.00  0.00    -0.313 A  
HETATM   16  C   UNL     1     -11.361  12.835  66.482  1.00  0.00    -0.322 A  
HETATM   17  C   UNL     1     -10.390  14.595  65.088  1.00  0.00    -0.431 A  
HETATM   18  C   UNL     1     -10.802  13.274  65.267  1.00  0.00    -0.314 A  
BRANCH  15  19
HETATM   19  S   UNL     1     -10.075  17.198  65.917  1.00  0.00    -0.183 S  
HETATM   20  O   UNL     1     -10.942  17.714  64.876  1.00  0.00    -0.886 OA 
HETATM   21  O   UNL     1      -8.633  17.249  65.773  1.00  0.00    -0.532 OA 
BRANCH  19  22
HETATM   22  C   UNL     1     -10.517  17.978  67.457  1.00  0.00    -0.396 C  
HETATM   23  C   UNL     1     -10.685  19.477  67.284  1.00  0.00    -0.604 C  
ENDBRANCH  19  22
ENDBRANCH  15  19
BRANCH  16  24
HETATM   24  O   UNL     1     -11.657  11.499  66.468  1.00  0.00    -0.444 OA 
HETATM   25  C   UNL     1     -10.600  10.604  66.142  1.00  0.00    -0.142 C  
ENDBRANCH  16  24
ENDBRANCH  10  13
ENDBRANCH   8   9
ENDBRANCH   7   8
ENDBRANCH   2   3
TORSDOF 7
ENDMDL
MODEL        4
REMARK 921   NORMALIZED FREE ENERGY PREDICTED BY IDOCK:   -6.58 KCAL/MOL
REMARK 922        TOTAL FREE ENERGY PREDICTED BY IDOCK:  -10.14 KCAL/MOL
REMARK 923 INTER-LIGAND FREE ENERGY PREDICTED BY IDOCK:   -9.05 KCAL/MOL
REMARK 924 INTRA-LIGAND FREE ENERGY PREDICTED BY IDOCK:   -1.09 KCAL/MOL
REMARK 927      BINDING AFFINITY PREDICTED BY RF-SCORE:    0.00 PKD
ROOT
HETATM    1  C   UNL     1     -10.546   7.608  73.201  1.00  0.00    -0.438 C  
HETATM    2  C   UNL     1     -10.728   8.197  71.806  1.00  0.00    -0.251 C  
ENDROOT
BRANCH   2   3
HETATM    3  N   UNL     1     -12.133   8.214  71.383  1.00  0.00    -0.293 NA 
HETATM    4  C   UNL     1     -12.790   6.914  71.544  1.00  0.00    -0.333 C  
HETATM    5  C   UNL     1     -14.256   7.277  71.458  1.00  0.00    -0.540 C  
HETATM    6  C   UNL     1     -14.344   8.583  72.229  1.00  0.00    -0.483 C  
HETATM    7  C   UNL     1     -12.936   9.200  72.148  1.00  0.00    -0.425 C  
BRANCH   7   8
HETATM    8  C   UNL     1     -12.943  10.576  71.445  1.00  0.00    -0.440 C  
BRANCH   8   9
HETATM    9  N   UNL     1     -12.536  10.530  70.045  1.00  0.00    -0.526 N  
HETATM   10  C   UNL     1     -11.897  11.591  69.429  1.00  0.00    -0.350 C  
HETATM   11  H   UNL     1     -12.729   9.688  69.503  1.00  0.00     0.000 HD 
HETATM   12  O   UNL     1     -11.641  12.636  70.011  1.00  0.00    -0.239 OA 
BRANCH  10  13
HETATM   13  C   UNL     1     -11.569  11.414  67.981  1.00  0.00    -0.357 A  
HETATM   14  C   UNL     1     -11.893  12.476  67.110  1.00  0.00    -0.386 A  
HETATM   15  C   UNL     1     -11.508  12.439  65.764  1.00  0.00    -0.370 A  
HETATM   16  C   UNL     1     -10.857  10.312  67.472  1.00  0.00    -0.298 A  
HETATM   17  C   UNL     1     -10.799  11.355  65.261  1.00  0.00    -0.297 A  
HETATM   18  C   UNL     1     -10.468  10.306  66.119  1.00  0.00    -0.200 A  
BRANCH  15  19
HETATM   19  S   UNL     1     -12.016  13.750  64.672  1.00  0.00    -0.437 S  
HETATM   20  O   UNL     1     -13.203  14.341  65.257  1.00  0.00    -0.704 OA 
HETATM   21  O   UNL     1     -12.048  13.196  63.332  1.00  0.00    -0.552 OA 
BRANCH  19  22
HETATM   22  C   UNL     1     -10.691  14.939  64.761  1.00  0.00    -0.341 C  
HETATM   23  C   UNL     1     -10.714  15.684  66.084  1.00  0.00    -0.305 C  
ENDBRANCH  19  22
ENDBRANCH  15  19
BRANCH  16  24
HETATM   24  O   UNL     1     -10.397   9.216  68.151  1.00  0.00    -0.198 OA 
HETATM   25  C   UNL     1     -10.331   7.990  67.434  1.00  0.00    -0.284 C  
ENDBRANCH  16  24
ENDBRANCH  10  13
ENDBRANCH   8   9
ENDBRANCH   7   8
ENDBRANCH   2   3
TORSDOF 7
ENDMDL
MODEL        5
REMARK 921   NORMALIZED FREE ENERGY PREDICTED BY IDOCK:   -6.48 KCAL/MOL
REMARK 922        TOTAL FREE ENERGY PREDICTED BY IDOCK:  -10.01 KCAL/MOL
REMARK 923 INTER-LIGAND FREE ENERGY PREDICTED BY IDOCK:   -9.05 KCAL/MOL
REMARK 924 INTRA-LIGAND FREE ENERGY PREDICTED BY IDOCK:   -0.96 KCAL/MOL
REMARK 927      BINDING AFFINITY PREDICTED BY RF-SCORE:    0.00 PKD
ROOT
HETATM    1  C   UNL     1      -7.410  19.986  65.827  1.00  0.00    -0.321 C  
HETATM    2  C   UNL     1      -7.319  18.546  66.321  1.00  0.00    -0.258 C  
ENDROOT
BRANCH   2   3
HETATM    3  N   UNL     1      -8.408  18.200  67.243  1.00  0.00    -0.238 NA 
HETATM    4  C   UNL     1      -8.617  19.215  68.280  1.00  0.00    -0.335 C  
HETATM    5  C   UNL     1      -9.990  18.863  68.808  1.00  0.00    -0.466 C  
HETATM    6  C   UNL     1     -10.765  18.487  67.557  1.00  0.00    -0.419 C  
HETATM    7  C   UNL     1      -9.704  18.028  66.541  1.00  0.00    -0.338 C  
BRANCH   7   8
HETATM    8  C   UNL     1      -9.909  16.560  66.106  1.00  0.00    -0.332 C  
BRANCH   8   9
HETATM    9  N   UNL     1     -10.227  15.654  67.204  1.00  0.00    -0.264 N  
HETATM   10  C   UNL     1     -11.224  14.699  67.106  1.00  0.00    -0.344 C  
HETATM   11  H   UNL     1      -9.697  15.726  68.073  1.00  0.00     0.000 HD 
HETATM   12  O   UNL     1     -11.907  14.559  66.101  1.00  0.00    -0.374 OA 
BRANCH  10  13
HETATM   13  C   UNL     1     -11.459  13.863  68.323  1.00  0.00    -0.346 A  
HETATM   14  C   UNL     1     -12.159  14.461  69.393  1.00  0.00    -0.338 A  
HETATM   15  C   UNL     1     -12.527  13.708  70.515  1.00  0.00    -0.324 A  
HETATM   16  C   UNL     1     -11.131  12.497  68.406  1.00  0.00    -0.258 A  
HETATM   17  C   UNL     1     -12.209  12.358  70.597  1.00  0.00    -0.368 A  
HETATM   18  C   UNL     1     -11.525  11.759  69.538  1.00  0.00    -0.363 A  
BRANCH  15  19
HETATM   19  S   UNL     1     -13.323  14.516  71.888  1.00  0.00    -0.401 S  
HETATM   20  O   UNL     1     -13.917  13.470  72.697  1.00  0.00    -0.752 OA 
HETATM   21  O   UNL     1     -14.139  15.580  71.337  1.00  0.00    -0.523 OA 
BRANCH  19  22
HETATM   22  C   UNL     1     -11.984  15.248  72.807  1.00  0.00    -0.416 C  
HETATM   23  C   UNL     1     -12.432  15.648  74.203  1.00  0.00    -0.804 C  
ENDBRANCH  19  22
ENDBRANCH  15  19
BRANCH  16  24
HETATM   24  O   UNL     1     -10.514  11.718  67.465  1.00  0.00    -0.196 OA 
HETATM   25  C   UNL     1     -10.971  10.376  67.334  1.00  0.00    -0.270 C  
ENDBRANCH  16  24
ENDBRANCH  10  13
ENDBRANCH   8   9
ENDBRANCH   7   8
ENDBRANCH   2   3
TORSDOF 7
ENDMDL
MODEL        6
REMARK 921   NORMALIZED FREE ENERGY PREDICTED BY IDOCK:   -6.45 KCAL/MOL
REMARK 922        TOTAL FREE ENERGY PREDICTED BY IDOCK:   -9.95 KCAL/MOL
REMARK 923 INTER-LIGAND FREE ENERGY PREDICTED BY IDOCK:   -8.83 KCAL/MOL
REMARK 924 INTRA-LIGAND FREE ENERGY PREDICTED BY IDOCK:   -1.13 KCAL/MOL
REMARK 927      BINDING AFFINITY PREDICTED BY RF-SCORE:    0.00 PKD
ROOT
HETATM    1  C   UNL     1     -10.492   5.365  70.191  1.00  0.00    -0.361 C  
HETATM    2  C   UNL     1     -11.252   6.418  69.391  1.00  0.00    -0.394 C  
ENDROOT
BRANCH   2   3
HETATM    3  N   UNL     1     -11.421   7.673  70.133  1.00  0.00    -0.140 NA 
HETATM    4  C   UNL     1     -12.071   7.481  71.432  1.00  0.00    -0.327 C  
HETATM    5  C   UNL     1     -11.755   8.775  72.149  1.00  0.00    -0.433 C  
HETATM    6  C   UNL     1     -10.321   9.064  71.743  1.00  0.00    -0.407 C  
HETATM    7  C   UNL     1     -10.125   8.347  70.395  1.00  0.00    -0.187 C  
BRANCH   7   8
HETATM    8  C   UNL     1      -9.771   9.331  69.257  1.00  0.00    -0.169 C  
BRANCH   8   9
HETATM    9  N   UNL     1     -10.181  10.707  69.512  1.00  0.00    -0.366 N  
HETATM   10  C   UNL     1     -11.223  11.304  68.825  1.00  0.00    -0.250 C  
HETATM   11  H   UNL     1      -9.684  11.247  70.220  1.00  0.00     0.000 HD 
HETATM   12  O   UNL     1     -11.860  10.724  67.956  1.00  0.00    -0.546 OA 
BRANCH  10  13
HETATM   13  C   UNL     1     -11.509  12.730  69.170  1.00  0.00    -0.361 A  
HETATM   14  C   UNL     1     -12.155  12.981  70.400  1.00  0.00    -0.391 A  
HETATM   15  C   UNL     1     -12.347  14.292  70.851  1.00  0.00    -0.359 A  
HETATM   16  C   UNL     1     -11.067  13.823  68.401  1.00  0.00    -0.263 A  
HETATM   17  C   UNL     1     -11.907  15.372  70.097  1.00  0.00    -0.362 A  
HETATM   18  C   UNL     1     -11.259  15.131  68.885  1.00  0.00    -0.292 A  
BRANCH  15  19
HETATM   19  S   UNL     1     -13.251  14.575  72.360  1.00  0.00    -0.458 S  
HETATM   20  O   UNL     1     -13.933  13.335  72.673  1.00  0.00    -0.741 OA 
HETATM   21  O   UNL     1     -13.996  15.806  72.182  1.00  0.00    -0.463 OA 
BRANCH  19  22
HETATM   22  C   UNL     1     -11.988  14.848  73.587  1.00  0.00    -0.266 C  
HETATM   23  C   UNL     1     -12.396  15.942  74.559  1.00  0.00    -0.752 C  
ENDBRANCH  19  22
ENDBRANCH  15  19
BRANCH  16  24
HETATM   24  O   UNL     1     -10.375  13.800  67.220  1.00  0.00    -0.250 OA 
HETATM   25  C   UNL     1     -11.138  13.855  66.021  1.00  0.00    -0.289 C  
ENDBRANCH  16  24
ENDBRANCH  10  13
ENDBRANCH   8   9
ENDBRANCH   7   8
ENDBRANCH   2   3
TORSDOF 7
ENDMDL
MODEL        7
REMARK 921   NORMALIZED FREE ENERGY PREDICTED BY IDOCK:   -6.43 KCAL/MOL
REMARK 922        TOTAL FREE ENERGY PREDICTED BY IDOCK:   -9.93 KCAL/MOL
REMARK 923 INTER-LIGAND FREE ENERGY PREDICTED BY IDOCK:   -8.88 KCAL/MOL
REMARK 924 INTRA-LIGAND FREE ENERGY PREDICTED BY IDOCK:   -1.05 KCAL/MOL
REMARK 927      BINDING AFFINITY PREDICTED BY RF-SCORE:    0.00 PKD
ROOT
HETATM    1  C   UNL     1     -11.657   5.829  72.637  1.00  0.00    -0.304 C  
HETATM    2  C   UNL     1     -11.193   6.424  71.312  1.00  0.00    -0.292 C  
ENDROOT
BRANCH   2   3
HETATM    3  N   UNL     1     -11.861   7.694  71.003  1.00  0.00    -0.295 NA 
HETATM    4  C   UNL     1     -13.253   7.728  71.459  1.00  0.00    -0.316 C  
HETATM    5  C   UNL     1     -13.573   9.206  71.418  1.00  0.00    -0.348 C  
HETATM    6  C   UNL     1     -12.301   9.859  71.929  1.00  0.00    -0.390 C  
HETATM    7  C   UNL     1     -11.175   8.854  71.624  1.00  0.00    -0.345 C  
BRANCH   7   8
HETATM    8  C   UNL     1     -10.109   9.443  70.673  1.00  0.00    -0.291 C  
BRANCH   8   9
HETATM    9  N   UNL     1     -10.539  10.648  69.972  1.00  0.00    -0.463 N  
HETATM   10  C   UNL     1     -10.935  10.628  68.647  1.00  0.00    -0.246 C  
HETATM   11  H   UNL     1     -10.548  11.535  70.476  1.00  0.00     0.000 HD 
HETATM   12  O   UNL     1     -10.942   9.605  67.976  1.00  0.00    -0.227 OA 
BRANCH  10  13
HETATM   13  C   UNL     1     -11.318  11.944  68.052  1.00  0.00    -0.352 A  
HETATM   14  C   UNL     1     -11.517  11.989  66.655  1.00  0.00    -0.411 A  
HETATM   15  C   UNL     1     -11.996  13.151  66.039  1.00  0.00    -0.433 A  
HETATM   16  C   UNL     1     -11.605  13.092  68.815  1.00  0.00    -0.309 A  
HETATM   17  C   UNL     1     -12.285  14.283  66.790  1.00  0.00    -0.384 A  
HETATM   18  C   UNL     1     -12.100  14.242  68.173  1.00  0.00    -0.275 A  
BRANCH  15  19
HETATM   19  S   UNL     1     -12.142  13.204  64.265  1.00  0.00    -0.421 S  
HETATM   20  O   UNL     1     -12.352  14.593  63.907  1.00  0.00    -0.730 OA 
HETATM   21  O   UNL     1     -13.107  12.189  63.890  1.00  0.00    -0.749 OA 
BRANCH  19  22
HETATM   22  C   UNL     1     -10.537  12.706  63.673  1.00  0.00    -0.342 C  
HETATM   23  C   UNL     1     -10.420  11.193  63.616  1.00  0.00    -0.438 C  
ENDBRANCH  19  22
ENDBRANCH  15  19
BRANCH  16  24
HETATM   24  O   UNL     1     -11.539  13.241  70.174  1.00  0.00    -0.212 OA 
HETATM   25  C   UNL     1     -12.736  13.621  70.843  1.00  0.00    -0.310 C  
ENDBRANCH  16  24
ENDBRANCH  10  13
ENDBRANCH   8   9
ENDBRANCH   7   8
ENDBRANCH   2   3
TORSDOF 7
ENDMDL
MODEL        8
REMARK 921   NORMALIZED FREE ENERGY PREDICTED BY IDOCK:   -6.40 KCAL/MOL
REMARK 922        TOTAL FREE ENERGY PREDICTED BY IDOCK:   -9.88 KCAL/MOL
REMARK 923 INTER-LIGAND FREE ENERGY PREDICTED BY IDOCK:   -8.94 KCAL/MOL
REMARK 924 INTRA-LIGAND FREE ENERGY PREDICTED BY IDOCK:   -0.94 KCAL/MOL
REMARK 927      BINDING AFFINITY PREDICTED BY RF-SCORE:    0.00 PKD
ROOT
HETATM    1  C   UNL     1     -14.205   7.920  71.627  1.00  0.00    -0.564 C  
HETATM    2  C   UNL     1     -13.868   9.343  72.060  1.00  0.00    -0.340 C  
ENDROOT
BRANCH   2   3
HETATM    3  N   UNL     1     -12.445   9.658  71.891  1.00  0.00    -0.384 NA 
HETATM    4  C   UNL     1     -11.590   8.469  71.941  1.00  0.00    -0.341 C  
HETATM    5  C   UNL     1     -10.296   8.973  71.342  1.00  0.00    -0.396 C  
HETATM    6  C   UNL     1     -10.757   9.869  70.205  1.00  0.00    -0.367 C  
HETATM    7  C   UNL     1     -12.171  10.332  70.598  1.00  0.00    -0.329 C  
BRANCH   7   8
HETATM    8  C   UNL     1     -12.263  11.868  70.741  1.00  0.00    -0.303 C  
BRANCH   8   9
HETATM    9  N   UNL     1     -11.800  12.603  69.569  1.00  0.00    -0.318 N  
HETATM   10  C   UNL     1     -12.067  13.949  69.392  1.00  0.00    -0.337 C  
HETATM   11  H   UNL     1     -11.262  12.109  68.858  1.00  0.00     0.000 HD 
HETATM   12  O   UNL     1     -12.713  14.606  70.197  1.00  0.00    -0.314 OA 
BRANCH  10  13
HETATM   13  C   UNL     1     -11.557  14.562  68.127  1.00  0.00    -0.359 A  
HETATM   14  C   UNL     1     -10.770  15.728  68.246  1.00  0.00    -0.281 A  
HETATM   15  C   UNL     1     -10.154  16.290  67.121  1.00  0.00    -0.268 A  
HETATM   16  C   UNL     1     -11.717  13.977  66.857  1.00  0.00    -0.410 A  
HETATM   17  C   UNL     1     -10.305  15.712  65.867  1.00  0.00    -0.368 A  
HETATM   18  C   UNL     1     -11.074  14.554  65.745  1.00  0.00    -0.324 A  
BRANCH  15  19
HETATM   19  S   UNL     1      -9.248  17.814  67.291  1.00  0.00    -0.257 S  
HETATM   20  O   UNL     1      -8.538  18.016  66.043  1.00  0.00    -0.500 OA 
HETATM   21  O   UNL     1      -8.530  17.742  68.548  1.00  0.00    -0.290 OA 
BRANCH  19  22
HETATM   22  C   UNL     1     -10.509  19.065  67.430  1.00  0.00    -0.457 C  
HETATM   23  C   UNL     1     -10.529  19.962  66.204  1.00  0.00    -0.581 C  
ENDBRANCH  19  22
ENDBRANCH  15  19
BRANCH  16  24
HETATM   24  O   UNL     1     -12.383  12.826  66.535  1.00  0.00    -0.476 OA 
HETATM   25  C   UNL     1     -12.534  12.531  65.151  1.00  0.00    -0.379 C  
ENDBRANCH  16  24
ENDBRANCH  10  13
ENDBRANCH   8   9
ENDBRANCH   7   8
ENDBRANCH   2   3
TORSDOF 7
ENDMDL
MODEL        9
REMARK 921   NORMALIZED FREE ENERGY PREDICTED BY IDOCK:   -6.31 KCAL/MOL
REMARK 922        TOTAL FREE ENERGY PREDICTED BY IDOCK:   -9.76 KCAL/MOL
REMARK 923 INTER-LIGAND FREE ENERGY PREDICTED BY IDOCK:   -8.74 KCAL/MOL
REMARK 924 INTRA-LIGAND FREE ENERGY PREDICTED BY IDOCK:   -1.01 KCAL/MOL
REMARK 927      BINDING AFFINITY PREDICTED BY RF-SCORE:    0.00 PKD
ROOT
HETATM    1  C   UNL     1     -10.381   7.513  73.108  1.00  0.00    -0.402 C  
HETATM    2  C   UNL     1     -10.324   7.861  71.624  1.00  0.00    -0.204 C  
ENDROOT
BRANCH   2   3
HETATM    3  N   UNL     1     -11.603   8.375  71.121  1.00  0.00    -0.276 NA 
HETATM    4  C   UNL     1     -12.745   7.959  71.940  1.00  0.00    -0.316 C  
HETATM    5  C   UNL     1     -13.830   8.916  71.497  1.00  0.00    -0.388 C  
HETATM    6  C   UNL     1     -13.095  10.236  71.341  1.00  0.00    -0.512 C  
HETATM    7  C   UNL     1     -11.629   9.858  71.068  1.00  0.00    -0.389 C  
BRANCH   7   8
HETATM    8  C   UNL     1     -11.139  10.373  69.696  1.00  0.00    -0.276 C  
BRANCH   8   9
HETATM    9  N   UNL     1     -10.942  11.818  69.640  1.00  0.00    -0.470 N  
HETATM   10  C   UNL     1     -11.426  12.587  68.596  1.00  0.00    -0.306 C  
HETATM   11  H   UNL     1     -10.431  12.276  70.394  1.00  0.00     0.000 HD 
HETATM   12  O   UNL     1     -12.039  12.107  67.652  1.00  0.00    -0.522 OA 
BRANCH  10  13
HETATM   13  C   UNL     1     -11.120  14.048  68.656  1.00  0.00    -0.286 A  
HETATM   14  C   UNL     1     -10.771  14.686  67.446  1.00  0.00    -0.280 A  
HETATM   15  C   UNL     1     -10.592  16.074  67.396  1.00  0.00    -0.316 A  
HETATM   16  C   UNL     1     -11.278  14.832  69.815  1.00  0.00    -0.273 A  
HETATM   17  C   UNL     1     -10.753  16.850  68.537  1.00  0.00    -0.359 A  
HETATM   18  C   UNL     1     -11.107  16.227  69.734  1.00  0.00    -0.337 A  
BRANCH  15  19
HETATM   19  S   UNL     1     -10.058  16.833  65.876  1.00  0.00    -0.264 S  
HETATM   20  O   UNL     1     -10.905  16.302  64.827  1.00  0.00    -0.671 OA 
HETATM   21  O   UNL     1      -8.618  16.684  65.812  1.00  0.00    -0.464 OA 
BRANCH  19  22
HETATM   22  C   UNL     1     -10.440  18.561  66.088  1.00  0.00    -0.413 C  
HETATM   23  C   UNL     1      -9.179  19.378  66.307  1.00  0.00    -0.388 C  
ENDBRANCH  19  22
ENDBRANCH  15  19
BRANCH  16  24
HETATM   24  O   UNL     1     -11.666  14.425  71.063  1.00  0.00    -0.290 OA 
HETATM   25  C   UNL     1     -12.942  14.860  71.518  1.00  0.00    -0.342 C  
ENDBRANCH  16  24
ENDBRANCH  10  13
ENDBRANCH   8   9
ENDBRANCH   7   8
ENDBRANCH   2   3
TORSDOF 7
ENDMDL
MODEL       10
REMARK 921   NORMALIZED FREE ENERGY PREDICTED BY IDOCK:   -6.28 KCAL/MOL
REMARK 922        TOTAL FREE ENERGY PREDICTED BY IDOCK:   -9.71 KCAL/MOL
REMARK 923 INTER-LIGAND FREE ENERGY PREDICTED BY IDOCK:   -8.79 KCAL/MOL
REMARK 924 INTRA-LIGAND FREE ENERGY PREDICTED BY IDOCK:   -0.93 KCAL/MOL
REMARK 927      BINDING AFFINITY PREDICTED BY RF-SCORE:    0.00 PKD
ROOT
HETATM    1  C   UNL     1      -9.961   5.242  69.238  1.00  0.00    -0.285 C  
HETATM    2  C   UNL     1     -11.025   6.062  69.960  1.00  0.00    -0.380 C  
ENDROOT
BRANCH   2   3
HETATM    3  N   UNL     1     -11.032   5.822  71.408  1.00  0.00    -0.260 NA 
HETATM    4  C   UNL     1     -10.272   4.629  71.789  1.00  0.00    -0.172 C  
HETATM    5  C   UNL     1     -10.075   4.829  73.275  1.00  0.00    -0.196 C  
HETATM    6  C   UNL     1      -9.795   6.317  73.398  1.00  0.00    -0.182 C  
HETATM    7  C   UNL     1     -10.457   6.960  72.167  1.00  0.00    -0.206 C  
BRANCH   7   8
HETATM    8  C   UNL     1     -11.552   7.977  72.558  1.00  0.00    -0.403 C  
BRANCH   8   9
HETATM    9  N   UNL     1     -11.495   9.229  71.811  1.00  0.00    -0.384 N  
HETATM   10  C   UNL     1     -12.590  10.066  71.692  1.00  0.00    -0.427 C  
HETATM   11  H   UNL     1     -10.619   9.496  71.361  1.00  0.00     0.000 HD 
HETATM   12  O   UNL     1     -13.676   9.809  72.195  1.00  0.00    -0.385 OA 
BRANCH  10  13
HETATM   13  C   UNL     1     -12.393  11.298  70.869  1.00  0.00    -0.490 A  
HETATM   14  C   UNL     1     -12.692  12.537  71.478  1.00  0.00    -0.325 A  
HETATM   15  C   UNL     1     -12.417  13.741  70.819  1.00  0.00    -0.370 A  
HETATM   16  C   UNL     1     -11.820  11.295  69.584  1.00  0.00    -0.360 A  
HETATM   17  C   UNL     1     -11.846  13.740  69.552  1.00  0.00    -0.394 A  
HETATM   18  C   UNL     1     -11.540  12.520  68.949  1.00  0.00    -0.364 A  
BRANCH  15  19
HETATM   19  S   UNL     1     -12.895  15.281  71.575  1.00  0.00    -0.437 S  
HETATM   20  O   UNL     1     -14.225  15.587  71.088  1.00  0.00    -0.528 OA 
HETATM   21  O   UNL     1     -11.800  16.209  71.371  1.00  0.00    -0.441 OA 
BRANCH  19  22
HETATM   22  C   UNL     1     -13.003  14.905  73.313  1.00  0.00    -0.519 C  
HETATM   23  C   UNL     1     -12.459  16.047  74.155  1.00  0.00    -0.748 C  
ENDBRANCH  19  22
ENDBRANCH  15  19
BRANCH  16  24
HETATM   24  O   UNL     1     -11.404  10.219  68.847  1.00  0.00    -0.231 OA 
HETATM   25  C   UNL     1     -10.975  10.473  67.515  1.00  0.00    -0.303 C  
ENDBRANCH  16  24
ENDBRANCH  10  13
ENDBRANCH   8   9
ENDBRANCH   7   8
ENDBRANCH   2   3
TORSDOF 7
ENDMDL
MODEL       11
REMARK 921   NORMALIZED FREE ENERGY PREDICTED BY IDOCK:   -6.22 KCAL/MOL
REMARK 922        TOTAL FREE ENERGY PREDICTED BY IDOCK:   -9.63 KCAL/MOL
REMARK 923 INTER-LIGAND FREE ENERGY PREDICTED BY IDOCK:   -8.61 KCAL/MOL
REMARK 924 INTRA-LIGAND FREE ENERGY PREDICTED BY IDOCK:   -1.02 KCAL/MOL
REMARK 927      BINDING AFFINITY PREDICTED BY RF-SCORE:    0.00 PKD
ROOT
HETATM    1  C   UNL     1      -9.250   8.633  71.988  1.00  0.00    -0.338 C  
HETATM    2  C   UNL     1      -9.871   8.420  70.611  1.00  0.00    -0.181 C  
ENDROOT
BRANCH   2   3
HETATM    3  N   UNL     1     -11.146   9.131  70.456  1.00  0.00    -0.251 NA 
HETATM    4  C   UNL     1     -11.800   9.409  71.738  1.00  0.00    -0.382 C  
HETATM    5  C   UNL     1     -12.814  10.467  71.363  1.00  0.00    -0.551 C  
HETATM    6  C   UNL     1     -12.065  11.341  70.372  1.00  0.00    -0.474 C  
HETATM    7  C   UNL     1     -10.980  10.433  69.765  1.00  0.00    -0.293 C  
BRANCH   7   8
HETATM    8  C   UNL     1     -11.141  10.275  68.236  1.00  0.00    -0.254 C  
BRANCH   8   9
HETATM    9  N   UNL     1     -11.421  11.523  67.536  1.00  0.00    -0.297 N  
HETATM   10  C   UNL     1     -10.426  12.261  66.918  1.00  0.00    -0.217 C  
HETATM   11  H   UNL     1     -12.382  11.864  67.499  1.00  0.00     0.000 HD 
HETATM   12  O   UNL     1      -9.250  11.921  66.928  1.00  0.00    -0.181 OA 
BRANCH  10  13
HETATM   13  C   UNL     1     -10.856  13.535  66.267  1.00  0.00    -0.291 A  
HETATM   14  C   UNL     1     -10.101  14.694  66.552  1.00  0.00    -0.286 A  
HETATM   15  C   UNL     1     -10.363  15.898  65.887  1.00  0.00    -0.365 A  
HETATM   16  C   UNL     1     -11.882  13.613  65.307  1.00  0.00    -0.349 A  
HETATM   17  C   UNL     1     -11.372  15.976  64.935  1.00  0.00    -0.232 A  
HETATM   18  C   UNL     1     -12.115  14.832  64.642  1.00  0.00    -0.437 A  
BRANCH  15  19
HETATM   19  S   UNL     1      -9.456  17.362  66.339  1.00  0.00    -0.239 S  
HETATM   20  O   UNL     1     -10.203  18.490  65.819  1.00  0.00    -0.568 OA 
HETATM   21  O   UNL     1      -8.077  17.143  65.948  1.00  0.00    -0.516 OA 
BRANCH  19  22
HETATM   22  C   UNL     1      -9.540  17.402  68.119  1.00  0.00    -0.287 C  
HETATM   23  C   UNL     1     -10.083  18.733  68.611  1.00  0.00    -0.432 C  
ENDBRANCH  19  22
ENDBRANCH  15  19
BRANCH  16  24
HETATM   24  O   UNL     1     -12.685  12.606  64.845  1.00  0.00    -0.648 OA 
HETATM   25  C   UNL     1     -12.297  11.972  63.632  1.00  0.00    -0.539 C  
ENDBRANCH  16  24
ENDBRANCH  10  13
ENDBRANCH   8   9
ENDBRANCH   7   8
ENDBRANCH   2   3
TORSDOF 7
ENDMDL
MODEL       12
REMARK 921   NORMALIZED FREE ENERGY PREDICTED BY IDOCK:   -6.19 KCAL/MOL
REMARK 922        TOTAL FREE ENERGY PREDICTED BY IDOCK:   -9.60 KCAL/MOL
REMARK 923 INTER-LIGAND FREE ENERGY PREDICTED BY IDOCK:   -8.77 KCAL/MOL
REMARK 924 INTRA-LIGAND FREE ENERGY PREDICTED BY IDOCK:   -0.82 KCAL/MOL
REMARK 927      BINDING AFFINITY PREDICTED BY RF-SCORE:    0.00 PKD
ROOT
HETATM    1  C   UNL     1     -11.762  15.959  69.436  1.00  0.00    -0.350 C  
HETATM    2  C   UNL     1     -10.817  15.645  70.591  1.00  0.00    -0.292 C  
ENDROOT
BRANCH   2   3
HETATM    3  N   UNL     1     -11.529  15.185  71.789  1.00  0.00    -0.403 NA 
HETATM    4  C   UNL     1     -11.931  16.287  72.668  1.00  0.00    -0.546 C  
HETATM    5  C   UNL     1     -12.966  15.633  73.558  1.00  0.00    -0.679 C  
HETATM    6  C   UNL     1     -13.736  14.736  72.604  1.00  0.00    -0.547 C  
HETATM    7  C   UNL     1     -12.762  14.431  71.453  1.00  0.00    -0.342 C  
BRANCH   7   8
HETATM    8  C   UNL     1     -12.470  12.919  71.322  1.00  0.00    -0.200 C  
BRANCH   8   9
HETATM    9  N   UNL     1     -11.958  12.524  70.014  1.00  0.00    -0.399 N  
HETATM   10  C   UNL     1     -12.000  11.214  69.572  1.00  0.00    -0.355 C  
HETATM   11  H   UNL     1     -11.557  13.237  69.405  1.00  0.00     0.000 HD 
HETATM   12  O   UNL     1     -12.457  10.303  70.250  1.00  0.00    -0.252 OA 
BRANCH  10  13
HETATM   13  C   UNL     1     -11.410  10.952  68.224  1.00  0.00    -0.374 A  
HETATM   14  C   UNL     1     -11.751  11.846  67.185  1.00  0.00    -0.311 A  
HETATM   15  C   UNL     1     -11.144  11.742  65.928  1.00  0.00    -0.302 A  
HETATM   16  C   UNL     1     -10.454   9.951  67.971  1.00  0.00    -0.222 A  
HETATM   17  C   UNL     1     -10.196  10.759  65.677  1.00  0.00    -0.320 A  
HETATM   18  C   UNL     1      -9.848   9.879  66.703  1.00  0.00    -0.265 A  
BRANCH  15  19
HETATM   19  S   UNL     1     -11.668  12.823  64.613  1.00  0.00    -0.380 S  
HETATM   20  O   UNL     1     -12.957  12.336  64.163  1.00  0.00    -0.721 OA 
HETATM   21  O   UNL     1     -10.555  12.936  63.690  1.00  0.00    -0.344 OA 
BRANCH  19  22
HETATM   22  C   UNL     1     -11.907  14.401  65.406  1.00  0.00    -0.366 C  
HETATM   23  C   UNL     1     -10.746  15.338  65.123  1.00  0.00    -0.455 C  
ENDBRANCH  19  22
ENDBRANCH  15  19
BRANCH  16  24
HETATM   24  O   UNL     1      -9.943   9.031  68.846  1.00  0.00    -0.177 OA 
HETATM   25  C   UNL     1      -8.803   9.420  69.603  1.00  0.00    -0.172 C  
ENDBRANCH  16  24
ENDBRANCH  10  13
ENDBRANCH   8   9
ENDBRANCH   7   8
ENDBRANCH   2   3
TORSDOF 7
ENDMDL
MODEL       13
REMARK 921   NORMALIZED FREE ENERGY PREDICTED BY IDOCK:   -6.16 KCAL/MOL
REMARK 922        TOTAL FREE ENERGY PREDICTED BY IDOCK:   -9.55 KCAL/MOL
REMARK 923 INTER-LIGAND FREE ENERGY PREDICTED BY IDOCK:   -8.39 KCAL/MOL
REMARK 924 INTRA-LIGAND FREE ENERGY PREDICTED BY IDOCK:   -1.16 KCAL/MOL
REMARK 927      BINDING AFFINITY PREDICTED BY RF-SCORE:    0.00 PKD
ROOT
HETATM    1  C   UNL     1      -6.120  20.875  65.582  1.00  0.00    -0.277 C  
HETATM    2  C   UNL     1      -6.945  19.592  65.565  1.00  0.00    -0.291 C  
ENDROOT
BRANCH   2   3
HETATM    3  N   UNL     1      -7.141  19.034  66.908  1.00  0.00    -0.204 NA 
HETATM    4  C   UNL     1      -5.884  18.627  67.543  1.00  0.00    -0.170 C  
HETATM    5  C   UNL     1      -6.280  18.498  68.997  1.00  0.00    -0.248 C  
HETATM    6  C   UNL     1      -7.215  19.675  69.215  1.00  0.00    -0.334 C  
HETATM    7  C   UNL     1      -7.793  20.000  67.827  1.00  0.00    -0.295 C  
BRANCH   7   8
HETATM    8  C   UNL     1      -9.331  19.853  67.786  1.00  0.00    -0.347 C  
BRANCH   8   9
HETATM    9  N   UNL     1      -9.797  18.471  67.837  1.00  0.00    -0.311 N  
HETATM   10  C   UNL     1     -10.416  17.863  66.759  1.00  0.00    -0.311 C  
HETATM   11  H   UNL     1      -9.662  17.936  68.695  1.00  0.00     0.000 HD 
HETATM   12  O   UNL     1     -10.621  18.443  65.702  1.00  0.00    -0.622 OA 
BRANCH  10  13
HETATM   13  C   UNL     1     -10.870  16.454  66.968  1.00  0.00    -0.145 A  
HETATM   14  C   UNL     1     -11.204  15.706  65.818  1.00  0.00    -0.080 A  
HETATM   15  C   UNL     1     -11.519  14.345  65.918  1.00  0.00    -0.341 A  
HETATM   16  C   UNL     1     -10.864  15.809  68.219  1.00  0.00    -0.305 A  
HETATM   17  C   UNL     1     -11.508  13.705  67.151  1.00  0.00    -0.367 A  
HETATM   18  C   UNL     1     -11.169  14.437  68.289  1.00  0.00    -0.295 A  
BRANCH  15  19
HETATM   19  S   UNL     1     -12.029  13.456  64.462  1.00  0.00    -0.428 S  
HETATM   20  O   UNL     1     -12.473  14.448  63.504  1.00  0.00    -0.770 OA 
HETATM   21  O   UNL     1     -12.920  12.400  64.902  1.00  0.00    -0.762 OA 
BRANCH  19  22
HETATM   22  C   UNL     1     -10.530  12.713  63.849  1.00  0.00    -0.411 C  
HETATM   23  C   UNL     1     -10.476  11.232  64.183  1.00  0.00    -0.431 C  
ENDBRANCH  19  22
ENDBRANCH  15  19
BRANCH  16  24
HETATM   24  O   UNL     1     -10.516  16.330  69.436  1.00  0.00    -0.252 OA 
HETATM   25  C   UNL     1     -11.311  15.950  70.553  1.00  0.00    -0.390 C  
ENDBRANCH  16  24
ENDBRANCH  10  13
ENDBRANCH   8   9
ENDBRANCH   7   8
ENDBRANCH   2   3
TORSDOF 7
ENDMDL
MODEL       14
REMARK 921   NORMALIZED FREE ENERGY PREDICTED BY IDOCK:   -6.11 KCAL/MOL
REMARK 922        TOTAL FREE ENERGY PREDICTED BY IDOCK:   -9.48 KCAL/MOL
REMARK 923 INTER-LIGAND FREE ENERGY PREDICTED BY IDOCK:   -8.60 KCAL/MOL
REMARK 924 INTRA-LIGAND FREE ENERGY PREDICTED BY IDOCK:   -0.88 KCAL/MOL
REMARK 927      BINDING AFFINITY PREDICTED BY RF-SCORE:    0.00 PKD
ROOT
HETATM    1  C   UNL     1      -9.936   7.800  66.801  1.00  0.00    -0.331 C  
HETATM    2  C   UNL     1      -9.987   9.092  67.610  1.00  0.00    -0.195 C  
ENDROOT
BRANCH   2   3
HETATM    3  N   UNL     1     -10.775   8.953  68.840  1.00  0.00    -0.160 NA 
HETATM    4  C   UNL     1     -10.238   7.935  69.746  1.00  0.00    -0.212 C  
HETATM    5  C   UNL     1     -10.926   8.265  71.052  1.00  0.00    -0.280 C  
HETATM    6  C   UNL     1     -10.919   9.784  71.082  1.00  0.00    -0.386 C  
HETATM    7  C   UNL     1     -10.844  10.221  69.608  1.00  0.00    -0.271 C  
BRANCH   7   8
HETATM    8  C   UNL     1     -12.069  11.061  69.186  1.00  0.00    -0.263 C  
BRANCH   8   9
HETATM    9  N   UNL     1     -11.799  12.006  68.108  1.00  0.00    -0.330 N  
HETATM   10  C   UNL     1     -11.967  13.370  68.266  1.00  0.00    -0.317 C  
HETATM   11  H   UNL     1     -11.475  11.649  67.209  1.00  0.00     0.000 HD 
HETATM   12  O   UNL     1     -12.360  13.871  69.311  1.00  0.00    -0.323 OA 
BRANCH  10  13
HETATM   13  C   UNL     1     -11.682  14.213  67.065  1.00  0.00    -0.430 A  
HETATM   14  C   UNL     1     -10.914  15.381  67.262  1.00  0.00    -0.317 A  
HETATM   15  C   UNL     1     -10.500  16.157  66.172  1.00  0.00    -0.325 A  
HETATM   16  C   UNL     1     -12.032  13.845  65.752  1.00  0.00    -0.400 A  
HETATM   17  C   UNL     1     -10.839  15.792  64.875  1.00  0.00    -0.433 A  
HETATM   18  C   UNL     1     -11.590  14.634  64.673  1.00  0.00    -0.406 A  
BRANCH  15  19
HETATM   19  S   UNL     1      -9.615  17.674  66.464  1.00  0.00    -0.288 S  
HETATM   20  O   UNL     1     -10.322  18.713  65.741  1.00  0.00    -0.573 OA 
HETATM   21  O   UNL     1      -8.216  17.406  66.195  1.00  0.00    -0.419 OA 
BRANCH  19  22
HETATM   22  C   UNL     1      -9.810  17.971  68.210  1.00  0.00    -0.355 C  
HETATM   23  C   UNL     1      -9.793  19.459  68.518  1.00  0.00    -0.509 C  
ENDBRANCH  19  22
ENDBRANCH  15  19
BRANCH  16  24
HETATM   24  O   UNL     1     -12.714  12.733  65.340  1.00  0.00    -0.621 OA 
HETATM   25  C   UNL     1     -12.427  12.244  64.035  1.00  0.00    -0.458 C  
ENDBRANCH  16  24
ENDBRANCH  10  13
ENDBRANCH   8   9
ENDBRANCH   7   8
ENDBRANCH   2   3
TORSDOF 7
ENDMDL
MODEL       15
REMARK 921   NORMALIZED FREE ENERGY PREDICTED BY IDOCK:   -6.05 KCAL/MOL
REMARK 922        TOTAL FREE ENERGY PREDICTED BY IDOCK:   -9.39 KCAL/MOL
REMARK 923 INTER-LIGAND FREE ENERGY PREDICTED BY IDOCK:   -8.23 KCAL/MOL
REMARK 924 INTRA-LIGAND FREE ENERGY PREDICTED BY IDOCK:   -1.17 KCAL/MOL
REMARK 927      BINDING AFFINITY PREDICTED BY RF-SCORE:    0.00 PKD
ROOT
HETATM    1  C   UNL     1      -8.305   9.561  69.932  1.00  0.00    -0.180 C  
HETATM    2  C   UNL     1      -9.551   8.984  69.267  1.00  0.00    -0.162 C  
ENDROOT
BRANCH   2   3
HETATM    3  N   UNL     1     -10.453   8.341  70.230  1.00  0.00    -0.214 NA 
HETATM    4  C   UNL     1      -9.909   7.093  70.772  1.00  0.00    -0.178 C  
HETATM    5  C   UNL     1     -10.775   6.862  71.990  1.00  0.00    -0.244 C  
HETATM    6  C   UNL     1     -10.946   8.255  72.572  1.00  0.00    -0.424 C  
HETATM    7  C   UNL     1     -10.753   9.219  71.388  1.00  0.00    -0.362 C  
BRANCH   7   8
HETATM    8  C   UNL     1     -12.011  10.076  71.124  1.00  0.00    -0.392 C  
BRANCH   8   9
HETATM    9  N   UNL     1     -11.726  11.391  70.561  1.00  0.00    -0.470 N  
HETATM   10  C   UNL     1     -11.946  11.685  69.227  1.00  0.00    -0.317 C  
HETATM   11  H   UNL     1     -11.353  12.119  71.171  1.00  0.00     0.000 HD 
HETATM   12  O   UNL     1     -12.383  10.862  68.433  1.00  0.00    -0.477 OA 
BRANCH  10  13
HETATM   13  C   UNL     1     -11.578  13.064  68.784  1.00  0.00    -0.350 A  
HETATM   14  C   UNL     1     -11.406  13.274  67.399  1.00  0.00    -0.337 A  
HETATM   15  C   UNL     1     -11.182  14.561  66.895  1.00  0.00    -0.336 A  
HETATM   16  C   UNL     1     -11.514  14.171  69.652  1.00  0.00    -0.273 A  
HETATM   17  C   UNL     1     -11.125  15.656  67.748  1.00  0.00    -0.311 A  
HETATM   18  C   UNL     1     -11.304  15.456  69.117  1.00  0.00    -0.323 A  
BRANCH  15  19
HETATM   19  S   UNL     1     -10.873  14.777  65.154  1.00  0.00    -0.432 S  
HETATM   20  O   UNL     1      -9.865  13.803  64.787  1.00  0.00    -0.191 OA 
HETATM   21  O   UNL     1     -10.649  16.193  64.937  1.00  0.00    -0.622 OA 
BRANCH  19  22
HETATM   22  C   UNL     1     -12.408  14.321  64.373  1.00  0.00    -0.391 C  
HETATM   23  C   UNL     1     -12.261  13.029  63.588  1.00  0.00    -0.568 C  
ENDBRANCH  19  22
ENDBRANCH  15  19
BRANCH  16  24
HETATM   24  O   UNL     1     -11.710  14.195  71.006  1.00  0.00    -0.255 OA 
HETATM   25  C   UNL     1     -11.808  15.473  71.624  1.00  0.00    -0.415 C  
ENDBRANCH  16  24
ENDBRANCH  10  13
ENDBRANCH   8   9
ENDBRANCH   7   8
ENDBRANCH   2   3
TORSDOF 7
ENDMDL
MODEL       16
REMARK 921   NORMALIZED FREE ENERGY PREDICTED BY IDOCK:   -6.03 KCAL/MOL
REMARK 922        TOTAL FREE ENERGY PREDICTED BY IDOCK:   -9.37 KCAL/MOL
REMARK 923 INTER-LIGAND FREE ENERGY PREDICTED BY IDOCK:   -8.32 KCAL/MOL
REMARK 924 INTRA-LIGAND FREE ENERGY PREDICTED BY IDOCK:   -1.04 KCAL/MOL
REMARK 927      BINDING AFFINITY PREDICTED BY RF-SCORE:    0.00 PKD
ROOT
HETATM    1  C   UNL     1     -13.692   8.199  71.866  1.00  0.00    -0.395 C  
HETATM    2  C   UNL     1     -13.444   9.704  71.828  1.00  0.00    -0.394 C  
ENDROOT
BRANCH   2   3
HETATM    3  N   UNL     1     -12.065  10.035  71.448  1.00  0.00    -0.394 NA 
HETATM    4  C   UNL     1     -11.238   8.847  71.220  1.00  0.00    -0.298 C  
HETATM    5  C   UNL     1     -10.057   9.412  70.462  1.00  0.00    -0.335 C  
HETATM    6  C   UNL     1     -10.690  10.428  69.527  1.00  0.00    -0.284 C  
HETATM    7  C   UNL     1     -12.005  10.846  70.208  1.00  0.00    -0.361 C  
BRANCH   7   8
HETATM    8  C   UNL     1     -12.040  12.357  70.530  1.00  0.00    -0.275 C  
BRANCH   8   9
HETATM    9  N   UNL     1     -11.618  13.211  69.425  1.00  0.00    -0.303 N  
HETATM   10  C   UNL     1     -11.994  14.539  69.336  1.00  0.00    -0.322 C  
HETATM   11  H   UNL     1     -11.027  12.815  68.694  1.00  0.00     0.000 HD 
HETATM   12  O   UNL     1     -12.708  15.081  70.169  1.00  0.00    -0.303 OA 
BRANCH  10  13
HETATM   13  C   UNL     1     -11.513  15.282  68.131  1.00  0.00    -0.357 A  
HETATM   14  C   UNL     1     -11.018  16.589  68.332  1.00  0.00    -0.348 A  
HETATM   15  C   UNL     1     -10.437  17.302  67.277  1.00  0.00    -0.319 A  
HETATM   16  C   UNL     1     -11.417  14.710  66.848  1.00  0.00    -0.363 A  
HETATM   17  C   UNL     1     -10.336  16.737  66.011  1.00  0.00    -0.346 A  
HETATM   18  C   UNL     1     -10.814  15.443  65.809  1.00  0.00    -0.349 A  
BRANCH  15  19
HETATM   19  S   UNL     1      -9.911  18.983  67.541  1.00  0.00    -0.371 S  
HETATM   20  O   UNL     1     -10.246  19.312  68.913  1.00  0.00    -0.392 OA 
HETATM   21  O   UNL     1     -10.437  19.769  66.442  1.00  0.00    -0.457 OA 
BRANCH  19  22
HETATM   22  C   UNL     1      -8.137  18.920  67.394  1.00  0.00    -0.261 C  
HETATM   23  C   UNL     1      -7.544  17.900  68.351  1.00  0.00    -0.282 C  
ENDBRANCH  19  22
ENDBRANCH  15  19
BRANCH  16  24
HETATM   24  O   UNL     1     -11.777  13.449  66.457  1.00  0.00    -0.337 OA 
HETATM   25  C   UNL     1     -12.654  13.343  65.341  1.00  0.00    -0.475 C  
ENDBRANCH  16  24
ENDBRANCH  10  13
ENDBRANCH   8   9
ENDBRANCH   7   8
ENDBRANCH   2   3
TORSDOF 7
ENDMDL
MODEL       17
REMARK 921   NORMALIZED FREE ENERGY PREDICTED BY IDOCK:   -6.01 KCAL/MOL
REMARK 922        TOTAL FREE ENERGY PREDICTED BY IDOCK:   -9.34 KCAL/MOL
REMARK 923 INTER-LIGAND FREE ENERGY PREDICTED BY IDOCK:   -8.05 KCAL/MOL
REMARK 924 INTRA-LIGAND FREE ENERGY PREDICTED BY IDOCK:   -1.29 KCAL/MOL
REMARK 927      BINDING AFFINITY PREDICTED BY RF-SCORE:    0.00 PKD
ROOT
HETATM    1  C   UNL     1     -12.224  12.974  65.480  1.00  0.00    -0.521 C  
HETATM    2  C   UNL     1     -10.765  13.310  65.190  1.00  0.00    -0.322 C  
ENDROOT
BRANCH   2   3
HETATM    3  N   UNL     1     -10.306  14.496  65.924  1.00  0.00    -0.303 NA 
HETATM    4  C   UNL     1     -10.670  15.750  65.258  1.00  0.00    -0.428 C  
HETATM    5  C   UNL     1     -10.482  16.770  66.359  1.00  0.00    -0.269 C  
HETATM    6  C   UNL     1     -11.014  16.061  67.593  1.00  0.00    -0.284 C  
HETATM    7  C   UNL     1     -10.868  14.558  67.296  1.00  0.00    -0.297 C  
BRANCH   7   8
HETATM    8  C   UNL     1      -9.939  13.851  68.308  1.00  0.00    -0.238 C  
BRANCH   8   9
HETATM    9  N   UNL     1     -10.629  12.935  69.209  1.00  0.00    -0.435 N  
HETATM   10  C   UNL     1     -10.774  11.589  68.922  1.00  0.00    -0.207 C  
HETATM   11  H   UNL     1     -11.017  13.298  70.080  1.00  0.00     0.000 HD 
HETATM   12  O   UNL     1     -10.343  11.083  67.894  1.00  0.00    -0.176 OA 
BRANCH  10  13
HETATM   13  C   UNL     1     -11.532  10.779  69.923  1.00  0.00    -0.398 A  
HETATM   14  C   UNL     1     -11.211   9.408  70.021  1.00  0.00    -0.217 A  
HETATM   15  C   UNL     1     -11.787   8.609  71.017  1.00  0.00    -0.265 A  
HETATM   16  C   UNL     1     -12.448  11.329  70.840  1.00  0.00    -0.394 A  
HETATM   17  C   UNL     1     -12.686   9.151  71.926  1.00  0.00    -0.464 A  
HETATM   18  C   UNL     1     -13.001  10.507  71.840  1.00  0.00    -0.553 A  
BRANCH  15  19
HETATM   19  S   UNL     1     -11.434   6.864  71.052  1.00  0.00    -0.333 S  
HETATM   20  O   UNL     1     -11.492   6.401  69.680  1.00  0.00    -0.416 OA 
HETATM   21  O   UNL     1     -12.287   6.280  72.068  1.00  0.00    -0.328 OA 
BRANCH  19  22
HETATM   22  C   UNL     1      -9.743   6.766  71.608  1.00  0.00    -0.162 C  
HETATM   23  C   UNL     1      -9.578   7.411  72.973  1.00  0.00    -0.242 C  
ENDBRANCH  19  22
ENDBRANCH  15  19
BRANCH  16  24
HETATM   24  O   UNL     1     -12.848  12.632  70.955  1.00  0.00    -0.275 OA 
HETATM   25  C   UNL     1     -13.618  12.975  72.102  1.00  0.00    -0.526 C  
ENDBRANCH  16  24
ENDBRANCH  10  13
ENDBRANCH   8   9
ENDBRANCH   7   8
ENDBRANCH   2   3
TORSDOF 7
ENDMDL
MODEL       18
REMARK 921   NORMALIZED FREE ENERGY PREDICTED BY IDOCK:   -6.01 KCAL/MOL
REMARK 922        TOTAL FREE ENERGY PREDICTED BY IDOCK:   -9.33 KCAL/MOL
REMARK 923 INTER-LIGAND FREE ENERGY PREDICTED BY IDOCK:   -8.23 KCAL/MOL
REMARK 924 INTRA-LIGAND FREE ENERGY PREDICTED BY IDOCK:   -1.11 KCAL/MOL
REMARK 927      BINDING AFFINITY PREDICTED BY RF-SCORE:    0.00 PKD
ROOT
HETATM    1  C   UNL     1     -10.175  10.092  67.003  1.00  0.00    -0.290 C  
HETATM    2  C   UNL     1     -11.133  11.269  66.855  1.00  0.00    -0.275 C  
ENDROOT
BRANCH   2   3
HETATM    3  N   UNL     1     -10.983  11.956  65.566  1.00  0.00    -0.291 NA 
HETATM    4  C   UNL     1     -10.462  11.079  64.514  1.00  0.00    -0.342 C  
HETATM    5  C   UNL     1     -10.790  11.851  63.255  1.00  0.00    -0.408 C  
HETATM    6  C   UNL     1     -12.169  12.421  63.538  1.00  0.00    -0.661 C  
HETATM    7  C   UNL     1     -12.269  12.506  65.071  1.00  0.00    -0.456 C  
BRANCH   7   8
HETATM    8  C   UNL     1     -12.479  13.956  65.563  1.00  0.00    -0.511 C  
BRANCH   8   9
HETATM    9  N   UNL     1     -11.281  14.573  66.122  1.00  0.00    -0.334 N  
HETATM   10  C   UNL     1     -10.581  15.561  65.453  1.00  0.00    -0.408 C  
HETATM   11  H   UNL     1     -10.949  14.265  67.036  1.00  0.00     0.000 HD 
HETATM   12  O   UNL     1     -10.914  15.975  64.350  1.00  0.00    -0.554 OA 
BRANCH  10  13
HETATM   13  C   UNL     1      -9.355  16.078  66.134  1.00  0.00    -0.377 A  
HETATM   14  C   UNL     1      -9.199  17.479  66.208  1.00  0.00    -0.228 A  
HETATM   15  C   UNL     1      -8.143  18.042  66.936  1.00  0.00    -0.236 A  
HETATM   16  C   UNL     1      -8.427  15.256  66.799  1.00  0.00    -0.255 A  
HETATM   17  C   UNL     1      -7.229  17.232  67.598  1.00  0.00    -0.176 A  
HETATM   18  C   UNL     1      -7.384  15.847  67.536  1.00  0.00    -0.198 A  
BRANCH  15  19
HETATM   19  S   UNL     1      -7.920  19.809  66.929  1.00  0.00    -0.307 S  
HETATM   20  O   UNL     1      -7.412  20.158  65.617  1.00  0.00    -0.319 OA 
HETATM   21  O   UNL     1      -7.174  20.146  68.126  1.00  0.00    -0.285 OA 
BRANCH  19  22
HETATM   22  C   UNL     1      -9.570  20.464  67.086  1.00  0.00    -0.447 C  
HETATM   23  C   UNL     1     -10.288  19.858  68.280  1.00  0.00    -0.526 C  
ENDBRANCH  19  22
ENDBRANCH  15  19
BRANCH  16  24
HETATM   24  O   UNL     1      -8.429  13.891  66.902  1.00  0.00    -0.174 OA 
HETATM   25  C   UNL     1      -8.570  13.340  68.206  1.00  0.00    -0.169 C  
ENDBRANCH  16  24
ENDBRANCH  10  13
ENDBRANCH   8   9
ENDBRANCH   7   8
ENDBRANCH   2   3
TORSDOF 7
ENDMDL
MODEL       19
REMARK 921   NORMALIZED FREE ENERGY PREDICTED BY IDOCK:   -6.01 KCAL/MOL
REMARK 922        TOTAL FREE ENERGY PREDICTED BY IDOCK:   -9.33 KCAL/MOL
REMARK 923 INTER-LIGAND FREE ENERGY PREDICTED BY IDOCK:   -8.33 KCAL/MOL
REMARK 924 INTRA-LIGAND FREE ENERGY PREDICTED BY IDOCK:   -1.01 KCAL/MOL
REMARK 927      BINDING AFFINITY PREDICTED BY RF-SCORE:    0.00 PKD
ROOT
HETATM    1  C   UNL     1      -8.503   8.173  73.504  1.00  0.00    -0.310 C  
HETATM    2  C   UNL     1      -9.926   7.711  73.210  1.00  0.00    -0.320 C  
ENDROOT
BRANCH   2   3
HETATM    3  N   UNL     1     -10.198   7.615  71.771  1.00  0.00    -0.187 NA 
HETATM    4  C   UNL     1      -9.142   6.909  71.040  1.00  0.00    -0.155 C  
HETATM    5  C   UNL     1      -9.819   6.577  69.729  1.00  0.00    -0.182 C  
HETATM    6  C   UNL     1     -11.226   6.187  70.146  1.00  0.00    -0.452 C  
HETATM    7  C   UNL     1     -11.468   6.902  71.487  1.00  0.00    -0.277 C  
BRANCH   7   8
HETATM    8  C   UNL     1     -12.655   7.889  71.416  1.00  0.00    -0.300 C  
BRANCH   8   9
HETATM    9  N   UNL     1     -12.376   9.100  70.653  1.00  0.00    -0.490 N  
HETATM   10  C   UNL     1     -12.585  10.364  71.176  1.00  0.00    -0.410 C  
HETATM   11  H   UNL     1     -12.014   9.013  69.703  1.00  0.00     0.000 HD 
HETATM   12  O   UNL     1     -13.024  10.549  72.303  1.00  0.00    -0.370 OA 
BRANCH  10  13
HETATM   13  C   UNL     1     -12.284  11.512  70.267  1.00  0.00    -0.415 A  
HETATM   14  C   UNL     1     -12.382  12.811  70.812  1.00  0.00    -0.375 A  
HETATM   15  C   UNL     1     -11.999  13.930  70.063  1.00  0.00    -0.336 A  
HETATM   16  C   UNL     1     -11.800  11.362  68.953  1.00  0.00    -0.347 A  
HETATM   17  C   UNL     1     -11.515  13.784  68.768  1.00  0.00    -0.338 A  
HETATM   18  C   UNL     1     -11.407  12.502  68.228  1.00  0.00    -0.331 A  
BRANCH  15  19
HETATM   19  S   UNL     1     -12.226  15.559  70.745  1.00  0.00    -0.429 S  
HETATM   20  O   UNL     1     -13.651  15.819  70.734  1.00  0.00    -0.477 OA 
HETATM   21  O   UNL     1     -11.307  16.440  70.051  1.00  0.00    -0.312 OA 
BRANCH  19  22
HETATM   22  C   UNL     1     -11.694  15.407  72.439  1.00  0.00    -0.466 C  
HETATM   23  C   UNL     1     -12.882  15.279  73.376  1.00  0.00    -0.667 C  
ENDBRANCH  19  22
ENDBRANCH  15  19
BRANCH  16  24
HETATM   24  O   UNL     1     -11.574  10.201  68.264  1.00  0.00    -0.193 OA 
HETATM   25  C   UNL     1     -10.218   9.809  68.084  1.00  0.00    -0.186 C  
ENDBRANCH  16  24
ENDBRANCH  10  13
ENDBRANCH   8   9
ENDBRANCH   7   8
ENDBRANCH   2   3
TORSDOF 7
ENDMDL
MODEL       20
REMARK 921   NORMALIZED FREE ENERGY PREDICTED BY IDOCK:   -6.00 KCAL/MOL
REMARK 922        TOTAL FREE ENERGY PREDICTED BY IDOCK:   -9.32 KCAL/MOL
REMARK 923 INTER-LIGAND FREE ENERGY PREDICTED BY IDOCK:   -8.67 KCAL/MOL
REMARK 924 INTRA-LIGAND FREE ENERGY PREDICTED BY IDOCK:   -0.65 KCAL/MOL
REMARK 927      BINDING AFFINITY PREDICTED BY RF-SCORE:    0.00 PKD
ROOT
HETATM    1  C   UNL     1     -10.262   5.698  69.382  1.00  0.00    -0.315 C  
HETATM    2  C   UNL     1     -11.516   6.455  69.806  1.00  0.00    -0.399 C  
ENDROOT
BRANCH   2   3
HETATM    3  N   UNL     1     -11.589   6.648  71.259  1.00  0.00    -0.307 NA 
HETATM    4  C   UNL     1     -10.798   5.664  72.003  1.00  0.00    -0.242 C  
HETATM    5  C   UNL     1     -10.690   6.300  73.371  1.00  0.00    -0.281 C  
HETATM    6  C   UNL     1     -10.483   7.772  73.062  1.00  0.00    -0.432 C  
HETATM    7  C   UNL     1     -11.106   7.989  71.672  1.00  0.00    -0.252 C  
BRANCH   7   8
HETATM    8  C   UNL     1     -12.265   9.011  71.705  1.00  0.00    -0.348 C  
BRANCH   8   9
HETATM    9  N   UNL     1     -11.990  10.244  70.977  1.00  0.00    -0.359 N  
HETATM   10  C   UNL     1     -12.627  11.435  71.279  1.00  0.00    -0.374 C  
HETATM   11  H   UNL     1     -11.306  10.229  70.220  1.00  0.00     0.000 HD 
HETATM   12  O   UNL     1     -13.465  11.529  72.165  1.00  0.00    -0.410 OA 
BRANCH  10  13
HETATM   13  C   UNL     1     -12.268  12.610  70.427  1.00  0.00    -0.368 A  
HETATM   14  C   UNL     1     -11.914  12.351  69.085  1.00  0.00    -0.291 A  
HETATM   15  C   UNL     1     -11.685  13.405  68.191  1.00  0.00    -0.362 A  
HETATM   16  C   UNL     1     -12.381  13.947  70.853  1.00  0.00    -0.377 A  
HETATM   17  C   UNL     1     -11.802  14.725  68.608  1.00  0.00    -0.334 A  
HETATM   18  C   UNL     1     -12.161  14.987  69.931  1.00  0.00    -0.376 A  
BRANCH  15  19
HETATM   19  S   UNL     1     -11.146  13.044  66.533  1.00  0.00    -0.297 S  
HETATM   20  O   UNL     1     -12.184  12.234  65.926  1.00  0.00    -0.634 OA 
HETATM   21  O   UNL     1      -9.785  12.554  66.628  1.00  0.00    -0.229 OA 
BRANCH  19  22
HETATM   22  C   UNL     1     -11.122  14.630  65.721  1.00  0.00    -0.331 C  
HETATM   23  C   UNL     1     -12.089  14.661  64.550  1.00  0.00    -0.490 C  
ENDBRANCH  19  22
ENDBRANCH  15  19
BRANCH  16  24
HETATM   24  O   UNL     1     -12.766  14.411  72.082  1.00  0.00    -0.324 OA 
HETATM   25  C   UNL     1     -13.952  15.195  72.135  1.00  0.00    -0.533 C  
ENDBRANCH  16  24
ENDBRANCH  10  13
ENDBRANCH   8   9
ENDBRANCH   7   8
ENDBRANCH   2   3
TORSDOF 7
ENDMDL
MODEL       21
REMARK 921   NORMALIZED FREE ENERGY PREDICTED BY IDOCK:   -5.99 KCAL/MOL
REMARK 922        TOTAL FREE ENERGY PREDICTED BY IDOCK:   -9.31 KCAL/MOL
REMARK 923 INTER-LIGAND FREE ENERGY PREDICTED BY IDOCK:   -8.27 KCAL/MOL
REMARK 924 INTRA-LIGAND FREE ENERGY PREDICTED BY IDOCK:   -1.04 KCAL/MOL
REMARK 927      BINDING AFFINITY PREDICTED BY RF-SCORE:    0.00 PKD
ROOT
HETATM    1  C   UNL     1     -12.359  12.059  63.383  1.00  0.00    -0.635 C  
HETATM    2  C   UNL     1     -12.256  13.323  64.229  1.00  0.00    -0.392 C  
ENDROOT
BRANCH   2   3
HETATM    3  N   UNL     1     -11.434  13.129  65.430  1.00  0.00    -0.298 NA 
HETATM    4  C   UNL     1     -10.408  12.097  65.254  1.00  0.00    -0.277 C  
HETATM    5  C   UNL     1      -9.468  12.372  66.407  1.00  0.00    -0.240 C  
HETATM    6  C   UNL     1      -9.411  13.889  66.463  1.00  0.00    -0.264 C  
HETATM    7  C   UNL     1     -10.730  14.371  65.834  1.00  0.00    -0.306 C  
BRANCH   7   8
HETATM    8  C   UNL     1     -11.582  15.195  66.825  1.00  0.00    -0.134 C  
BRANCH   8   9
HETATM    9  N   UNL     1     -12.138  14.413  67.923  1.00  0.00    -0.582 N  
HETATM   10  C   UNL     1     -11.683  14.541  69.224  1.00  0.00    -0.310 C  
HETATM   11  H   UNL     1     -12.888  13.750  67.726  1.00  0.00     0.000 HD 
HETATM   12  O   UNL     1     -10.781  15.308  69.535  1.00  0.00    -0.238 OA 
BRANCH  10  13
HETATM   13  C   UNL     1     -12.325  13.652  70.239  1.00  0.00    -0.392 A  
HETATM   14  C   UNL     1     -11.997  12.279  70.195  1.00  0.00    -0.377 A  
HETATM   15  C   UNL     1     -12.459  11.403  71.185  1.00  0.00    -0.360 A  
HETATM   16  C   UNL     1     -13.130  14.123  71.292  1.00  0.00    -0.350 A  
HETATM   17  C   UNL     1     -13.249  11.868  72.229  1.00  0.00    -0.191 A  
HETATM   18  C   UNL     1     -13.568  13.224  72.283  1.00  0.00    -0.703 A  
BRANCH  15  19
HETATM   19  S   UNL     1     -12.107   9.663  71.046  1.00  0.00    -0.343 S  
HETATM   20  O   UNL     1     -11.197   9.336  72.126  1.00  0.00    -0.272 OA 
HETATM   21  O   UNL     1     -11.739   9.414  69.666  1.00  0.00     0.091 OA 
BRANCH  19  22
HETATM   22  C   UNL     1     -13.670   8.869  71.367  1.00  0.00    -0.272 C  
HETATM   23  C   UNL     1     -13.508   7.362  71.473  1.00  0.00    -0.445 C  
ENDBRANCH  19  22
ENDBRANCH  15  19
BRANCH  16  24
HETATM   24  O   UNL     1     -13.512  15.412  71.551  1.00  0.00    -0.453 OA 
HETATM   25  C   UNL     1     -13.282  15.904  72.866  1.00  0.00    -0.527 C  
ENDBRANCH  16  24
ENDBRANCH  10  13
ENDBRANCH   8   9
ENDBRANCH   7   8
ENDBRANCH   2   3
TORSDOF 7
ENDMDL
MODEL       22
REMARK 921   NORMALIZED FREE ENERGY PREDICTED BY IDOCK:   -5.99 KCAL/MOL
REMARK 922        TOTAL FREE ENERGY PREDICTED BY IDOCK:   -9.31 KCAL/MOL
REMARK 923 INTER-LIGAND FREE ENERGY PREDICTED BY IDOCK:   -8.39 KCAL/MOL
REMARK 924 INTRA-LIGAND FREE ENERGY PREDICTED BY IDOCK:   -0.92 KCAL/MOL
REMARK 927      BINDING AFFINITY PREDICTED BY RF-SCORE:    0.00 PKD
ROOT
HETATM    1  C   UNL     1     -10.772  15.537  65.166  1.00  0.00    -0.460 C  
HETATM    2  C   UNL     1     -10.845  14.343  66.114  1.00  0.00    -0.309 C  
ENDROOT
BRANCH   2   3
HETATM    3  N   UNL     1     -11.366  13.138  65.458  1.00  0.00    -0.296 NA 
HETATM    4  C   UNL     1     -12.338  13.441  64.404  1.00  0.00    -0.341 C  
HETATM    5  C   UNL     1     -12.396  12.141  63.632  1.00  0.00    -0.673 C  
HETATM    6  C   UNL     1     -10.949  11.680  63.604  1.00  0.00    -0.507 C  
HETATM    7  C   UNL     1     -10.290  12.330  64.833  1.00  0.00    -0.290 C  
BRANCH   7   8
HETATM    8  C   UNL     1      -9.738  11.280  65.822  1.00  0.00    -0.227 C  
BRANCH   8   9
HETATM    9  N   UNL     1     -10.574  11.075  67.000  1.00  0.00    -0.243 N  
HETATM   10  C   UNL     1     -10.134  11.376  68.277  1.00  0.00    -0.196 C  
HETATM   11  H   UNL     1     -11.514  10.699  66.878  1.00  0.00     0.000 HD 
HETATM   12  O   UNL     1      -9.017  11.822  68.503  1.00  0.00    -0.180 OA 
BRANCH  10  13
HETATM   13  C   UNL     1     -11.088  11.084  69.390  1.00  0.00    -0.320 A  
HETATM   14  C   UNL     1     -11.044   9.791  69.956  1.00  0.00    -0.311 A  
HETATM   15  C   UNL     1     -11.817   9.478  71.081  1.00  0.00    -0.358 A  
HETATM   16  C   UNL     1     -11.928  12.051  69.972  1.00  0.00    -0.324 A  
HETATM   17  C   UNL     1     -12.643  10.433  71.660  1.00  0.00    -0.521 A  
HETATM   18  C   UNL     1     -12.683  11.715  71.111  1.00  0.00    -0.426 A  
BRANCH  15  19
HETATM   19  S   UNL     1     -11.811   7.812  71.711  1.00  0.00    -0.305 S  
HETATM   20  O   UNL     1     -13.097   7.235  71.371  1.00  0.00    -0.376 OA 
HETATM   21  O   UNL     1     -11.373   7.884  73.091  1.00  0.00    -0.361 OA 
BRANCH  19  22
HETATM   22  C   UNL     1     -10.553   6.984  70.758  1.00  0.00    -0.219 C  
HETATM   23  C   UNL     1     -11.163   6.190  69.617  1.00  0.00    -0.488 C  
ENDBRANCH  19  22
ENDBRANCH  15  19
BRANCH  16  24
HETATM   24  O   UNL     1     -12.074  13.366  69.619  1.00  0.00    -0.312 OA 
HETATM   25  C   UNL     1     -12.078  14.322  70.672  1.00  0.00    -0.346 C  
ENDBRANCH  16  24
ENDBRANCH  10  13
ENDBRANCH   8   9
ENDBRANCH   7   8
ENDBRANCH   2   3
TORSDOF 7
ENDMDL
MODEL       23
REMARK 921   NORMALIZED FREE ENERGY PREDICTED BY IDOCK:   -5.98 KCAL/MOL
REMARK 922        TOTAL FREE ENERGY PREDICTED BY IDOCK:   -9.30 KCAL/MOL
REMARK 923 INTER-LIGAND FREE ENERGY PREDICTED BY IDOCK:   -8.10 KCAL/MOL
REMARK 924 INTRA-LIGAND FREE ENERGY PREDICTED BY IDOCK:   -1.20 KCAL/MOL
REMARK 927      BINDING AFFINITY PREDICTED BY RF-SCORE:    0.00 PKD
ROOT
HETATM    1  C   UNL     1     -12.067  12.276  68.944  1.00  0.00    -0.177 C  
HETATM    2  C   UNL     1     -12.063  12.679  70.415  1.00  0.00    -0.300 C  
ENDROOT
BRANCH   2   3
HETATM    3  N   UNL     1     -12.655  14.004  70.635  1.00  0.00    -0.344 NA 
HETATM    4  C   UNL     1     -14.034  13.934  71.125  1.00  0.00     0.143 C  
HETATM    5  C   UNL     1     -14.262  15.332  71.658  1.00  0.00    -0.654 C  
HETATM    6  C   UNL     1     -12.942  15.674  72.328  1.00  0.00    -0.529 C  
HETATM    7  C   UNL     1     -11.887  14.804  71.621  1.00  0.00    -0.315 C  
BRANCH   7   8
HETATM    8  C   UNL     1     -10.803  15.654  70.923  1.00  0.00    -0.183 C  
BRANCH   8   9
HETATM    9  N   UNL     1     -11.004  15.811  69.487  1.00  0.00    -0.269 N  
HETATM   10  C   UNL     1     -10.140  15.260  68.557  1.00  0.00    -0.222 C  
HETATM   11  H   UNL     1     -11.808  16.346  69.157  1.00  0.00     0.000 HD 
HETATM   12  O   UNL     1      -9.151  14.614  68.877  1.00  0.00    -0.192 OA 
BRANCH  10  13
HETATM   13  C   UNL     1     -10.455  15.530  67.121  1.00  0.00    -0.286 A  
HETATM   14  C   UNL     1     -11.033  14.479  66.377  1.00  0.00    -0.324 A  
HETATM   15  C   UNL     1     -11.469  14.691  65.063  1.00  0.00    -0.386 A  
HETATM   16  C   UNL     1     -10.320  16.795  66.518  1.00  0.00    -0.301 A  
HETATM   17  C   UNL     1     -11.342  15.939  64.467  1.00  0.00    -0.316 A  
HETATM   18  C   UNL     1     -10.781  16.985  65.201  1.00  0.00    -0.066 A  
BRANCH  15  19
HETATM   19  S   UNL     1     -12.104  13.319  64.121  1.00  0.00    -0.431 S  
HETATM   20  O   UNL     1     -12.635  13.872  62.890  1.00  0.00    -0.580 OA 
HETATM   21  O   UNL     1     -12.949  12.549  65.012  1.00  0.00    -0.779 OA 
BRANCH  19  22
HETATM   22  C   UNL     1     -10.663  12.349  63.727  1.00  0.00    -0.451 C  
HETATM   23  C   UNL     1     -10.653  11.043  64.503  1.00  0.00    -0.383 C  
ENDBRANCH  19  22
ENDBRANCH  15  19
BRANCH  16  24
HETATM   24  O   UNL     1      -9.846  17.951  67.076  1.00  0.00    -0.290 OA 
HETATM   25  C   UNL     1     -10.776  19.013  67.254  1.00  0.00    -0.470 C  
ENDBRANCH  16  24
ENDBRANCH  10  13
ENDBRANCH   8   9
ENDBRANCH   7   8
ENDBRANCH   2   3
TORSDOF 7
ENDMDL
MODEL       24
REMARK 921   NORMALIZED FREE ENERGY PREDICTED BY IDOCK:   -5.96 KCAL/MOL
REMARK 922        TOTAL FREE ENERGY PREDICTED BY IDOCK:   -9.27 KCAL/MOL
REMARK 923 INTER-LIGAND FREE ENERGY PREDICTED BY IDOCK:   -8.00 KCAL/MOL
REMARK 924 INTRA-LIGAND FREE ENERGY PREDICTED BY IDOCK:   -1.27 KCAL/MOL
REMARK 927      BINDING AFFINITY PREDICTED BY RF-SCORE:    0.00 PKD
ROOT
HETATM    1  C   UNL     1     -10.126   5.279  70.488  1.00  0.00    -0.315 C  
HETATM    2  C   UNL     1     -11.257   5.985  69.747  1.00  0.00    -0.369 C  
ENDROOT
BRANCH   2   3
HETATM    3  N   UNL     1     -11.482   7.350  70.236  1.00  0.00    -0.228 NA 
HETATM    4  C   UNL     1     -12.517   7.418  71.272  1.00  0.00    -0.346 C  
HETATM    5  C   UNL     1     -12.273   8.778  71.888  1.00  0.00    -0.429 C  
HETATM    6  C   UNL     1     -10.758   8.880  71.930  1.00  0.00    -0.426 C  
HETATM    7  C   UNL     1     -10.254   7.947  70.815  1.00  0.00    -0.194 C  
BRANCH   7   8
HETATM    8  C   UNL     1      -9.446   8.708  69.739  1.00  0.00    -0.166 C  
BRANCH   8   9
HETATM    9  N   UNL     1      -9.950  10.046  69.453  1.00  0.00    -0.210 N  
HETATM   10  C   UNL     1     -10.677  10.331  68.311  1.00  0.00    -0.237 C  
HETATM   11  H   UNL     1      -9.761  10.797  70.118  1.00  0.00     0.000 HD 
HETATM   12  O   UNL     1     -10.935   9.486  67.465  1.00  0.00    -0.241 OA 
BRANCH  10  13
HETATM   13  C   UNL     1     -11.100  11.754  68.136  1.00  0.00    -0.297 A  
HETATM   14  C   UNL     1     -11.048  12.287  66.829  1.00  0.00    -0.345 A  
HETATM   15  C   UNL     1     -11.543  13.570  66.562  1.00  0.00    -0.359 A  
HETATM   16  C   UNL     1     -11.653  12.536  69.167  1.00  0.00    -0.320 A  
HETATM   17  C   UNL     1     -12.094  14.341  67.577  1.00  0.00    -0.347 A  
HETATM   18  C   UNL     1     -12.158  13.816  68.868  1.00  0.00    -0.348 A  
BRANCH  15  19
HETATM   19  S   UNL     1     -11.374  14.249  64.924  1.00  0.00    -0.391 S  
HETATM   20  O   UNL     1     -12.717  14.471  64.426  1.00  0.00    -0.655 OA 
HETATM   21  O   UNL     1     -10.449  13.394  64.206  1.00  0.00    -0.429 OA 
BRANCH  19  22
HETATM   22  C   UNL     1     -10.599  15.833  65.180  1.00  0.00    -0.411 C  
HETATM   23  C   UNL     1      -9.292  15.686  65.941  1.00  0.00    -0.357 C  
ENDBRANCH  19  22
ENDBRANCH  15  19
BRANCH  16  24
HETATM   24  O   UNL     1     -11.850  12.191  70.476  1.00  0.00    -0.287 OA 
HETATM   25  C   UNL     1     -12.697  13.034  71.248  1.00  0.00    -0.293 C  
ENDBRANCH  16  24
ENDBRANCH  10  13
ENDBRANCH   8   9
ENDBRANCH   7   8
ENDBRANCH   2   3
TORSDOF 7
ENDMDL
MODEL       25
REMARK 921   NORMALIZED FREE ENERGY PREDICTED BY IDOCK:   -5.89 KCAL/MOL
REMARK 922        TOTAL FREE ENERGY PREDICTED BY IDOCK:   -9.18 KCAL/MOL
REMARK 923 INTER-LIGAND FREE ENERGY PREDICTED BY IDOCK:   -8.28 KCAL/MOL
REMARK 924 INTRA-LIGAND FREE ENERGY PREDICTED BY IDOCK:   -0.90 KCAL/MOL
REMARK 927      BINDING AFFINITY PREDICTED BY RF-SCORE:    0.00 PKD
ROOT
HETATM    1  C   UNL     1      -6.751   6.903  65.622  1.00  0.00    -0.052 C  
HETATM    2  C   UNL     1      -7.686   7.777  66.452  1.00  0.00    -0.093 C  
ENDROOT
BRANCH   2   3
HETATM    3  N   UNL     1      -9.084   7.338  66.370  1.00  0.00    -0.157 NA 
HETATM    4  C   UNL     1      -9.219   5.880  66.317  1.00  0.00    -0.158 C  
HETATM    5  C   UNL     1     -10.678   5.675  66.656  1.00  0.00    -0.339 C  
HETATM    6  C   UNL     1     -10.934   6.698  67.750  1.00  0.00    -0.367 C  
HETATM    7  C   UNL     1      -9.886   7.802  67.529  1.00  0.00    -0.171 C  
BRANCH   7   8
HETATM    8  C   UNL     1     -10.535   9.174  67.241  1.00  0.00    -0.265 C  
BRANCH   8   9
HETATM    9  N   UNL     1     -11.207   9.768  68.392  1.00  0.00    -0.512 N  
HETATM   10  C   UNL     1     -10.991  11.080  68.776  1.00  0.00    -0.221 C  
HETATM   11  H   UNL     1     -11.857   9.197  68.932  1.00  0.00     0.000 HD 
HETATM   12  O   UNL     1     -10.220  11.822  68.183  1.00  0.00    -0.190 OA 
BRANCH  10  13
HETATM   13  C   UNL     1     -11.724  11.540  69.994  1.00  0.00    -0.414 A  
HETATM   14  C   UNL     1     -11.920  12.931  70.143  1.00  0.00    -0.373 A  
HETATM   15  C   UNL     1     -12.702  13.433  71.190  1.00  0.00    -0.328 A  
HETATM   16  C   UNL     1     -12.325  10.667  70.920  1.00  0.00    -0.401 A  
HETATM   17  C   UNL     1     -13.300  12.573  72.103  1.00  0.00    -0.540 A  
HETATM   18  C   UNL     1     -13.119  11.198  71.955  1.00  0.00    -0.513 A  
BRANCH  15  19
HETATM   19  S   UNL     1     -12.848  15.195  71.406  1.00  0.00    -0.426 S  
HETATM   20  O   UNL     1     -14.199  15.446  71.866  1.00  0.00    -0.505 OA 
HETATM   21  O   UNL     1     -12.352  15.812  70.191  1.00  0.00    -0.384 OA 
BRANCH  19  22
HETATM   22  C   UNL     1     -11.721  15.573  72.734  1.00  0.00    -0.439 C  
HETATM   23  C   UNL     1     -12.451  15.662  74.063  1.00  0.00    -0.785 C  
ENDBRANCH  19  22
ENDBRANCH  15  19
BRANCH  16  24
HETATM   24  O   UNL     1     -12.310   9.299  70.923  1.00  0.00    -0.264 OA 
HETATM   25  C   UNL     1     -12.156   8.655  72.183  1.00  0.00    -0.381 C  
ENDBRANCH  16  24
ENDBRANCH  10  13
ENDBRANCH   8   9
ENDBRANCH   7   8
ENDBRANCH   2   3
TORSDOF 7
ENDMDL
MODEL       26
REMARK 921   NORMALIZED FREE ENERGY PREDICTED BY IDOCK:   -5.88 KCAL/MOL
REMARK 922        TOTAL FREE ENERGY PREDICTED BY IDOCK:   -9.15 KCAL/MOL
REMARK 923 INTER-LIGAND FREE ENERGY PREDICTED BY IDOCK:   -7.96 KCAL/MOL
REMARK 924 INTRA-LIGAND FREE ENERGY PREDICTED BY IDOCK:   -1.19 KCAL/MOL
REMARK 927      BINDING AFFINITY PREDICTED BY RF-SCORE:    0.00 PKD
ROOT
HETATM    1  C   UNL     1     -11.460  16.121  68.675  1.00  0.00    -0.340 C  
HETATM    2  C   UNL     1     -11.146  15.798  67.219  1.00  0.00    -0.211 C  
ENDROOT
BRANCH   2   3
HETATM    3  N   UNL     1     -11.308  14.371  66.913  1.00  0.00    -0.335 NA 
HETATM    4  C   UNL     1     -12.240  14.130  65.809  1.00  0.00    -0.442 C  
HETATM    5  C   UNL     1     -11.924  12.703  65.421  1.00  0.00    -0.496 C  
HETATM    6  C   UNL     1     -10.411  12.633  65.531  1.00  0.00    -0.305 C  
HETATM    7  C   UNL     1     -10.024  13.728  66.541  1.00  0.00    -0.288 C  
BRANCH   7   8
HETATM    8  C   UNL     1      -9.312  13.149  67.785  1.00  0.00    -0.206 C  
BRANCH   8   9
HETATM    9  N   UNL     1     -10.217  12.577  68.775  1.00  0.00    -0.404 N  
HETATM   10  C   UNL     1     -10.537  11.231  68.790  1.00  0.00    -0.203 C  
HETATM   11  H   UNL     1     -10.627  13.189  69.480  1.00  0.00     0.000 HD 
HETATM   12  O   UNL     1     -10.091  10.437  67.972  1.00  0.00    -0.155 OA 
BRANCH  10  13
HETATM   13  C   UNL     1     -11.502  10.793  69.844  1.00  0.00    -0.398 A  
HETATM   14  C   UNL     1     -11.524   9.420  70.170  1.00  0.00    -0.175 A  
HETATM   15  C   UNL     1     -12.309   8.950  71.230  1.00  0.00    -0.291 A  
HETATM   16  C   UNL     1     -12.290  11.683  70.599  1.00  0.00    -0.344 A  
HETATM   17  C   UNL     1     -13.083   9.827  71.980  1.00  0.00    -0.546 A  
HETATM   18  C   UNL     1     -13.058  11.187  71.669  1.00  0.00    -0.529 A  
BRANCH  15  19
HETATM   19  S   UNL     1     -12.388   7.201  71.553  1.00  0.00    -0.385 S  
HETATM   20  O   UNL     1     -13.793   6.847  71.583  1.00  0.00    -0.297 OA 
HETATM   21  O   UNL     1     -11.534   6.943  72.696  1.00  0.00    -0.259 OA 
BRANCH  19  22
HETATM   22  C   UNL     1     -11.650   6.452  70.114  1.00  0.00    -0.381 C  
HETATM   23  C   UNL     1     -10.339   5.770  70.463  1.00  0.00    -0.312 C  
ENDBRANCH  19  22
ENDBRANCH  15  19
BRANCH  16  24
HETATM   24  O   UNL     1     -12.368  13.044  70.487  1.00  0.00    -0.338 OA 
HETATM   25  C   UNL     1     -12.770  13.767  71.645  1.00  0.00    -0.321 C  
ENDBRANCH  16  24
ENDBRANCH  10  13
ENDBRANCH   8   9
ENDBRANCH   7   8
ENDBRANCH   2   3
TORSDOF 7
ENDMDL
MODEL       27
REMARK 921   NORMALIZED FREE ENERGY PREDICTED BY IDOCK:   -5.88 KCAL/MOL
REMARK 922        TOTAL FREE ENERGY PREDICTED BY IDOCK:   -9.15 KCAL/MOL
REMARK 923 INTER-LIGAND FREE ENERGY PREDICTED BY IDOCK:   -7.80 KCAL/MOL
REMARK 924 INTRA-LIGAND FREE ENERGY PREDICTED BY IDOCK:   -1.35 KCAL/MOL
REMARK 927      BINDING AFFINITY PREDICTED BY RF-SCORE:    0.00 PKD
ROOT
HETATM    1  C   UNL     1     -11.328  15.935  68.230  1.00  0.00    -0.342 C  
HETATM    2  C   UNL     1     -10.887  15.547  66.823  1.00  0.00    -0.291 C  
ENDROOT
BRANCH   2   3
HETATM    3  N   UNL     1     -11.329  14.199  66.448  1.00  0.00    -0.328 NA 
HETATM    4  C   UNL     1     -12.498  14.210  65.565  1.00  0.00    -0.476 C  
HETATM    5  C   UNL     1     -12.495  12.805  65.003  1.00  0.00    -0.572 C  
HETATM    6  C   UNL     1     -11.022  12.522  64.766  1.00  0.00    -0.339 C  
HETATM    7  C   UNL     1     -10.267  13.435  65.748  1.00  0.00    -0.295 C  
BRANCH   7   8
HETATM    8  C   UNL     1      -9.409  12.631  66.750  1.00  0.00    -0.232 C  
BRANCH   8   9
HETATM    9  N   UNL     1     -10.139  12.178  67.929  1.00  0.00    -0.192 N  
HETATM   10  C   UNL     1     -10.615  10.884  68.048  1.00  0.00    -0.202 C  
HETATM   11  H   UNL     1     -10.304  12.836  68.690  1.00  0.00     0.000 HD 
HETATM   12  O   UNL     1     -10.464  10.042  67.174  1.00  0.00    -0.227 OA 
BRANCH  10  13
HETATM   13  C   UNL     1     -11.373  10.573  69.298  1.00  0.00    -0.325 A  
HETATM   14  C   UNL     1     -11.326   9.242  69.768  1.00  0.00    -0.029 A  
HETATM   15  C   UNL     1     -11.906   8.897  70.995  1.00  0.00    -0.276 A  
HETATM   16  C   UNL     1     -12.019  11.546  70.083  1.00  0.00    -0.369 A  
HETATM   17  C   UNL     1     -12.539   9.858  71.773  1.00  0.00    -0.506 A  
HETATM   18  C   UNL     1     -12.580  11.176  71.319  1.00  0.00    -0.503 A  
BRANCH  15  19
HETATM   19  S   UNL     1     -11.913   7.192  71.511  1.00  0.00    -0.347 S  
HETATM   20  O   UNL     1     -11.204   6.447  70.490  1.00  0.00    -0.300 OA 
HETATM   21  O   UNL     1     -13.282   6.860  71.855  1.00  0.00    -0.307 OA 
BRANCH  19  22
HETATM   22  C   UNL     1     -10.935   7.178  73.000  1.00  0.00    -0.317 C  
HETATM   23  C   UNL     1      -9.665   7.993  72.830  1.00  0.00    -0.348 C  
ENDBRANCH  19  22
ENDBRANCH  15  19
BRANCH  16  24
HETATM   24  O   UNL     1     -12.126  12.890  69.843  1.00  0.00    -0.309 OA 
HETATM   25  C   UNL     1     -12.497  13.716  70.940  1.00  0.00    -0.371 C  
ENDBRANCH  16  24
ENDBRANCH  10  13
ENDBRANCH   8   9
ENDBRANCH   7   8
ENDBRANCH   2   3
TORSDOF 7
ENDMDL
MODEL       28
REMARK 921   NORMALIZED FREE ENERGY PREDICTED BY IDOCK:   -5.87 KCAL/MOL
REMARK 922        TOTAL FREE ENERGY PREDICTED BY IDOCK:   -9.14 KCAL/MOL
REMARK 923 INTER-LIGAND FREE ENERGY PREDICTED BY IDOCK:   -8.10 KCAL/MOL
REMARK 924 INTRA-LIGAND FREE ENERGY PREDICTED BY IDOCK:   -1.04 KCAL/MOL
REMARK 927      BINDING AFFINITY PREDICTED BY RF-SCORE:    0.00 PKD
ROOT
HETATM    1  C   UNL     1     -10.572   9.756  70.602  1.00  0.00    -0.382 C  
HETATM    2  C   UNL     1      -9.107   9.683  70.186  1.00  0.00    -0.240 C  
ENDROOT
BRANCH   2   3
HETATM    3  N   UNL     1      -8.939   9.216  68.805  1.00  0.00    -0.136 NA 
HETATM    4  C   UNL     1      -8.976   7.755  68.692  1.00  0.00    -0.133 C  
HETATM    5  C   UNL     1      -9.206   7.549  67.211  1.00  0.00    -0.152 C  
HETATM    6  C   UNL     1     -10.200   8.640  66.852  1.00  0.00    -0.367 C  
HETATM    7  C   UNL     1      -9.991   9.744  67.903  1.00  0.00    -0.163 C  
BRANCH   7   8
HETATM    8  C   UNL     1      -9.555  11.082  67.264  1.00  0.00    -0.165 C  
BRANCH   8   9
HETATM    9  N   UNL     1      -9.887  12.257  68.062  1.00  0.00    -0.198 N  
HETATM   10  C   UNL     1     -11.194  12.648  68.289  1.00  0.00    -0.272 C  
HETATM   11  H   UNL     1      -9.130  12.809  68.466  1.00  0.00     0.000 HD 
HETATM   12  O   UNL     1     -12.154  12.042  67.832  1.00  0.00    -0.531 OA 
BRANCH  10  13
HETATM   13  C   UNL     1     -11.381  13.891  69.098  1.00  0.00    -0.331 A  
HETATM   14  C   UNL     1     -12.138  13.783  70.285  1.00  0.00    -0.425 A  
HETATM   15  C   UNL     1     -12.255  14.870  71.159  1.00  0.00    -0.320 A  
HETATM   16  C   UNL     1     -10.749  15.115  68.806  1.00  0.00    -0.239 A  
HETATM   17  C   UNL     1     -11.627  16.077  70.876  1.00  0.00    -0.453 A  
HETATM   18  C   UNL     1     -10.869  16.187  69.710  1.00  0.00    -0.333 A  
BRANCH  15  19
HETATM   19  S   UNL     1     -13.296  14.729  72.597  1.00  0.00    -0.490 S  
HETATM   20  O   UNL     1     -13.724  13.346  72.665  1.00  0.00    -0.687 OA 
HETATM   21  O   UNL     1     -14.268  15.802  72.522  1.00  0.00    -0.552 OA 
BRANCH  19  22
HETATM   22  C   UNL     1     -12.204  15.049  73.968  1.00  0.00    -0.501 C  
HETATM   23  C   UNL     1     -12.375  16.466  74.486  1.00  0.00    -0.516 C  
ENDBRANCH  19  22
ENDBRANCH  15  19
BRANCH  16  24
HETATM   24  O   UNL     1      -9.929  15.411  67.751  1.00  0.00    -0.224 OA 
HETATM   25  C   UNL     1     -10.237  16.580  67.001  1.00  0.00    -0.288 C  
ENDBRANCH  16  24
ENDBRANCH  10  13
ENDBRANCH   8   9
ENDBRANCH   7   8
ENDBRANCH   2   3
TORSDOF 7
ENDMDL
MODEL       29
REMARK 921   NORMALIZED FREE ENERGY PREDICTED BY IDOCK:   -5.83 KCAL/MOL
REMARK 922        TOTAL FREE ENERGY PREDICTED BY IDOCK:   -9.09 KCAL/MOL
REMARK 923 INTER-LIGAND FREE ENERGY PREDICTED BY IDOCK:   -8.18 KCAL/MOL
REMARK 924 INTRA-LIGAND FREE ENERGY PREDICTED BY IDOCK:   -0.91 KCAL/MOL
REMARK 927      BINDING AFFINITY PREDICTED BY RF-SCORE:    0.00 PKD
ROOT
HETATM    1  C   UNL     1     -12.129  12.060  63.496  1.00  0.00    -0.628 C  
HETATM    2  C   UNL     1     -10.609  12.016  63.380  1.00  0.00    -0.428 C  
ENDROOT
BRANCH   2   3
HETATM    3  N   UNL     1     -10.051  10.729  63.812  1.00  0.00    -0.340 NA 
HETATM    4  C   UNL     1      -9.401   9.998  62.721  1.00  0.00    -0.260 C  
HETATM    5  C   UNL     1      -8.575   8.971  63.464  1.00  0.00    -0.146 C  
HETATM    6  C   UNL     1      -8.038   9.744  64.656  1.00  0.00    -0.148 C  
HETATM    7  C   UNL     1      -9.040  10.889  64.886  1.00  0.00    -0.182 C  
BRANCH   7   8
HETATM    8  C   UNL     1      -9.698  10.816  66.282  1.00  0.00    -0.205 C  
BRANCH   8   9
HETATM    9  N   UNL     1      -9.821  12.107  66.949  1.00  0.00    -0.200 N  
HETATM   10  C   UNL     1     -11.050  12.663  67.257  1.00  0.00    -0.278 C  
HETATM   11  H   UNL     1      -8.973  12.618  67.197  1.00  0.00     0.000 HD 
HETATM   12  O   UNL     1     -12.110  12.115  66.984  1.00  0.00    -0.591 OA 
BRANCH  10  13
HETATM   13  C   UNL     1     -11.022  14.006  67.912  1.00  0.00    -0.261 A  
HETATM   14  C   UNL     1     -10.574  15.096  67.133  1.00  0.00    -0.295 A  
HETATM   15  C   UNL     1     -10.635  16.403  67.631  1.00  0.00    -0.313 A  
HETATM   16  C   UNL     1     -11.525  14.257  69.202  1.00  0.00    -0.291 A  
HETATM   17  C   UNL     1     -11.136  16.653  68.903  1.00  0.00    -0.247 A  
HETATM   18  C   UNL     1     -11.589  15.582  69.674  1.00  0.00    -0.359 A  
BRANCH  15  19
HETATM   19  S   UNL     1      -9.973  17.741  66.661  1.00  0.00    -0.354 S  
HETATM   20  O   UNL     1     -10.493  17.577  65.318  1.00  0.00    -0.643 OA 
HETATM   21  O   UNL     1      -8.544  17.773  66.903  1.00  0.00    -0.229 OA 
BRANCH  19  22
HETATM   22  C   UNL     1     -10.700  19.204  67.371  1.00  0.00    -0.481 C  
HETATM   23  C   UNL     1      -9.904  20.445  67.005  1.00  0.00    -0.594 C  
ENDBRANCH  19  22
ENDBRANCH  15  19
BRANCH  16  24
HETATM   24  O   UNL     1     -12.058  13.361  70.089  1.00  0.00    -0.333 OA 
HETATM   25  C   UNL     1     -12.570  13.885  71.309  1.00  0.00    -0.371 C  
ENDBRANCH  16  24
ENDBRANCH  10  13
ENDBRANCH   8   9
ENDBRANCH   7   8
ENDBRANCH   2   3
TORSDOF 7
ENDMDL
MODEL       30
REMARK 921   NORMALIZED FREE ENERGY PREDICTED BY IDOCK:   -5.83 KCAL/MOL
REMARK 922        TOTAL FREE ENERGY PREDICTED BY IDOCK:   -9.08 KCAL/MOL
REMARK 923 INTER-LIGAND FREE ENERGY PREDICTED BY IDOCK:   -8.08 KCAL/MOL
REMARK 924 INTRA-LIGAND FREE ENERGY PREDICTED BY IDOCK:   -1.00 KCAL/MOL
REMARK 927      BINDING AFFINITY PREDICTED BY RF-SCORE:    0.00 PKD
ROOT
HETATM    1  C   UNL     1     -10.542   7.382  73.201  1.00  0.00    -0.424 C  
HETATM    2  C   UNL     1     -10.929   6.975  71.783  1.00  0.00    -0.234 C  
ENDROOT
BRANCH   2   3
HETATM    3  N   UNL     1     -11.476   8.094  71.007  1.00  0.00    -0.277 NA 
HETATM    4  C   UNL     1     -12.011   9.164  71.854  1.00  0.00    -0.373 C  
HETATM    5  C   UNL     1     -12.112  10.324  70.889  1.00  0.00    -0.468 C  
HETATM    6  C   UNL     1     -10.850  10.200  70.053  1.00  0.00    -0.361 C  
HETATM    7  C   UNL     1     -10.458   8.714  70.123  1.00  0.00    -0.217 C  
BRANCH   7   8
HETATM    8  C   UNL     1     -10.452   8.046  68.730  1.00  0.00    -0.173 C  
BRANCH   8   9
HETATM    9  N   UNL     1     -10.680   8.971  67.626  1.00  0.00    -0.445 N  
HETATM   10  C   UNL     1      -9.642   9.484  66.867  1.00  0.00    -0.165 C  
HETATM   11  H   UNL     1     -11.636   9.250  67.406  1.00  0.00     0.000 HD 
HETATM   12  O   UNL     1      -8.470   9.203  67.077  1.00  0.00    -0.122 OA 
BRANCH  10  13
HETATM   13  C   UNL     1     -10.025  10.446  65.790  1.00  0.00    -0.334 A  
HETATM   14  C   UNL     1     -10.688  11.628  66.184  1.00  0.00    -0.325 A  
HETATM   15  C   UNL     1     -10.969  12.634  65.252  1.00  0.00    -0.286 A  
HETATM   16  C   UNL     1      -9.656  10.293  64.440  1.00  0.00    -0.316 A  
HETATM   17  C   UNL     1     -10.601  12.488  63.921  1.00  0.00    -0.472 A  
HETATM   18  C   UNL     1      -9.936  11.327  63.526  1.00  0.00    -0.417 A  
BRANCH  15  19
HETATM   19  S   UNL     1     -11.892  14.069  65.764  1.00  0.00    -0.402 S  
HETATM   20  O   UNL     1     -11.789  14.135  67.208  1.00  0.00    -0.379 OA 
HETATM   21  O   UNL     1     -13.187  13.991  65.117  1.00  0.00    -0.768 OA 
BRANCH  19  22
HETATM   22  C   UNL     1     -10.994  15.443  65.072  1.00  0.00    -0.436 C  
HETATM   23  C   UNL     1      -9.688  15.672  65.811  1.00  0.00    -0.380 C  
ENDBRANCH  19  22
ENDBRANCH  15  19
BRANCH  16  24
HETATM   24  O   UNL     1      -8.961   9.264  63.866  1.00  0.00    -0.184 OA 
HETATM   25  C   UNL     1      -7.721   9.584  63.247  1.00  0.00    -0.127 C  
ENDBRANCH  16  24
ENDBRANCH  10  13
ENDBRANCH   8   9
ENDBRANCH   7   8
ENDBRANCH   2   3
TORSDOF 7
ENDMDL
MODEL       31
REMARK 921   NORMALIZED FREE ENERGY PREDICTED BY IDOCK:   -5.82 KCAL/MOL
REMARK 922        TOTAL FREE ENERGY PREDICTED BY IDOCK:   -9.08 KCAL/MOL
REMARK 923 INTER-LIGAND FREE ENERGY PREDICTED BY IDOCK:   -8.00 KCAL/MOL
REMARK 924 INTRA-LIGAND FREE ENERGY PREDICTED BY IDOCK:   -1.08 KCAL/MOL
REMARK 927      BINDING AFFINITY PREDICTED BY RF-SCORE:    0.00 PKD
ROOT
HETATM    1  C   UNL     1      -9.999  20.250  67.152  1.00  0.00    -0.593 C  
HETATM    2  C   UNL     1     -10.761  18.929  67.098  1.00  0.00    -0.432 C  
ENDROOT
BRANCH   2   3
HETATM    3  N   UNL     1      -9.932  17.823  66.605  1.00  0.00    -0.322 NA 
HETATM    4  C   UNL     1      -8.528  18.203  66.426  1.00  0.00    -0.238 C  
HETATM    5  C   UNL     1      -7.836  16.861  66.335  1.00  0.00    -0.348 C  
HETATM    6  C   UNL     1      -8.556  16.020  67.375  1.00  0.00    -0.194 C  
HETATM    7  C   UNL     1      -9.949  16.657  67.522  1.00  0.00    -0.264 C  
BRANCH   7   8
HETATM    8  C   UNL     1     -11.083  15.675  67.151  1.00  0.00    -0.218 C  
BRANCH   8   9
HETATM    9  N   UNL     1     -11.735  15.058  68.300  1.00  0.00    -0.410 N  
HETATM   10  C   UNL     1     -11.317  13.847  68.822  1.00  0.00    -0.277 C  
HETATM   11  H   UNL     1     -12.526  15.536  68.734  1.00  0.00     0.000 HD 
HETATM   12  O   UNL     1     -10.383  13.212  68.351  1.00  0.00    -0.245 OA 
BRANCH  10  13
HETATM   13  C   UNL     1     -12.101  13.322  69.981  1.00  0.00    -0.385 A  
HETATM   14  C   UNL     1     -12.152  11.920  70.145  1.00  0.00    -0.382 A  
HETATM   15  C   UNL     1     -12.761  11.355  71.272  1.00  0.00    -0.393 A  
HETATM   16  C   UNL     1     -12.680  14.142  70.968  1.00  0.00    -0.362 A  
HETATM   17  C   UNL     1     -13.327  12.162  72.251  1.00  0.00    -0.316 A  
HETATM   18  C   UNL     1     -13.272  13.548  72.099  1.00  0.00    -0.551 A  
BRANCH  15  19
HETATM   19  S   UNL     1     -12.892   9.584  71.400  1.00  0.00    -0.363 S  
HETATM   20  O   UNL     1     -14.045   9.195  70.613  1.00  0.00     0.158 OA 
HETATM   21  O   UNL     1     -12.812   9.254  72.810  1.00  0.00    -0.276 OA 
BRANCH  19  22
HETATM   22  C   UNL     1     -11.426   8.972  70.591  1.00  0.00    -0.248 C  
HETATM   23  C   UNL     1     -10.271   8.851  71.570  1.00  0.00    -0.398 C  
ENDBRANCH  19  22
ENDBRANCH  15  19
BRANCH  16  24
HETATM   24  O   UNL     1     -12.689  15.509  71.031  1.00  0.00    -0.412 OA 
HETATM   25  C   UNL     1     -11.938  16.114  72.077  1.00  0.00    -0.526 C  
ENDBRANCH  16  24
ENDBRANCH  10  13
ENDBRANCH   8   9
ENDBRANCH   7   8
ENDBRANCH   2   3
TORSDOF 7
ENDMDL
MODEL       32
REMARK 921   NORMALIZED FREE ENERGY PREDICTED BY IDOCK:   -5.79 KCAL/MOL
REMARK 922        TOTAL FREE ENERGY PREDICTED BY IDOCK:   -9.03 KCAL/MOL
REMARK 923 INTER-LIGAND FREE ENERGY PREDICTED BY IDOCK:   -8.13 KCAL/MOL
REMARK 924 INTRA-LIGAND FREE ENERGY PREDICTED BY IDOCK:   -0.90 KCAL/MOL
REMARK 927      BINDING AFFINITY PREDICTED BY RF-SCORE:    0.00 PKD
ROOT
HETATM    1  C   UNL     1      -8.208   9.450  63.850  1.00  0.00    -0.165 C  
HETATM    2  C   UNL     1      -9.468  10.157  63.360  1.00  0.00    -0.261 C  
ENDROOT
BRANCH   2   3
HETATM    3  N   UNL     1      -9.869  11.261  64.239  1.00  0.00    -0.255 NA 
HETATM    4  C   UNL     1     -10.333  12.437  63.497  1.00  0.00    -0.362 C  
HETATM    5  C   UNL     1     -11.058  13.230  64.563  1.00  0.00    -0.392 C  
HETATM    6  C   UNL     1     -11.780  12.163  65.368  1.00  0.00    -0.379 C  
HETATM    7  C   UNL     1     -10.966  10.874  65.161  1.00  0.00     0.039 C  
BRANCH   7   8
HETATM    8  C   UNL     1     -10.404  10.319  66.489  1.00  0.00    -0.211 C  
BRANCH   8   9
HETATM    9  N   UNL     1     -11.159  10.725  67.669  1.00  0.00    -0.305 N  
HETATM   10  C   UNL     1     -10.569  11.391  68.728  1.00  0.00    -0.204 C  
HETATM   11  H   UNL     1     -12.156  10.510  67.715  1.00  0.00     0.000 HD 
HETATM   12  O   UNL     1      -9.379  11.675  68.749  1.00  0.00    -0.152 OA 
BRANCH  10  13
HETATM   13  C   UNL     1     -11.461  11.715  69.884  1.00  0.00    -0.308 A  
HETATM   14  C   UNL     1     -11.792  13.072  70.084  1.00  0.00    -0.324 A  
HETATM   15  C   UNL     1     -12.718  13.444  71.067  1.00  0.00    -0.307 A  
HETATM   16  C   UNL     1     -12.074  10.740  70.694  1.00  0.00    -0.370 A  
HETATM   17  C   UNL     1     -13.328  12.483  71.863  1.00  0.00    -0.467 A  
HETATM   18  C   UNL     1     -13.013  11.139  71.663  1.00  0.00    -0.548 A  
BRANCH  15  19
HETATM   19  S   UNL     1     -13.040  15.171  71.358  1.00  0.00    -0.462 S  
HETATM   20  O   UNL     1     -14.380  15.257  71.903  1.00  0.00    -0.523 OA 
HETATM   21  O   UNL     1     -12.688  15.877  70.141  1.00  0.00    -0.301 OA 
BRANCH  19  22
HETATM   22  C   UNL     1     -11.882  15.628  72.633  1.00  0.00    -0.485 C  
HETATM   23  C   UNL     1     -12.513  15.520  74.010  1.00  0.00    -0.789 C  
ENDBRANCH  19  22
ENDBRANCH  15  19
BRANCH  16  24
HETATM   24  O   UNL     1     -11.939   9.380  70.626  1.00  0.00    -0.256 OA 
HETATM   25  C   UNL     1     -12.654   8.610  71.586  1.00  0.00    -0.338 C  
ENDBRANCH  16  24
ENDBRANCH  10  13
ENDBRANCH   8   9
ENDBRANCH   7   8
ENDBRANCH   2   3
TORSDOF 7
ENDMDL
MODEL       33
REMARK 921   NORMALIZED FREE ENERGY PREDICTED BY IDOCK:   -5.77 KCAL/MOL
REMARK 922        TOTAL FREE ENERGY PREDICTED BY IDOCK:   -9.00 KCAL/MOL
REMARK 923 INTER-LIGAND FREE ENERGY PREDICTED BY IDOCK:   -7.94 KCAL/MOL
REMARK 924 INTRA-LIGAND FREE ENERGY PREDICTED BY IDOCK:   -1.06 KCAL/MOL
REMARK 927      BINDING AFFINITY PREDICTED BY RF-SCORE:    0.00 PKD
ROOT
HETATM    1  C   UNL     1      -9.241   5.485  69.729  1.00  0.00    -0.168 C  
HETATM    2  C   UNL     1     -10.733   5.719  69.938  1.00  0.00    -0.342 C  
ENDROOT
BRANCH   2   3
HETATM    3  N   UNL     1     -11.019   6.428  71.191  1.00  0.00    -0.263 NA 
HETATM    4  C   UNL     1     -10.536   5.708  72.373  1.00  0.00    -0.211 C  
HETATM    5  C   UNL     1     -10.559   6.780  73.439  1.00  0.00    -0.351 C  
HETATM    6  C   UNL     1     -10.066   8.017  72.708  1.00  0.00    -0.378 C  
HETATM    7  C   UNL     1     -10.401   7.776  71.226  1.00  0.00    -0.198 C  
BRANCH   7   8
HETATM    8  C   UNL     1     -11.367   8.844  70.665  1.00  0.00    -0.259 C  
BRANCH   8   9
HETATM    9  N   UNL     1     -11.154   9.157  69.256  1.00  0.00    -0.440 N  
HETATM   10  C   UNL     1     -11.130  10.458  68.787  1.00  0.00    -0.250 C  
HETATM   11  H   UNL     1     -11.018   8.392  68.596  1.00  0.00     0.000 HD 
HETATM   12  O   UNL     1     -11.294  11.427  69.516  1.00  0.00    -0.257 OA 
BRANCH  10  13
HETATM   13  C   UNL     1     -10.934  10.625  67.314  1.00  0.00    -0.348 A  
HETATM   14  C   UNL     1     -11.497  11.772  66.713  1.00  0.00    -0.352 A  
HETATM   15  C   UNL     1     -11.254  12.064  65.365  1.00  0.00    -0.322 A  
HETATM   16  C   UNL     1     -10.127   9.776  66.533  1.00  0.00    -0.239 A  
HETATM   17  C   UNL     1     -10.454  11.230  64.594  1.00  0.00    -0.387 A  
HETATM   18  C   UNL     1      -9.886  10.101  65.185  1.00  0.00    -0.394 A  
BRANCH  15  19
HETATM   19  S   UNL     1     -12.058  13.464  64.615  1.00  0.00    -0.423 S  
HETATM   20  O   UNL     1     -13.194  13.790  65.454  1.00  0.00    -0.722 OA 
HETATM   21  O   UNL     1     -12.240  13.145  63.212  1.00  0.00    -0.660 OA 
BRANCH  19  22
HETATM   22  C   UNL     1     -10.865  14.781  64.746  1.00  0.00    -0.376 C  
HETATM   23  C   UNL     1     -10.781  15.305  66.169  1.00  0.00    -0.322 C  
ENDBRANCH  19  22
ENDBRANCH  15  19
BRANCH  16  24
HETATM   24  O   UNL     1      -9.446   8.658  66.930  1.00  0.00    -0.157 OA 
HETATM   25  C   UNL     1      -9.987   7.399  66.547  1.00  0.00    -0.124 C  
ENDBRANCH  16  24
ENDBRANCH  10  13
ENDBRANCH   8   9
ENDBRANCH   7   8
ENDBRANCH   2   3
TORSDOF 7
ENDMDL
MODEL       34
REMARK 921   NORMALIZED FREE ENERGY PREDICTED BY IDOCK:   -5.77 KCAL/MOL
REMARK 922        TOTAL FREE ENERGY PREDICTED BY IDOCK:   -9.00 KCAL/MOL
REMARK 923 INTER-LIGAND FREE ENERGY PREDICTED BY IDOCK:   -8.03 KCAL/MOL
REMARK 924 INTRA-LIGAND FREE ENERGY PREDICTED BY IDOCK:   -0.97 KCAL/MOL
REMARK 927      BINDING AFFINITY PREDICTED BY RF-SCORE:    0.00 PKD
ROOT
HETATM    1  C   UNL     1      -9.029   7.832  73.726  1.00  0.00    -0.335 C  
HETATM    2  C   UNL     1      -9.223   8.588  72.415  1.00  0.00    -0.258 C  
ENDROOT
BRANCH   2   3
HETATM    3  N   UNL     1     -10.256   7.982  71.567  1.00  0.00    -0.189 NA 
HETATM    4  C   UNL     1     -10.151   6.522  71.500  1.00  0.00    -0.190 C  
HETATM    5  C   UNL     1     -11.504   6.122  70.954  1.00  0.00    -0.317 C  
HETATM    6  C   UNL     1     -12.464   7.059  71.666  1.00  0.00    -0.413 C  
HETATM    7  C   UNL     1     -11.626   8.294  72.042  1.00  0.00    -0.340 C  
BRANCH   7   8
HETATM    8  C   UNL     1     -12.162   9.585  71.384  1.00  0.00    -0.371 C  
BRANCH   8   9
HETATM    9  N   UNL     1     -11.732   9.770  70.003  1.00  0.00    -0.435 N  
HETATM   10  C   UNL     1     -11.712  11.015  69.399  1.00  0.00    -0.323 C  
HETATM   11  H   UNL     1     -11.437   8.956  69.464  1.00  0.00     0.000 HD 
HETATM   12  O   UNL     1     -12.060  12.035  69.977  1.00  0.00    -0.310 OA 
BRANCH  10  13
HETATM   13  C   UNL     1     -11.278  11.047  67.969  1.00  0.00    -0.372 A  
HETATM   14  C   UNL     1     -11.644  12.179  67.208  1.00  0.00    -0.404 A  
HETATM   15  C   UNL     1     -11.173  12.342  65.899  1.00  0.00    -0.336 A  
HETATM   16  C   UNL     1     -10.436  10.082  67.386  1.00  0.00    -0.260 A  
HETATM   17  C   UNL     1     -10.337  11.394  65.325  1.00  0.00    -0.336 A  
HETATM   18  C   UNL     1      -9.964  10.278  66.075  1.00  0.00    -0.308 A  
BRANCH  15  19
HETATM   19  S   UNL     1     -11.731  13.732  64.935  1.00  0.00    -0.384 S  
HETATM   20  O   UNL     1     -10.640  14.686  64.911  1.00  0.00    -0.416 OA 
HETATM   21  O   UNL     1     -13.033  14.108  65.451  1.00  0.00    -0.706 OA 
BRANCH  19  22
HETATM   22  C   UNL     1     -11.941  13.075  63.293  1.00  0.00    -0.421 C  
HETATM   23  C   UNL     1     -12.870  11.873  63.298  1.00  0.00    -0.303 C  
ENDBRANCH  19  22
ENDBRANCH  15  19
BRANCH  16  24
HETATM   24  O   UNL     1      -9.920   8.953  67.963  1.00  0.00    -0.162 OA 
HETATM   25  C   UNL     1      -8.976   8.210  67.201  1.00  0.00    -0.139 C  
ENDBRANCH  16  24
ENDBRANCH  10  13
ENDBRANCH   8   9
ENDBRANCH   7   8
ENDBRANCH   2   3
TORSDOF 7
ENDMDL
MODEL       35
REMARK 921   NORMALIZED FREE ENERGY PREDICTED BY IDOCK:   -5.77 KCAL/MOL
REMARK 922        TOTAL FREE ENERGY PREDICTED BY IDOCK:   -8.99 KCAL/MOL
REMARK 923 INTER-LIGAND FREE ENERGY PREDICTED BY IDOCK:   -8.32 KCAL/MOL
REMARK 924 INTRA-LIGAND FREE ENERGY PREDICTED BY IDOCK:   -0.67 KCAL/MOL
REMARK 927      BINDING AFFINITY PREDICTED BY RF-SCORE:    0.00 PKD
ROOT
HETATM    1  C   UNL     1     -13.370   7.439  71.403  1.00  0.00    -0.398 C  
HETATM    2  C   UNL     1     -12.122   6.687  71.853  1.00  0.00    -0.340 C  
ENDROOT
BRANCH   2   3
HETATM    3  N   UNL     1     -10.981   6.907  70.957  1.00  0.00    -0.244 NA 
HETATM    4  C   UNL     1     -10.790   5.812  70.002  1.00  0.00    -0.333 C  
HETATM    5  C   UNL     1      -9.880   6.437  68.967  1.00  0.00    -0.155 C  
HETATM    6  C   UNL     1     -10.420   7.850  68.828  1.00  0.00    -0.198 C  
HETATM    7  C   UNL     1     -11.124   8.152  70.162  1.00  0.00    -0.187 C  
BRANCH   7   8
HETATM    8  C   UNL     1     -10.491   9.355  70.896  1.00  0.00    -0.310 C  
BRANCH   8   9
HETATM    9  N   UNL     1     -10.596  10.616  70.170  1.00  0.00    -0.458 N  
HETATM   10  C   UNL     1     -11.681  11.462  70.316  1.00  0.00    -0.306 C  
HETATM   11  H   UNL     1      -9.843  10.883  69.535  1.00  0.00     0.000 HD 
HETATM   12  O   UNL     1     -12.624  11.205  71.051  1.00  0.00    -0.365 OA 
BRANCH  10  13
HETATM   13  C   UNL     1     -11.666  12.704  69.484  1.00  0.00    -0.374 A  
HETATM   14  C   UNL     1     -11.716  12.543  68.082  1.00  0.00    -0.400 A  
HETATM   15  C   UNL     1     -11.830  13.656  67.240  1.00  0.00    -0.391 A  
HETATM   16  C   UNL     1     -11.726  14.003  70.021  1.00  0.00    -0.280 A  
HETATM   17  C   UNL     1     -11.895  14.939  67.768  1.00  0.00    -0.277 A  
HETATM   18  C   UNL     1     -11.856  15.104  69.152  1.00  0.00    -0.340 A  
BRANCH  15  19
HETATM   19  S   UNL     1     -11.794  13.425  65.474  1.00  0.00    -0.387 S  
HETATM   20  O   UNL     1     -13.096  13.823  64.977  1.00  0.00    -0.751 OA 
HETATM   21  O   UNL     1     -11.286  12.088  65.234  1.00  0.00    -0.317 OA 
BRANCH  19  22
HETATM   22  C   UNL     1     -10.587  14.602  64.899  1.00  0.00    -0.422 C  
HETATM   23  C   UNL     1     -11.230  15.946  64.603  1.00  0.00    -0.361 C  
ENDBRANCH  19  22
ENDBRANCH  15  19
BRANCH  16  24
HETATM   24  O   UNL     1     -11.751  14.373  71.338  1.00  0.00    -0.277 OA 
HETATM   25  C   UNL     1     -12.083  15.726  71.625  1.00  0.00    -0.452 C  
ENDBRANCH  16  24
ENDBRANCH  10  13
ENDBRANCH   8   9
ENDBRANCH   7   8
ENDBRANCH   2   3
TORSDOF 7
ENDMDL
MODEL       36
REMARK 921   NORMALIZED FREE ENERGY PREDICTED BY IDOCK:   -5.76 KCAL/MOL
REMARK 922        TOTAL FREE ENERGY PREDICTED BY IDOCK:   -8.98 KCAL/MOL
REMARK 923 INTER-LIGAND FREE ENERGY PREDICTED BY IDOCK:   -7.94 KCAL/MOL
REMARK 924 INTRA-LIGAND FREE ENERGY PREDICTED BY IDOCK:   -1.04 KCAL/MOL
REMARK 927      BINDING AFFINITY PREDICTED BY RF-SCORE:    0.00 PKD
ROOT
HETATM    1  C   UNL     1     -12.649  11.932  63.469  1.00  0.00    -0.579 C  
HETATM    2  C   UNL     1     -11.198  12.399  63.526  1.00  0.00    -0.469 C  
ENDROOT
BRANCH   2   3
HETATM    3  N   UNL     1     -10.907  13.174  64.739  1.00  0.00    -0.332 NA 
HETATM    4  C   UNL     1     -11.298  14.581  64.621  1.00  0.00    -0.370 C  
HETATM    5  C   UNL     1     -11.298  15.040  66.063  1.00  0.00    -0.270 C  
HETATM    6  C   UNL     1     -11.893  13.860  66.811  1.00  0.00    -0.452 C  
HETATM    7  C   UNL     1     -11.603  12.631  65.931  1.00  0.00    -0.396 C  
BRANCH   7   8
HETATM    8  C   UNL     1     -10.726  11.587  66.659  1.00  0.00    -0.268 C  
BRANCH   8   9
HETATM    9  N   UNL     1     -11.341  11.027  67.857  1.00  0.00    -0.311 N  
HETATM   10  C   UNL     1     -10.602  10.709  68.984  1.00  0.00    -0.219 C  
HETATM   11  H   UNL     1     -12.348  10.864  67.866  1.00  0.00     0.000 HD 
HETATM   12  O   UNL     1      -9.390  10.867  69.045  1.00  0.00    -0.188 OA 
BRANCH  10  13
HETATM   13  C   UNL     1     -11.362  10.112  70.124  1.00  0.00    -0.372 A  
HETATM   14  C   UNL     1     -10.943   8.846  70.588  1.00  0.00    -0.287 A  
HETATM   15  C   UNL     1     -11.522   8.277  71.729  1.00  0.00    -0.293 A  
HETATM   16  C   UNL     1     -12.377  10.790  70.825  1.00  0.00    -0.383 A  
HETATM   17  C   UNL     1     -12.520   8.946  72.426  1.00  0.00    -0.405 A  
HETATM   18  C   UNL     1     -12.931  10.202  71.978  1.00  0.00    -0.508 A  
BRANCH  15  19
HETATM   19  S   UNL     1     -11.039   6.638  72.230  1.00  0.00    -0.270 S  
HETATM   20  O   UNL     1     -10.002   6.212  71.311  1.00  0.00    -0.178 OA 
HETATM   21  O   UNL     1     -12.256   5.866  72.382  1.00  0.00    -0.239 OA 
BRANCH  19  22
HETATM   22  C   UNL     1     -10.308   6.865  73.839  1.00  0.00    -0.365 C  
HETATM   23  C   UNL     1      -9.133   7.826  73.776  1.00  0.00    -0.333 C  
ENDBRANCH  19  22
ENDBRANCH  15  19
BRANCH  16  24
HETATM   24  O   UNL     1     -12.883  12.038  70.582  1.00  0.00    -0.111 OA 
HETATM   25  C   UNL     1     -13.332  12.786  71.706  1.00  0.00    -0.342 C  
ENDBRANCH  16  24
ENDBRANCH  10  13
ENDBRANCH   8   9
ENDBRANCH   7   8
ENDBRANCH   2   3
TORSDOF 7
ENDMDL
MODEL       37
REMARK 921   NORMALIZED FREE ENERGY PREDICTED BY IDOCK:   -5.76 KCAL/MOL
REMARK 922        TOTAL FREE ENERGY PREDICTED BY IDOCK:   -8.98 KCAL/MOL
REMARK 923 INTER-LIGAND FREE ENERGY PREDICTED BY IDOCK:   -7.95 KCAL/MOL
REMARK 924 INTRA-LIGAND FREE ENERGY PREDICTED BY IDOCK:   -1.03 KCAL/MOL
REMARK 927      BINDING AFFINITY PREDICTED BY RF-SCORE:    0.00 PKD
ROOT
HETATM    1  C   UNL     1     -12.502  12.300  63.415  1.00  0.00    -0.592 C  
HETATM    2  C   UNL     1     -10.992  12.215  63.607  1.00  0.00    -0.461 C  
ENDROOT
BRANCH   2   3
HETATM    3  N   UNL     1     -10.622  11.762  64.954  1.00  0.00    -0.282 NA 
HETATM    4  C   UNL     1      -9.743  10.590  64.937  1.00  0.00    -0.300 C  
HETATM    5  C   UNL     1      -9.185  10.581  66.343  1.00  0.00    -0.190 C  
HETATM    6  C   UNL     1      -8.944  12.052  66.638  1.00  0.00    -0.204 C  
HETATM    7  C   UNL     1      -9.921  12.816  65.727  1.00  0.00    -0.251 C  
BRANCH   7   8
HETATM    8  C   UNL     1     -10.922  13.672  66.534  1.00  0.00    -0.295 C  
BRANCH   8   9
HETATM    9  N   UNL     1     -11.535  12.970  67.656  1.00  0.00    -0.303 N  
HETATM   10  C   UNL     1     -11.238  13.281  68.971  1.00  0.00    -0.270 C  
HETATM   11  H   UNL     1     -12.206  12.226  67.464  1.00  0.00     0.000 HD 
HETATM   12  O   UNL     1     -10.438  14.154  69.278  1.00  0.00    -0.180 OA 
BRANCH  10  13
HETATM   13  C   UNL     1     -11.920  12.456  70.014  1.00  0.00    -0.372 A  
HETATM   14  C   UNL     1     -11.599  11.081  70.063  1.00  0.00    -0.427 A  
HETATM   15  C   UNL     1     -12.099  10.267  71.086  1.00  0.00    -0.395 A  
HETATM   16  C   UNL     1     -12.757  12.992  71.010  1.00  0.00    -0.262 A  
HETATM   17  C   UNL     1     -12.921  10.796  72.074  1.00  0.00    -0.444 A  
HETATM   18  C   UNL     1     -13.233  12.155  72.037  1.00  0.00    -0.496 A  
BRANCH  15  19
HETATM   19  S   UNL     1     -11.753   8.520  71.063  1.00  0.00    -0.249 S  
HETATM   20  O   UNL     1     -10.893   8.283  69.920  1.00  0.00    -0.247 OA 
HETATM   21  O   UNL     1     -13.025   7.836  71.187  1.00  0.00    -0.247 OA 
BRANCH  19  22
HETATM   22  C   UNL     1     -10.809   8.237  72.547  1.00  0.00    -0.351 C  
HETATM   23  C   UNL     1      -9.331   8.500  72.315  1.00  0.00    -0.363 C  
ENDBRANCH  19  22
ENDBRANCH  15  19
BRANCH  16  24
HETATM   24  O   UNL     1     -13.140  14.295  71.180  1.00  0.00    -0.335 OA 
HETATM   25  C   UNL     1     -13.368  14.735  72.513  1.00  0.00    -0.434 C  
ENDBRANCH  16  24
ENDBRANCH  10  13
ENDBRANCH   8   9
ENDBRANCH   7   8
ENDBRANCH   2   3
TORSDOF 7
ENDMDL
MODEL       38
REMARK 921   NORMALIZED FREE ENERGY PREDICTED BY IDOCK:   -5.76 KCAL/MOL
REMARK 922        TOTAL FREE ENERGY PREDICTED BY IDOCK:   -8.98 KCAL/MOL
REMARK 923 INTER-LIGAND FREE ENERGY PREDICTED BY IDOCK:   -7.94 KCAL/MOL
REMARK 924 INTRA-LIGAND FREE ENERGY PREDICTED BY IDOCK:   -1.04 KCAL/MOL
REMARK 927      BINDING AFFINITY PREDICTED BY RF-SCORE:    0.00 PKD
ROOT
HETATM    1  C   UNL     1      -9.346  10.122  63.635  1.00  0.00    -0.336 C  
HETATM    2  C   UNL     1      -9.830  10.695  64.963  1.00  0.00    -0.293 C  
ENDROOT
BRANCH   2   3
HETATM    3  N   UNL     1     -10.480  12.002  64.807  1.00  0.00    -0.281 NA 
HETATM    4  C   UNL     1     -10.923  12.254  63.433  1.00  0.00    -0.405 C  
HETATM    5  C   UNL     1     -11.891  13.403  63.609  1.00  0.00    -0.451 C  
HETATM    6  C   UNL     1     -12.632  13.049  64.886  1.00  0.00    -0.490 C  
HETATM    7  C   UNL     1     -11.674  12.142  65.677  1.00  0.00    -0.323 C  
BRANCH   7   8
HETATM    8  C   UNL     1     -11.294  12.747  67.047  1.00  0.00    -0.314 C  
BRANCH   8   9
HETATM    9  N   UNL     1     -11.839  12.021  68.189  1.00  0.00    -0.330 N  
HETATM   10  C   UNL     1     -11.048  11.234  69.007  1.00  0.00    -0.244 C  
HETATM   11  H   UNL     1     -12.836  12.097  68.391  1.00  0.00     0.000 HD 
HETATM   12  O   UNL     1      -9.848  11.087  68.822  1.00  0.00    -0.191 OA 
BRANCH  10  13
HETATM   13  C   UNL     1     -11.750  10.524  70.119  1.00  0.00    -0.410 A  
HETATM   14  C   UNL     1     -11.417   9.169  70.333  1.00  0.00    -0.228 A  
HETATM   15  C   UNL     1     -11.938   8.471  71.430  1.00  0.00    -0.300 A  
HETATM   16  C   UNL     1     -12.621  11.160  71.024  1.00  0.00    -0.403 A  
HETATM   17  C   UNL     1     -12.792   9.098  72.328  1.00  0.00    -0.472 A  
HETATM   18  C   UNL     1     -13.117  10.440  72.127  1.00  0.00    -0.427 A  
BRANCH  15  19
HETATM   19  S   UNL     1     -11.574   6.737  71.616  1.00  0.00    -0.312 S  
HETATM   20  O   UNL     1     -11.436   6.196  70.278  1.00  0.00    -0.375 OA 
HETATM   21  O   UNL     1     -12.555   6.196  72.536  1.00  0.00    -0.049 OA 
BRANCH  19  22
HETATM   22  C   UNL     1      -9.977   6.703  72.406  1.00  0.00    -0.166 C  
HETATM   23  C   UNL     1     -10.093   7.005  73.890  1.00  0.00    -0.386 C  
ENDBRANCH  19  22
ENDBRANCH  15  19
BRANCH  16  24
HETATM   24  O   UNL     1     -13.021  12.469  71.033  1.00  0.00    -0.208 OA 
HETATM   25  C   UNL     1     -13.569  12.970  72.247  1.00  0.00    -0.547 C  
ENDBRANCH  16  24
ENDBRANCH  10  13
ENDBRANCH   8   9
ENDBRANCH   7   8
ENDBRANCH   2   3
TORSDOF 7
ENDMDL
MODEL       39
REMARK 921   NORMALIZED FREE ENERGY PREDICTED BY IDOCK:   -5.73 KCAL/MOL
REMARK 922        TOTAL FREE ENERGY PREDICTED BY IDOCK:   -8.94 KCAL/MOL
REMARK 923 INTER-LIGAND FREE ENERGY PREDICTED BY IDOCK:   -7.81 KCAL/MOL
REMARK 924 INTRA-LIGAND FREE ENERGY PREDICTED BY IDOCK:   -1.13 KCAL/MOL
REMARK 927      BINDING AFFINITY PREDICTED BY RF-SCORE:    0.00 PKD
ROOT
HETATM    1  C   UNL     1      -7.951  17.163  66.340  1.00  0.00    -0.346 C  
HETATM    2  C   UNL     1      -9.192  16.295  66.161  1.00  0.00    -0.341 C  
ENDROOT
BRANCH   2   3
HETATM    3  N   UNL     1      -9.703  15.779  67.437  1.00  0.00    -0.222 NA 
HETATM    4  C   UNL     1      -9.370  16.642  68.573  1.00  0.00    -0.236 C  
HETATM    5  C   UNL     1     -10.321  16.154  69.643  1.00  0.00    -0.271 C  
HETATM    6  C   UNL     1     -11.610  15.898  68.882  1.00  0.00    -0.392 C  
HETATM    7  C   UNL     1     -11.179  15.628  67.429  1.00  0.00    -0.219 C  
BRANCH   7   8
HETATM    8  C   UNL     1     -11.591  14.218  66.951  1.00  0.00    -0.387 C  
BRANCH   8   9
HETATM    9  N   UNL     1     -12.024  13.329  68.025  1.00  0.00    -0.345 N  
HETATM   10  C   UNL     1     -11.145  12.487  68.683  1.00  0.00    -0.265 C  
HETATM   11  H   UNL     1     -13.006  13.329  68.299  1.00  0.00     0.000 HD 
HETATM   12  O   UNL     1      -9.956  12.425  68.404  1.00  0.00    -0.220 OA 
BRANCH  10  13
HETATM   13  C   UNL     1     -11.737  11.611  69.739  1.00  0.00    -0.425 A  
HETATM   14  C   UNL     1     -11.356  10.251  69.740  1.00  0.00    -0.334 A  
HETATM   15  C   UNL     1     -11.768   9.395  70.768  1.00  0.00    -0.282 A  
HETATM   16  C   UNL     1     -12.546  12.089  70.787  1.00  0.00    -0.222 A  
HETATM   17  C   UNL     1     -12.562   9.866  71.806  1.00  0.00    -0.506 A  
HETATM   18  C   UNL     1     -12.934  11.210  71.816  1.00  0.00    -0.526 A  
BRANCH  15  19
HETATM   19  S   UNL     1     -11.349   7.666  70.687  1.00  0.00    -0.249 S  
HETATM   20  O   UNL     1     -10.757   7.443  69.383  1.00  0.00    -0.234 OA 
HETATM   21  O   UNL     1     -12.525   6.926  71.103  1.00  0.00    -0.378 OA 
BRANCH  19  22
HETATM   22  C   UNL     1     -10.083   7.459  71.923  1.00  0.00    -0.178 C  
HETATM   23  C   UNL     1     -10.689   7.156  73.282  1.00  0.00    -0.403 C  
ENDBRANCH  19  22
ENDBRANCH  15  19
BRANCH  16  24
HETATM   24  O   UNL     1     -12.976  13.370  71.005  1.00  0.00    -0.272 OA 
HETATM   25  C   UNL     1     -13.702  13.614  72.204  1.00  0.00    -0.555 C  
ENDBRANCH  16  24
ENDBRANCH  10  13
ENDBRANCH   8   9
ENDBRANCH   7   8
ENDBRANCH   2   3
TORSDOF 7
ENDMDL
MODEL       40
REMARK 921   NORMALIZED FREE ENERGY PREDICTED BY IDOCK:   -5.68 KCAL/MOL
REMARK 922        TOTAL FREE ENERGY PREDICTED BY IDOCK:   -8.88 KCAL/MOL
REMARK 923 INTER-LIGAND FREE ENERGY PREDICTED BY IDOCK:   -7.83 KCAL/MOL
REMARK 924 INTRA-LIGAND FREE ENERGY PREDICTED BY IDOCK:   -1.05 KCAL/MOL
REMARK 927      BINDING AFFINITY PREDICTED BY RF-SCORE:    0.00 PKD
ROOT
HETATM    1  C   UNL     1      -8.370   7.990  73.317  1.00  0.00    -0.269 C  
HETATM    2  C   UNL     1      -9.860   7.662  73.312  1.00  0.00    -0.301 C  
ENDROOT
BRANCH   2   3
HETATM    3  N   UNL     1     -10.396   7.511  71.954  1.00  0.00    -0.191 NA 
HETATM    4  C   UNL     1     -10.364   6.124  71.483  1.00  0.00    -0.209 C  
HETATM    5  C   UNL     1     -11.312   6.158  70.305  1.00  0.00    -0.414 C  
HETATM    6  C   UNL     1     -12.436   7.062  70.781  1.00  0.00    -0.253 C  
HETATM    7  C   UNL     1     -11.805   7.967  71.855  1.00  0.00    -0.301 C  
BRANCH   7   8
HETATM    8  C   UNL     1     -11.879   9.462  71.474  1.00  0.00    -0.385 C  
BRANCH   8   9
HETATM    9  N   UNL     1     -11.788   9.716  70.041  1.00  0.00    -0.457 N  
HETATM   10  C   UNL     1     -10.586  10.003  69.419  1.00  0.00    -0.233 C  
HETATM   11  H   UNL     1     -12.638   9.682  69.479  1.00  0.00     0.000 HD 
HETATM   12  O   UNL     1      -9.527  10.071  70.028  1.00  0.00    -0.224 OA 
BRANCH  10  13
HETATM   13  C   UNL     1     -10.651  10.273  67.950  1.00  0.00    -0.282 A  
HETATM   14  C   UNL     1     -11.236  11.491  67.542  1.00  0.00    -0.360 A  
HETATM   15  C   UNL     1     -11.223  11.874  66.195  1.00  0.00    -0.333 A  
HETATM   16  C   UNL     1     -10.060   9.445  66.977  1.00  0.00    -0.240 A  
HETATM   17  C   UNL     1     -10.635  11.060  65.234  1.00  0.00    -0.283 A  
HETATM   18  C   UNL     1     -10.047   9.860  65.632  1.00  0.00    -0.307 A  
BRANCH  15  19
HETATM   19  S   UNL     1     -12.054  13.370  65.702  1.00  0.00    -0.463 S  
HETATM   20  O   UNL     1     -12.286  14.133  66.912  1.00  0.00    -0.439 OA 
HETATM   21  O   UNL     1     -13.159  12.978  64.850  1.00  0.00    -0.745 OA 
BRANCH  19  22
HETATM   22  C   UNL     1     -10.853  14.236  64.711  1.00  0.00    -0.405 C  
HETATM   23  C   UNL     1      -9.798  14.896  65.581  1.00  0.00    -0.372 C  
ENDBRANCH  19  22
ENDBRANCH  15  19
BRANCH  16  24
HETATM   24  O   UNL     1      -9.395   8.263  67.165  1.00  0.00    -0.141 OA 
HETATM   25  C   UNL     1     -10.123   7.065  66.925  1.00  0.00    -0.226 C  
ENDBRANCH  16  24
ENDBRANCH  10  13
ENDBRANCH   8   9
ENDBRANCH   7   8
ENDBRANCH   2   3
TORSDOF 7
ENDMDL
MODEL       41
REMARK 921   NORMALIZED FREE ENERGY PREDICTED BY IDOCK:   -5.68 KCAL/MOL
REMARK 922        TOTAL FREE ENERGY PREDICTED BY IDOCK:   -8.87 KCAL/MOL
REMARK 923 INTER-LIGAND FREE ENERGY PREDICTED BY IDOCK:   -8.34 KCAL/MOL
REMARK 924 INTRA-LIGAND FREE ENERGY PREDICTED BY IDOCK:   -0.53 KCAL/MOL
REMARK 927      BINDING AFFINITY PREDICTED BY RF-SCORE:    0.00 PKD
ROOT
HETATM    1  C   UNL     1     -11.468  15.639  69.066  1.00  0.00    -0.369 C  
HETATM    2  C   UNL     1     -12.693  15.374  69.935  1.00  0.00    -0.077 C  
ENDROOT
BRANCH   2   3
HETATM    3  N   UNL     1     -12.351  15.218  71.354  1.00  0.00    -0.326 NA 
HETATM    4  C   UNL     1     -11.803  16.442  71.944  1.00  0.00    -0.361 C  
HETATM    5  C   UNL     1     -11.930  16.173  73.428  1.00  0.00    -0.513 C  
HETATM    6  C   UNL     1     -13.275  15.478  73.548  1.00  0.00    -0.532 C  
HETATM    7  C   UNL     1     -13.525  14.832  72.174  1.00  0.00    -0.391 C  
BRANCH   7   8
HETATM    8  C   UNL     1     -13.656  13.295  72.268  1.00  0.00    -0.605 C  
BRANCH   8   9
HETATM    9  N   UNL     1     -12.918  12.571  71.239  1.00  0.00    -0.280 N  
HETATM   10  C   UNL     1     -12.794  11.193  71.253  1.00  0.00    -0.412 C  
HETATM   11  H   UNL     1     -12.479  13.099  70.484  1.00  0.00     0.000 HD 
HETATM   12  O   UNL     1     -13.285  10.495  72.129  1.00  0.00    -0.458 OA 
BRANCH  10  13
HETATM   13  C   UNL     1     -11.982  10.593  70.151  1.00  0.00    -0.417 A  
HETATM   14  C   UNL     1     -11.889  11.321  68.945  1.00  0.00    -0.413 A  
HETATM   15  C   UNL     1     -11.049  10.888  67.912  1.00  0.00    -0.302 A  
HETATM   16  C   UNL     1     -11.220   9.418  70.294  1.00  0.00    -0.246 A  
HETATM   17  C   UNL     1     -10.292   9.732  68.053  1.00  0.00    -0.250 A  
HETATM   18  C   UNL     1     -10.372   9.013  69.246  1.00  0.00    -0.227 A  
BRANCH  15  19
HETATM   19  S   UNL     1     -11.030  11.777  66.369  1.00  0.00    -0.299 S  
HETATM   20  O   UNL     1     -12.312  12.443  66.257  1.00  0.00    -0.577 OA 
HETATM   21  O   UNL     1     -10.587  10.846  65.350  1.00  0.00    -0.246 OA 
BRANCH  19  22
HETATM   22  C   UNL     1      -9.769  13.017  66.590  1.00  0.00    -0.256 C  
HETATM   23  C   UNL     1     -10.102  14.280  65.815  1.00  0.00    -0.356 C  
ENDBRANCH  19  22
ENDBRANCH  15  19
BRANCH  16  24
HETATM   24  O   UNL     1     -11.120   8.605  71.390  1.00  0.00    -0.241 OA 
HETATM   25  C   UNL     1     -10.156   7.559  71.335  1.00  0.00    -0.186 C  
ENDBRANCH  16  24
ENDBRANCH  10  13
ENDBRANCH   8   9
ENDBRANCH   7   8
ENDBRANCH   2   3
TORSDOF 7
ENDMDL
MODEL       42
REMARK 921   NORMALIZED FREE ENERGY PREDICTED BY IDOCK:   -5.66 KCAL/MOL
REMARK 922        TOTAL FREE ENERGY PREDICTED BY IDOCK:   -8.84 KCAL/MOL
REMARK 923 INTER-LIGAND FREE ENERGY PREDICTED BY IDOCK:   -7.68 KCAL/MOL
REMARK 924 INTRA-LIGAND FREE ENERGY PREDICTED BY IDOCK:   -1.16 KCAL/MOL
REMARK 927      BINDING AFFINITY PREDICTED BY RF-SCORE:    0.00 PKD
ROOT
HETATM    1  C   UNL     1     -10.491   9.977  67.066  1.00  0.00    -0.302 C  
HETATM    2  C   UNL     1     -11.281  11.281  67.051  1.00  0.00    -0.255 C  
ENDROOT
BRANCH   2   3
HETATM    3  N   UNL     1     -11.013  12.085  65.852  1.00  0.00    -0.288 NA 
HETATM    4  C   UNL     1     -10.324  11.328  64.804  1.00  0.00    -0.307 C  
HETATM    5  C   UNL     1     -10.537  12.195  63.583  1.00  0.00    -0.504 C  
HETATM    6  C   UNL     1     -11.968  12.680  63.738  1.00  0.00    -0.588 C  
HETATM    7  C   UNL     1     -12.257  12.623  65.249  1.00  0.00    -0.475 C  
BRANCH   7   8
HETATM    8  C   UNL     1     -12.599  14.014  65.830  1.00  0.00    -0.479 C  
BRANCH   8   9
HETATM    9  N   UNL     1     -11.490  14.658  66.523  1.00  0.00    -0.355 N  
HETATM   10  C   UNL     1     -10.694  15.611  65.914  1.00  0.00    -0.329 C  
HETATM   11  H   UNL     1     -11.295  14.397  67.490  1.00  0.00     0.000 HD 
HETATM   12  O   UNL     1     -10.861  15.968  64.755  1.00  0.00    -0.587 OA 
BRANCH  10  13
HETATM   13  C   UNL     1      -9.575  16.161  66.737  1.00  0.00    -0.256 A  
HETATM   14  C   UNL     1      -9.130  17.467  66.434  1.00  0.00    -0.274 A  
HETATM   15  C   UNL     1      -8.172  18.099  67.236  1.00  0.00    -0.229 A  
HETATM   16  C   UNL     1      -9.033  15.503  67.858  1.00  0.00    -0.173 A  
HETATM   17  C   UNL     1      -7.641  17.454  68.346  1.00  0.00    -0.255 A  
HETATM   18  C   UNL     1      -8.083  16.168  68.657  1.00  0.00    -0.203 A  
BRANCH  15  19
HETATM   19  S   UNL     1      -7.563  19.706  66.770  1.00  0.00    -0.266 S  
HETATM   20  O   UNL     1      -8.340  20.677  67.515  1.00  0.00    -0.297 OA 
HETATM   21  O   UNL     1      -7.528  19.741  65.321  1.00  0.00    -0.378 OA 
BRANCH  19  22
HETATM   22  C   UNL     1      -5.889  19.738  67.379  1.00  0.00    -0.180 C  
HETATM   23  C   UNL     1      -5.826  20.326  68.778  1.00  0.00    -0.330 C  
ENDBRANCH  19  22
ENDBRANCH  15  19
BRANCH  16  24
HETATM   24  O   UNL     1      -9.365  14.273  68.356  1.00  0.00    -0.199 OA 
HETATM   25  C   UNL     1      -8.422  13.224  68.172  1.00  0.00    -0.173 C  
ENDBRANCH  16  24
ENDBRANCH  10  13
ENDBRANCH   8   9
ENDBRANCH   7   8
ENDBRANCH   2   3
TORSDOF 7
ENDMDL
MODEL       43
REMARK 921   NORMALIZED FREE ENERGY PREDICTED BY IDOCK:   -5.65 KCAL/MOL
REMARK 922        TOTAL FREE ENERGY PREDICTED BY IDOCK:   -8.84 KCAL/MOL
REMARK 923 INTER-LIGAND FREE ENERGY PREDICTED BY IDOCK:   -7.81 KCAL/MOL
REMARK 924 INTRA-LIGAND FREE ENERGY PREDICTED BY IDOCK:   -1.03 KCAL/MOL
REMARK 927      BINDING AFFINITY PREDICTED BY RF-SCORE:    0.00 PKD
ROOT
HETATM    1  C   UNL     1     -11.072   5.171  73.225  1.00  0.00    -0.392 C  
HETATM    2  C   UNL     1     -10.715   5.399  71.760  1.00  0.00    -0.204 C  
ENDROOT
BRANCH   2   3
HETATM    3  N   UNL     1     -10.241   6.765  71.505  1.00  0.00    -0.193 NA 
HETATM    4  C   UNL     1      -9.282   7.230  72.511  1.00  0.00    -0.139 C  
HETATM    5  C   UNL     1      -8.648   8.423  71.830  1.00  0.00    -0.234 C  
HETATM    6  C   UNL     1      -8.496   7.968  70.388  1.00  0.00    -0.130 C  
HETATM    7  C   UNL     1      -9.574   6.889  70.185  1.00  0.00    -0.161 C  
BRANCH   7   8
HETATM    8  C   UNL     1     -10.588   7.277  69.085  1.00  0.00    -0.208 C  
BRANCH   8   9
HETATM    9  N   UNL     1     -10.944   8.691  69.077  1.00  0.00    -0.437 N  
HETATM   10  C   UNL     1     -10.734   9.497  67.973  1.00  0.00    -0.212 C  
HETATM   11  H   UNL     1     -11.362   9.099  69.913  1.00  0.00     0.000 HD 
HETATM   12  O   UNL     1     -10.230   9.082  66.938  1.00  0.00    -0.238 OA 
BRANCH  10  13
HETATM   13  C   UNL     1     -11.119  10.934  68.121  1.00  0.00    -0.337 A  
HETATM   14  C   UNL     1     -11.268  11.689  66.937  1.00  0.00    -0.376 A  
HETATM   15  C   UNL     1     -11.746  13.004  66.985  1.00  0.00    -0.383 A  
HETATM   16  C   UNL     1     -11.452  11.530  69.352  1.00  0.00    -0.309 A  
HETATM   17  C   UNL     1     -12.081  13.592  68.198  1.00  0.00    -0.310 A  
HETATM   18  C   UNL     1     -11.944  12.848  69.371  1.00  0.00    -0.327 A  
BRANCH  15  19
HETATM   19  S   UNL     1     -11.831  13.959  65.484  1.00  0.00    -0.382 S  
HETATM   20  O   UNL     1     -11.013  15.137  65.695  1.00  0.00    -0.334 OA 
HETATM   21  O   UNL     1     -13.234  14.083  65.141  1.00  0.00    -0.768 OA 
BRANCH  19  22
HETATM   22  C   UNL     1     -11.037  12.933  64.262  1.00  0.00    -0.378 C  
HETATM   23  C   UNL     1     -12.061  12.239  63.382  1.00  0.00    -0.615 C  
ENDBRANCH  19  22
ENDBRANCH  15  19
BRANCH  16  24
HETATM   24  O   UNL     1     -11.436  10.961  70.597  1.00  0.00    -0.302 OA 
HETATM   25  C   UNL     1     -12.661  10.954  71.321  1.00  0.00    -0.437 C  
ENDBRANCH  16  24
ENDBRANCH  10  13
ENDBRANCH   8   9
ENDBRANCH   7   8
ENDBRANCH   2   3
TORSDOF 7
ENDMDL
MODEL       44
REMARK 921   NORMALIZED FREE ENERGY PREDICTED BY IDOCK:   -5.64 KCAL/MOL
REMARK 922        TOTAL FREE ENERGY PREDICTED BY IDOCK:   -8.81 KCAL/MOL
REMARK 923 INTER-LIGAND FREE ENERGY PREDICTED BY IDOCK:   -7.57 KCAL/MOL
REMARK 924 INTRA-LIGAND FREE ENERGY PREDICTED BY IDOCK:   -1.25 KCAL/MOL
REMARK 927      BINDING AFFINITY PREDICTED BY RF-SCORE:    0.00 PKD
ROOT
HETATM    1  C   UNL     1      -6.747  21.096  66.824  1.00  0.00    -0.319 C  
HETATM    2  C   UNL     1      -7.332  19.992  65.950  1.00  0.00    -0.309 C  
ENDROOT
BRANCH   2   3
HETATM    3  N   UNL     1      -7.441  18.712  66.661  1.00  0.00    -0.225 NA 
HETATM    4  C   UNL     1      -6.300  17.827  66.415  1.00  0.00    -0.217 C  
HETATM    5  C   UNL     1      -6.425  16.815  67.532  1.00  0.00    -0.178 C  
HETATM    6  C   UNL     1      -6.845  17.655  68.726  1.00  0.00    -0.235 C  
HETATM    7  C   UNL     1      -7.537  18.894  68.130  1.00  0.00    -0.277 C  
BRANCH   7   8
HETATM    8  C   UNL     1      -9.010  19.013  68.581  1.00  0.00    -0.363 C  
BRANCH   8   9
HETATM    9  N   UNL     1      -9.621  17.742  68.954  1.00  0.00    -0.262 N  
HETATM   10  C   UNL     1     -10.448  17.042  68.093  1.00  0.00    -0.357 C  
HETATM   11  H   UNL     1      -9.433  17.356  69.879  1.00  0.00     0.000 HD 
HETATM   12  O   UNL     1     -10.726  17.445  66.971  1.00  0.00    -0.279 OA 
BRANCH  10  13
HETATM   13  C   UNL     1     -11.028  15.771  68.623  1.00  0.00    -0.307 A  
HETATM   14  C   UNL     1     -10.938  14.626  67.801  1.00  0.00    -0.291 A  
HETATM   15  C   UNL     1     -11.346  13.373  68.274  1.00  0.00    -0.295 A  
HETATM   16  C   UNL     1     -11.542  15.631  69.926  1.00  0.00    -0.347 A  
HETATM   17  C   UNL     1     -11.848  13.232  69.562  1.00  0.00    -0.388 A  
HETATM   18  C   UNL     1     -11.931  14.357  70.382  1.00  0.00    -0.395 A  
BRANCH  15  19
HETATM   19  S   UNL     1     -11.309  11.970  67.178  1.00  0.00    -0.336 S  
HETATM   20  O   UNL     1     -12.094  12.331  66.014  1.00  0.00    -0.623 OA 
HETATM   21  O   UNL     1     -11.652  10.806  67.971  1.00  0.00    -0.470 OA 
BRANCH  19  22
HETATM   22  C   UNL     1      -9.601  11.837  66.687  1.00  0.00    -0.205 C  
HETATM   23  C   UNL     1      -8.930  10.649  67.354  1.00  0.00    -0.138 C  
ENDBRANCH  19  22
ENDBRANCH  15  19
BRANCH  16  24
HETATM   24  O   UNL     1     -11.659  16.590  70.895  1.00  0.00    -0.280 OA 
HETATM   25  C   UNL     1     -12.191  16.182  72.150  1.00  0.00    -0.473 C  
ENDBRANCH  16  24
ENDBRANCH  10  13
ENDBRANCH   8   9
ENDBRANCH   7   8
ENDBRANCH   2   3
TORSDOF 7
ENDMDL
MODEL       45
REMARK 921   NORMALIZED FREE ENERGY PREDICTED BY IDOCK:   -5.62 KCAL/MOL
REMARK 922        TOTAL FREE ENERGY PREDICTED BY IDOCK:   -8.79 KCAL/MOL
REMARK 923 INTER-LIGAND FREE ENERGY PREDICTED BY IDOCK:   -7.98 KCAL/MOL
REMARK 924 INTRA-LIGAND FREE ENERGY PREDICTED BY IDOCK:   -0.81 KCAL/MOL
REMARK 927      BINDING AFFINITY PREDICTED BY RF-SCORE:    0.00 PKD
ROOT
HETATM    1  C   UNL     1     -11.580  15.429  68.745  1.00  0.00    -0.382 C  
HETATM    2  C   UNL     1     -12.124  14.274  69.579  1.00  0.00    -0.330 C  
ENDROOT
BRANCH   2   3
HETATM    3  N   UNL     1     -12.100  14.562  71.018  1.00  0.00    -0.327 NA 
HETATM    4  C   UNL     1     -11.640  15.921  71.318  1.00  0.00    -0.452 C  
HETATM    5  C   UNL     1     -12.092  16.110  72.749  1.00  0.00    -0.653 C  
HETATM    6  C   UNL     1     -13.460  15.450  72.779  1.00  0.00    -0.637 C  
HETATM    7  C   UNL     1     -13.438  14.412  71.643  1.00  0.00    -0.372 C  
BRANCH   7   8
HETATM    8  C   UNL     1     -13.650  12.973  72.163  1.00  0.00    -0.526 C  
BRANCH   8   9
HETATM    9  N   UNL     1     -12.735  11.992  71.588  1.00  0.00    -0.274 N  
HETATM   10  C   UNL     1     -12.923  10.630  71.745  1.00  0.00    -0.472 C  
HETATM   11  H   UNL     1     -11.932  12.322  71.053  1.00  0.00     0.000 HD 
HETATM   12  O   UNL     1     -13.857  10.161  72.380  1.00  0.00    -0.166 OA 
BRANCH  10  13
HETATM   13  C   UNL     1     -11.887   9.747  71.127  1.00  0.00    -0.466 A  
HETATM   14  C   UNL     1     -11.446   8.641  71.886  1.00  0.00    -0.419 A  
HETATM   15  C   UNL     1     -10.572   7.698  71.331  1.00  0.00    -0.213 A  
HETATM   16  C   UNL     1     -11.428   9.889  69.805  1.00  0.00    -0.143 A  
HETATM   17  C   UNL     1     -10.122   7.833  70.024  1.00  0.00    -0.201 A  
HETATM   18  C   UNL     1     -10.562   8.918  69.266  1.00  0.00    -0.219 A  
BRANCH  15  19
HETATM   19  S   UNL     1      -9.960   6.369  72.347  1.00  0.00    -0.171 S  
HETATM   20  O   UNL     1      -8.632   6.052  71.859  1.00  0.00    -0.135 OA 
HETATM   21  O   UNL     1     -10.996   5.355  72.386  1.00  0.00    -0.236 OA 
BRANCH  19  22
HETATM   22  C   UNL     1      -9.807   7.087  73.970  1.00  0.00    -0.308 C  
HETATM   23  C   UNL     1      -8.488   7.826  74.120  1.00  0.00    -0.303 C  
ENDBRANCH  19  22
ENDBRANCH  15  19
BRANCH  16  24
HETATM   24  O   UNL     1     -11.775  10.844  68.888  1.00  0.00    -0.297 OA 
HETATM   25  C   UNL     1     -10.969  10.944  67.720  1.00  0.00    -0.283 C  
ENDBRANCH  16  24
ENDBRANCH  10  13
ENDBRANCH   8   9
ENDBRANCH   7   8
ENDBRANCH   2   3
TORSDOF 7
ENDMDL
MODEL       46
REMARK 921   NORMALIZED FREE ENERGY PREDICTED BY IDOCK:   -5.62 KCAL/MOL
REMARK 922        TOTAL FREE ENERGY PREDICTED BY IDOCK:   -8.79 KCAL/MOL
REMARK 923 INTER-LIGAND FREE ENERGY PREDICTED BY IDOCK:   -7.75 KCAL/MOL
REMARK 924 INTRA-LIGAND FREE ENERGY PREDICTED BY IDOCK:   -1.04 KCAL/MOL
REMARK 927      BINDING AFFINITY PREDICTED BY RF-SCORE:    0.00 PKD
ROOT
HETATM    1  C   UNL     1     -12.087  12.335  63.665  1.00  0.00    -0.648 C  
HETATM    2  C   UNL     1     -12.534  12.866  65.022  1.00  0.00    -0.492 C  
ENDROOT
BRANCH   2   3
HETATM    3  N   UNL     1     -11.438  13.498  65.766  1.00  0.00    -0.310 NA 
HETATM    4  C   UNL     1     -10.511  14.230  64.898  1.00  0.00    -0.430 C  
HETATM    5  C   UNL     1      -9.763  15.102  65.882  1.00  0.00    -0.385 C  
HETATM    6  C   UNL     1     -10.843  15.548  66.852  1.00  0.00    -0.301 C  
HETATM    7  C   UNL     1     -11.932  14.463  66.779  1.00  0.00    -0.399 C  
BRANCH   7   8
HETATM    8  C   UNL     1     -12.156  13.771  68.142  1.00  0.00    -0.281 C  
BRANCH   8   9
HETATM    9  N   UNL     1     -11.676  12.394  68.196  1.00  0.00    -0.341 N  
HETATM   10  C   UNL     1     -11.711  11.647  69.360  1.00  0.00    -0.340 C  
HETATM   11  H   UNL     1     -11.303  11.968  67.348  1.00  0.00     0.000 HD 
HETATM   12  O   UNL     1     -12.135  12.092  70.418  1.00  0.00    -0.354 OA 
BRANCH  10  13
HETATM   13  C   UNL     1     -11.155  10.263  69.273  1.00  0.00    -0.293 A  
HETATM   14  C   UNL     1     -11.518   9.355  70.291  1.00  0.00    -0.223 A  
HETATM   15  C   UNL     1     -11.140   8.008  70.215  1.00  0.00    -0.224 A  
HETATM   16  C   UNL     1     -10.400   9.792  68.181  1.00  0.00    -0.202 A  
HETATM   17  C   UNL     1     -10.400   7.540  69.137  1.00  0.00    -0.215 A  
HETATM   18  C   UNL     1     -10.047   8.431  68.122  1.00  0.00    -0.239 A  
BRANCH  15  19
HETATM   19  S   UNL     1     -11.531   6.913  71.564  1.00  0.00    -0.295 S  
HETATM   20  O   UNL     1     -10.749   5.710  71.361  1.00  0.00    -0.247 OA 
HETATM   21  O   UNL     1     -12.977   6.850  71.651  1.00  0.00    -0.370 OA 
BRANCH  19  22
HETATM   22  C   UNL     1     -10.912   7.751  73.009  1.00  0.00    -0.381 C  
HETATM   23  C   UNL     1      -9.411   7.963  72.918  1.00  0.00    -0.309 C  
ENDBRANCH  19  22
ENDBRANCH  15  19
BRANCH  16  24
HETATM   24  O   UNL     1      -9.999  10.484  67.071  1.00  0.00    -0.186 OA 
HETATM   25  C   UNL     1      -9.859   9.746  65.863  1.00  0.00    -0.282 C  
ENDBRANCH  16  24
ENDBRANCH  10  13
ENDBRANCH   8   9
ENDBRANCH   7   8
ENDBRANCH   2   3
TORSDOF 7
ENDMDL
MODEL       47
REMARK 921   NORMALIZED FREE ENERGY PREDICTED BY IDOCK:   -5.62 KCAL/MOL
REMARK 922        TOTAL FREE ENERGY PREDICTED BY IDOCK:   -8.79 KCAL/MOL
REMARK 923 INTER-LIGAND FREE ENERGY PREDICTED BY IDOCK:   -8.07 KCAL/MOL
REMARK 924 INTRA-LIGAND FREE ENERGY PREDICTED BY IDOCK:   -0.71 KCAL/MOL
REMARK 927      BINDING AFFINITY PREDICTED BY RF-SCORE:    0.00 PKD
ROOT
HETATM    1  C   UNL     1     -13.153  10.826  71.627  1.00  0.00    -0.551 C  
HETATM    2  C   UNL     1     -12.346  12.006  71.096  1.00  0.00    -0.177 C  
ENDROOT
BRANCH   2   3
HETATM    3  N   UNL     1     -13.132  13.245  71.044  1.00  0.00    -0.147 NA 
HETATM    4  C   UNL     1     -13.799  13.547  72.314  1.00  0.00    -0.581 C  
HETATM    5  C   UNL     1     -14.166  15.005  72.150  1.00  0.00    -0.636 C  
HETATM    6  C   UNL     1     -12.956  15.598  71.450  1.00  0.00    -0.555 C  
HETATM    7  C   UNL     1     -12.298  14.424  70.704  1.00  0.00    -0.351 C  
BRANCH   7   8
HETATM    8  C   UNL     1     -12.257  14.653  69.177  1.00  0.00    -0.188 C  
BRANCH   8   9
HETATM    9  N   UNL     1     -11.601  13.583  68.433  1.00  0.00    -0.319 N  
HETATM   10  C   UNL     1     -11.894  13.321  67.106  1.00  0.00    -0.374 C  
HETATM   11  H   UNL     1     -10.903  13.009  68.907  1.00  0.00     0.000 HD 
HETATM   12  O   UNL     1     -12.724  13.961  66.475  1.00  0.00    -0.302 OA 
BRANCH  10  13
HETATM   13  C   UNL     1     -11.166  12.174  66.484  1.00  0.00    -0.378 A  
HETATM   14  C   UNL     1     -10.943  11.036  67.290  1.00  0.00    -0.356 A  
HETATM   15  C   UNL     1     -10.380   9.875  66.746  1.00  0.00    -0.217 A  
HETATM   16  C   UNL     1     -10.807  12.123  65.124  1.00  0.00    -0.300 A  
HETATM   17  C   UNL     1     -10.030   9.821  65.402  1.00  0.00    -0.302 A  
HETATM   18  C   UNL     1     -10.257  10.938  64.599  1.00  0.00    -0.411 A  
BRANCH  15  19
HETATM   19  S   UNL     1     -10.023   8.493  67.811  1.00  0.00    -0.203 S  
HETATM   20  O   UNL     1      -8.581   8.418  67.925  1.00  0.00    -0.130 OA 
HETATM   21  O   UNL     1     -10.787   7.366  67.312  1.00  0.00    -0.301 OA 
BRANCH  19  22
HETATM   22  C   UNL     1     -10.689   8.972  69.393  1.00  0.00    -0.191 C  
HETATM   23  C   UNL     1      -9.580   9.238  70.396  1.00  0.00    -0.292 C  
ENDBRANCH  19  22
ENDBRANCH  15  19
BRANCH  16  24
HETATM   24  O   UNL     1     -10.990  13.083  64.166  1.00  0.00    -0.373 OA 
HETATM   25  C   UNL     1     -12.079  12.902  63.268  1.00  0.00    -0.440 C  
ENDBRANCH  16  24
ENDBRANCH  10  13
ENDBRANCH   8   9
ENDBRANCH   7   8
ENDBRANCH   2   3
TORSDOF 7
ENDMDL
MODEL       48
REMARK 921   NORMALIZED FREE ENERGY PREDICTED BY IDOCK:   -5.61 KCAL/MOL
REMARK 922        TOTAL FREE ENERGY PREDICTED BY IDOCK:   -8.78 KCAL/MOL
REMARK 923 INTER-LIGAND FREE ENERGY PREDICTED BY IDOCK:   -7.86 KCAL/MOL
REMARK 924 INTRA-LIGAND FREE ENERGY PREDICTED BY IDOCK:   -0.92 KCAL/MOL
REMARK 927      BINDING AFFINITY PREDICTED BY RF-SCORE:    0.00 PKD
ROOT
HETATM    1  C   UNL     1     -13.194   7.613  71.556  1.00  0.00    -0.380 C  
HETATM    2  C   UNL     1     -12.734   9.057  71.379  1.00  0.00    -0.304 C  
ENDROOT
BRANCH   2   3
HETATM    3  N   UNL     1     -11.276   9.170  71.258  1.00  0.00    -0.306 NA 
HETATM    4  C   UNL     1     -10.562   8.508  72.353  1.00  0.00    -0.298 C  
HETATM    5  C   UNL     1      -9.157   8.394  71.805  1.00  0.00    -0.283 C  
HETATM    6  C   UNL     1      -9.375   8.034  70.346  1.00  0.00    -0.158 C  
HETATM    7  C   UNL     1     -10.771   8.577  69.995  1.00  0.00    -0.232 C  
BRANCH   7   8
HETATM    8  C   UNL     1     -10.721   9.632  68.867  1.00  0.00    -0.206 C  
BRANCH   8   9
HETATM    9  N   UNL     1     -10.769  11.011  69.341  1.00  0.00    -0.324 N  
HETATM   10  C   UNL     1     -11.464  11.998  68.665  1.00  0.00    -0.297 C  
HETATM   11  H   UNL     1     -10.275  11.255  70.199  1.00  0.00     0.000 HD 
HETATM   12  O   UNL     1     -12.074  11.783  67.626  1.00  0.00    -0.598 OA 
BRANCH  10  13
HETATM   13  C   UNL     1     -11.399  13.371  69.251  1.00  0.00    -0.314 A  
HETATM   14  C   UNL     1     -10.689  14.351  68.524  1.00  0.00    -0.258 A  
HETATM   15  C   UNL     1     -10.685  15.687  68.942  1.00  0.00    -0.238 A  
HETATM   16  C   UNL     1     -12.098  13.760  70.410  1.00  0.00    -0.350 A  
HETATM   17  C   UNL     1     -11.379  16.074  70.082  1.00  0.00    -0.369 A  
HETATM   18  C   UNL     1     -12.090  15.112  70.799  1.00  0.00    -0.387 A  
BRANCH  15  19
HETATM   19  S   UNL     1      -9.701  16.879  68.057  1.00  0.00    -0.264 S  
HETATM   20  O   UNL     1      -9.984  16.686  66.648  1.00  0.00    -0.259 OA 
HETATM   21  O   UNL     1      -8.347  16.768  68.562  1.00  0.00    -0.222 OA 
BRANCH  19  22
HETATM   22  C   UNL     1     -10.364  18.456  68.553  1.00  0.00    -0.294 C  
HETATM   23  C   UNL     1     -10.674  19.324  67.346  1.00  0.00    -0.594 C  
ENDBRANCH  19  22
ENDBRANCH  15  19
BRANCH  16  24
HETATM   24  O   UNL     1     -12.888  12.988  71.218  1.00  0.00    -0.353 OA 
HETATM   25  C   UNL     1     -13.604  13.655  72.251  1.00  0.00    -0.571 C  
ENDBRANCH  16  24
ENDBRANCH  10  13
ENDBRANCH   8   9
ENDBRANCH   7   8
ENDBRANCH   2   3
TORSDOF 7
ENDMDL
MODEL       49
REMARK 921   NORMALIZED FREE ENERGY PREDICTED BY IDOCK:   -5.60 KCAL/MOL
REMARK 922        TOTAL FREE ENERGY PREDICTED BY IDOCK:   -8.76 KCAL/MOL
REMARK 923 INTER-LIGAND FREE ENERGY PREDICTED BY IDOCK:   -7.65 KCAL/MOL
REMARK 924 INTRA-LIGAND FREE ENERGY PREDICTED BY IDOCK:   -1.11 KCAL/MOL
REMARK 927      BINDING AFFINITY PREDICTED BY RF-SCORE:    0.00 PKD
ROOT
HETATM    1  C   UNL     1     -10.261  19.457  68.145  1.00  0.00    -0.537 C  
HETATM    2  C   UNL     1     -10.436  19.287  66.640  1.00  0.00    -0.449 C  
ENDROOT
BRANCH   2   3
HETATM    3  N   UNL     1      -9.445  18.372  66.061  1.00  0.00    -0.504 NA 
HETATM    4  C   UNL     1      -8.067  18.745  66.390  1.00  0.00    -0.280 C  
HETATM    5  C   UNL     1      -7.300  17.482  66.066  1.00  0.00    -0.288 C  
HETATM    6  C   UNL     1      -8.218  16.375  66.556  1.00  0.00    -0.341 C  
HETATM    7  C   UNL     1      -9.635  16.975  66.523  1.00  0.00    -0.278 C  
BRANCH   7   8
HETATM    8  C   UNL     1     -10.575  16.198  65.573  1.00  0.00    -0.377 C  
BRANCH   8   9
HETATM    9  N   UNL     1     -10.274  14.775  65.473  1.00  0.00    -0.348 N  
HETATM   10  C   UNL     1     -10.885  13.834  66.283  1.00  0.00    -0.283 C  
HETATM   11  H   UNL     1      -9.591  14.462  64.783  1.00  0.00     0.000 HD 
HETATM   12  O   UNL     1     -11.707  14.133  67.138  1.00  0.00    -0.361 OA 
BRANCH  10  13
HETATM   13  C   UNL     1     -10.455  12.416  66.089  1.00  0.00    -0.274 A  
HETATM   14  C   UNL     1     -10.055  11.699  67.237  1.00  0.00    -0.221 A  
HETATM   15  C   UNL     1      -9.756  10.333  67.158  1.00  0.00    -0.173 A  
HETATM   16  C   UNL     1     -10.541  11.735  64.860  1.00  0.00    -0.294 A  
HETATM   17  C   UNL     1      -9.847   9.658  65.947  1.00  0.00    -0.358 A  
HETATM   18  C   UNL     1     -10.250  10.359  64.811  1.00  0.00    -0.319 A  
BRANCH  15  19
HETATM   19  S   UNL     1      -9.163   9.482  68.606  1.00  0.00    -0.136 S  
HETATM   20  O   UNL     1      -8.415  10.452  69.380  1.00  0.00    -0.161 OA 
HETATM   21  O   UNL     1      -8.537   8.256  68.149  1.00  0.00    -0.131 OA 
BRANCH  19  22
HETATM   22  C   UNL     1     -10.641   9.060  69.507  1.00  0.00    -0.225 C  
HETATM   23  C   UNL     1     -11.004  10.148  70.504  1.00  0.00    -0.380 C  
ENDBRANCH  19  22
ENDBRANCH  15  19
BRANCH  16  24
HETATM   24  O   UNL     1     -10.959  12.223  63.652  1.00  0.00    -0.399 OA 
HETATM   25  C   UNL     1     -12.345  12.104  63.349  1.00  0.00    -0.538 C  
ENDBRANCH  16  24
ENDBRANCH  10  13
ENDBRANCH   8   9
ENDBRANCH   7   8
ENDBRANCH   2   3
TORSDOF 7
ENDMDL
MODEL       50
REMARK 921   NORMALIZED FREE ENERGY PREDICTED BY IDOCK:   -5.58 KCAL/MOL
REMARK 922        TOTAL FREE ENERGY PREDICTED BY IDOCK:   -8.73 KCAL/MOL
REMARK 923 INTER-LIGAND FREE ENERGY PREDICTED BY IDOCK:   -7.48 KCAL/MOL
REMARK 924 INTRA-LIGAND FREE ENERGY PREDICTED BY IDOCK:   -1.25 KCAL/MOL
REMARK 927      BINDING AFFINITY PREDICTED BY RF-SCORE:    0.00 PKD
ROOT
HETATM    1  C   UNL     1     -11.215  15.635  64.481  1.00  0.00    -0.337 C  
HETATM    2  C   UNL     1     -12.294  14.570  64.650  1.00  0.00    -0.403 C  
ENDROOT
BRANCH   2   3
HETATM    3  N   UNL     1     -11.736  13.214  64.723  1.00  0.00    -0.332 NA 
HETATM    4  C   UNL     1     -11.851  12.484  63.458  1.00  0.00    -0.534 C  
HETATM    5  C   UNL     1     -10.874  11.345  63.649  1.00  0.00    -0.459 C  
HETATM    6  C   UNL     1      -9.704  11.998  64.364  1.00  0.00    -0.097 C  
HETATM    7  C   UNL     1     -10.298  13.218  65.089  1.00  0.00    -0.323 C  
BRANCH   7   8
HETATM    8  C   UNL     1     -10.115  13.133  66.621  1.00  0.00    -0.264 C  
BRANCH   8   9
HETATM    9  N   UNL     1     -10.020  11.771  67.134  1.00  0.00    -0.202 N  
HETATM   10  C   UNL     1     -11.078  11.148  67.771  1.00  0.00    -0.285 C  
HETATM   11  H   UNL     1      -9.144  11.260  67.018  1.00  0.00     0.000 HD 
HETATM   12  O   UNL     1     -12.155  11.699  67.954  1.00  0.00    -0.613 OA 
BRANCH  10  13
HETATM   13  C   UNL     1     -10.825   9.763  68.272  1.00  0.00    -0.256 A  
HETATM   14  C   UNL     1     -11.194   9.480  69.605  1.00  0.00    -0.138 A  
HETATM   15  C   UNL     1     -11.103   8.177  70.109  1.00  0.00    -0.187 A  
HETATM   16  C   UNL     1     -10.357   8.713  67.460  1.00  0.00    -0.269 A  
HETATM   17  C   UNL     1     -10.648   7.138  69.308  1.00  0.00    -0.233 A  
HETATM   18  C   UNL     1     -10.291   7.409  67.987  1.00  0.00    -0.247 A  
BRANCH  15  19
HETATM   19  S   UNL     1     -11.485   7.873  71.822  1.00  0.00    -0.285 S  
HETATM   20  O   UNL     1     -10.449   8.524  72.600  1.00  0.00    -0.300 OA 
HETATM   21  O   UNL     1     -11.728   6.450  71.955  1.00  0.00    -0.304 OA 
BRANCH  19  22
HETATM   22  C   UNL     1     -13.020   8.738  72.093  1.00  0.00    -0.406 C  
HETATM   23  C   UNL     1     -14.203   7.919  71.607  1.00  0.00    -0.564 C  
ENDBRANCH  19  22
ENDBRANCH  15  19
BRANCH  16  24
HETATM   24  O   UNL     1     -10.007   8.759  66.138  1.00  0.00    -0.275 OA 
HETATM   25  C   UNL     1      -8.693   8.331  65.800  1.00  0.00    -0.166 C  
ENDBRANCH  16  24
ENDBRANCH  10  13
ENDBRANCH   8   9
ENDBRANCH   7   8
ENDBRANCH   2   3
TORSDOF 7
ENDMDL
MODEL       51
REMARK 921   NORMALIZED FREE ENERGY PREDICTED BY IDOCK:   -5.58 KCAL/MOL
REMARK 922        TOTAL FREE ENERGY PREDICTED BY IDOCK:   -8.73 KCAL/MOL
REMARK 923 INTER-LIGAND FREE ENERGY PREDICTED BY IDOCK:   -7.63 KCAL/MOL
REMARK 924 INTRA-LIGAND FREE ENERGY PREDICTED BY IDOCK:   -1.10 KCAL/MOL
REMARK 927      BINDING AFFINITY PREDICTED BY RF-SCORE:    0.00 PKD
ROOT
HETATM    1  C   UNL     1      -7.786   9.745  70.373  1.00  0.00    -0.159 C  
HETATM    2  C   UNL     1      -9.055   9.454  69.578  1.00  0.00    -0.165 C  
ENDROOT
BRANCH   2   3
HETATM    3  N   UNL     1      -9.970   8.556  70.292  1.00  0.00    -0.181 NA 
HETATM    4  C   UNL     1      -9.303   7.355  70.802  1.00  0.00    -0.159 C  
HETATM    5  C   UNL     1     -10.300   6.833  71.813  1.00  0.00    -0.217 C  
HETATM    6  C   UNL     1     -10.816   8.094  72.485  1.00  0.00    -0.431 C  
HETATM    7  C   UNL     1     -10.612   9.218  71.455  1.00  0.00    -0.347 C  
BRANCH   7   8
HETATM    8  C   UNL     1     -11.945   9.885  71.047  1.00  0.00    -0.365 C  
BRANCH   8   9
HETATM    9  N   UNL     1     -11.827  11.304  70.729  1.00  0.00    -0.397 N  
HETATM   10  C   UNL     1     -11.896  11.776  69.431  1.00  0.00    -0.334 C  
HETATM   11  H   UNL     1     -11.689  11.970  71.490  1.00  0.00     0.000 HD 
HETATM   12  O   UNL     1     -12.050  11.038  68.467  1.00  0.00    -0.573 OA 
BRANCH  10  13
HETATM   13  C   UNL     1     -11.726  13.251  69.255  1.00  0.00    -0.380 A  
HETATM   14  C   UNL     1     -11.040  13.689  68.101  1.00  0.00    -0.281 A  
HETATM   15  C   UNL     1     -10.947  15.054  67.801  1.00  0.00    -0.298 A  
HETATM   16  C   UNL     1     -12.311  14.210  70.102  1.00  0.00    -0.351 A  
HETATM   17  C   UNL     1     -11.529  16.002  68.633  1.00  0.00    -0.377 A  
HETATM   18  C   UNL     1     -12.217  15.575  69.769  1.00  0.00    -0.328 A  
BRANCH  15  19
HETATM   19  S   UNL     1      -9.993  15.577  66.392  1.00  0.00    -0.304 S  
HETATM   20  O   UNL     1     -10.579  16.820  65.932  1.00  0.00    -0.324 OA 
HETATM   21  O   UNL     1      -9.887  14.435  65.505  1.00  0.00    -0.324 OA 
BRANCH  19  22
HETATM   22  C   UNL     1      -8.377  15.928  67.058  1.00  0.00    -0.223 C  
HETATM   23  C   UNL     1      -7.655  16.970  66.222  1.00  0.00    -0.340 C  
ENDBRANCH  19  22
ENDBRANCH  15  19
BRANCH  16  24
HETATM   24  O   UNL     1     -13.063  13.998  71.226  1.00  0.00    -0.328 OA 
HETATM   25  C   UNL     1     -13.613  15.146  71.863  1.00  0.00    -0.445 C  
ENDBRANCH  16  24
ENDBRANCH  10  13
ENDBRANCH   8   9
ENDBRANCH   7   8
ENDBRANCH   2   3
TORSDOF 7
ENDMDL
MODEL       52
REMARK 921   NORMALIZED FREE ENERGY PREDICTED BY IDOCK:   -5.55 KCAL/MOL
REMARK 922        TOTAL FREE ENERGY PREDICTED BY IDOCK:   -8.69 KCAL/MOL
REMARK 923 INTER-LIGAND FREE ENERGY PREDICTED BY IDOCK:   -7.54 KCAL/MOL
REMARK 924 INTRA-LIGAND FREE ENERGY PREDICTED BY IDOCK:   -1.14 KCAL/MOL
REMARK 927      BINDING AFFINITY PREDICTED BY RF-SCORE:    0.00 PKD
ROOT
HETATM    1  C   UNL     1     -12.142  12.230  63.635  1.00  0.00    -0.648 C  
HETATM    2  C   UNL     1     -12.524  12.712  65.031  1.00  0.00    -0.487 C  
ENDROOT
BRANCH   2   3
HETATM    3  N   UNL     1     -11.421  13.407  65.705  1.00  0.00    -0.311 NA 
HETATM    4  C   UNL     1     -10.568  14.153  64.776  1.00  0.00    -0.418 C  
HETATM    5  C   UNL     1      -9.811  15.080  65.701  1.00  0.00    -0.380 C  
HETATM    6  C   UNL     1     -10.861  15.507  66.712  1.00  0.00    -0.291 C  
HETATM    7  C   UNL     1     -11.905  14.377  66.718  1.00  0.00    -0.410 C  
BRANCH   7   8
HETATM    8  C   UNL     1     -12.035  13.711  68.106  1.00  0.00    -0.355 C  
BRANCH   8   9
HETATM    9  N   UNL     1     -11.415  12.394  68.194  1.00  0.00    -0.294 N  
HETATM   10  C   UNL     1     -11.423  11.652  69.362  1.00  0.00    -0.307 C  
HETATM   11  H   UNL     1     -10.959  12.007  67.368  1.00  0.00     0.000 HD 
HETATM   12  O   UNL     1     -11.941  12.054  70.396  1.00  0.00    -0.348 OA 
BRANCH  10  13
HETATM   13  C   UNL     1     -10.720  10.334  69.313  1.00  0.00    -0.265 A  
HETATM   14  C   UNL     1     -10.412   9.719  70.546  1.00  0.00    -0.366 A  
HETATM   15  C   UNL     1      -9.866   8.430  70.584  1.00  0.00    -0.181 A  
HETATM   16  C   UNL     1     -10.463   9.631  68.121  1.00  0.00    -0.222 A  
HETATM   17  C   UNL     1      -9.617   7.732  69.409  1.00  0.00    -0.156 A  
HETATM   18  C   UNL     1      -9.929   8.330  68.188  1.00  0.00    -0.224 A  
BRANCH  15  19
HETATM   19  S   UNL     1      -9.400   7.723  72.150  1.00  0.00    -0.166 S  
HETATM   20  O   UNL     1      -8.712   8.764  72.887  1.00  0.00    -0.379 OA 
HETATM   21  O   UNL     1      -8.746   6.461  71.866  1.00  0.00    -0.134 OA 
BRANCH  19  22
HETATM   22  C   UNL     1     -10.950   7.388  72.962  1.00  0.00    -0.374 C  
HETATM   23  C   UNL     1     -11.824   6.475  72.120  1.00  0.00    -0.348 C  
ENDBRANCH  19  22
ENDBRANCH  15  19
BRANCH  16  24
HETATM   24  O   UNL     1     -10.739  10.016  66.837  1.00  0.00    -0.212 OA 
HETATM   25  C   UNL     1      -9.718   9.815  65.867  1.00  0.00    -0.266 C  
ENDBRANCH  16  24
ENDBRANCH  10  13
ENDBRANCH   8   9
ENDBRANCH   7   8
ENDBRANCH   2   3
TORSDOF 7
ENDMDL
MODEL       53
REMARK 921   NORMALIZED FREE ENERGY PREDICTED BY IDOCK:   -5.53 KCAL/MOL
REMARK 922        TOTAL FREE ENERGY PREDICTED BY IDOCK:   -8.67 KCAL/MOL
REMARK 923 INTER-LIGAND FREE ENERGY PREDICTED BY IDOCK:   -7.58 KCAL/MOL
REMARK 924 INTRA-LIGAND FREE ENERGY PREDICTED BY IDOCK:   -1.09 KCAL/MOL
REMARK 927      BINDING AFFINITY PREDICTED BY RF-SCORE:    0.00 PKD
ROOT
HETATM    1  C   UNL     1     -11.864  14.377  64.542  1.00  0.00    -0.463 C  
HETATM    2  C   UNL     1     -12.420  13.955  65.898  1.00  0.00    -0.481 C  
ENDROOT
BRANCH   2   3
HETATM    3  N   UNL     1     -11.453  13.178  66.683  1.00  0.00    -0.331 NA 
HETATM    4  C   UNL     1     -10.284  12.769  65.899  1.00  0.00    -0.287 C  
HETATM    5  C   UNL     1      -9.291  12.382  66.973  1.00  0.00    -0.204 C  
HETATM    6  C   UNL     1      -9.500  13.437  68.046  1.00  0.00    -0.218 C  
HETATM    7  C   UNL     1     -10.944  13.935  67.853  1.00  0.00    -0.250 C  
BRANCH   7   8
HETATM    8  C   UNL     1     -11.819  13.682  69.102  1.00  0.00    -0.348 C  
BRANCH   8   9
HETATM    9  N   UNL     1     -11.413  12.522  69.887  1.00  0.00    -0.515 N  
HETATM   10  C   UNL     1     -11.809  11.236  69.561  1.00  0.00    -0.357 C  
HETATM   11  H   UNL     1     -10.818  12.662  70.704  1.00  0.00     0.000 HD 
HETATM   12  O   UNL     1     -12.529  10.990  68.602  1.00  0.00    -0.462 OA 
BRANCH  10  13
HETATM   13  C   UNL     1     -11.343  10.150  70.475  1.00  0.00    -0.416 A  
HETATM   14  C   UNL     1      -9.986   9.770  70.388  1.00  0.00    -0.294 A  
HETATM   15  C   UNL     1      -9.443   8.849  71.293  1.00  0.00    -0.272 A  
HETATM   16  C   UNL     1     -12.143   9.582  71.484  1.00  0.00    -0.389 A  
HETATM   17  C   UNL     1     -10.230   8.292  72.293  1.00  0.00    -0.375 A  
HETATM   18  C   UNL     1     -11.569   8.671  72.390  1.00  0.00    -0.385 A  
BRANCH  15  19
HETATM   19  S   UNL     1      -7.754   8.319  71.095  1.00  0.00    -0.104 S  
HETATM   20  O   UNL     1      -7.597   7.124  71.899  1.00  0.00    -0.085 OA 
HETATM   21  O   UNL     1      -6.917   9.481  71.324  1.00  0.00    -0.300 OA 
BRANCH  19  22
HETATM   22  C   UNL     1      -7.633   7.863  69.377  1.00  0.00    -0.103 C  
HETATM   23  C   UNL     1      -8.500   6.655  69.068  1.00  0.00    -0.130 C  
ENDBRANCH  19  22
ENDBRANCH  15  19
BRANCH  16  24
HETATM   24  O   UNL     1     -13.452   9.854  71.777  1.00  0.00    -0.382 OA 
HETATM   25  C   UNL     1     -14.269   8.757  72.169  1.00  0.00    -0.426 C  
ENDBRANCH  16  24
ENDBRANCH  10  13
ENDBRANCH   8   9
ENDBRANCH   7   8
ENDBRANCH   2   3
TORSDOF 7
ENDMDL
MODEL       54
REMARK 921   NORMALIZED FREE ENERGY PREDICTED BY IDOCK:   -5.50 KCAL/MOL
REMARK 922        TOTAL FREE ENERGY PREDICTED BY IDOCK:   -8.62 KCAL/MOL
REMARK 923 INTER-LIGAND FREE ENERGY PREDICTED BY IDOCK:   -7.59 KCAL/MOL
REMARK 924 INTRA-LIGAND FREE ENERGY PREDICTED BY IDOCK:   -1.03 KCAL/MOL
REMARK 927      BINDING AFFINITY PREDICTED BY RF-SCORE:    0.00 PKD
ROOT
HETATM    1  C   UNL     1     -10.355   5.526  71.432  1.00  0.00    -0.291 C  
HETATM    2  C   UNL     1     -11.062   6.072  70.196  1.00  0.00    -0.361 C  
ENDROOT
BRANCH   2   3
HETATM    3  N   UNL     1     -11.389   7.498  70.320  1.00  0.00    -0.242 NA 
HETATM    4  C   UNL     1     -11.633   7.905  71.707  1.00  0.00    -0.278 C  
HETATM    5  C   UNL     1     -11.526   9.411  71.628  1.00  0.00    -0.463 C  
HETATM    6  C   UNL     1     -10.365   9.634  70.674  1.00  0.00    -0.365 C  
HETATM    7  C   UNL     1     -10.305   8.368  69.801  1.00  0.00    -0.216 C  
BRANCH   7   8
HETATM    8  C   UNL     1     -10.516   8.682  68.303  1.00  0.00    -0.184 C  
BRANCH   8   9
HETATM    9  N   UNL     1     -11.049  10.015  68.044  1.00  0.00    -0.465 N  
HETATM   10  C   UNL     1     -10.589  10.803  67.003  1.00  0.00    -0.260 C  
HETATM   11  H   UNL     1     -11.784  10.379  68.650  1.00  0.00     0.000 HD 
HETATM   12  O   UNL     1      -9.704  10.439  66.241  1.00  0.00    -0.187 OA 
BRANCH  10  13
HETATM   13  C   UNL     1     -11.206  12.159  66.879  1.00  0.00    -0.375 A  
HETATM   14  C   UNL     1     -10.994  13.064  67.942  1.00  0.00    -0.264 A  
HETATM   15  C   UNL     1     -11.433  14.391  67.847  1.00  0.00    -0.321 A  
HETATM   16  C   UNL     1     -11.872  12.611  65.725  1.00  0.00    -0.444 A  
HETATM   17  C   UNL     1     -12.085  14.841  66.706  1.00  0.00    -0.118 A  
HETATM   18  C   UNL     1     -12.288  13.953  65.649  1.00  0.00    -0.511 A  
BRANCH  15  19
HETATM   19  S   UNL     1     -11.235  15.479  69.243  1.00  0.00    -0.339 S  
HETATM   20  O   UNL     1     -11.263  16.831  68.722  1.00  0.00    -0.273 OA 
HETATM   21  O   UNL     1     -10.093  14.998  69.996  1.00  0.00    -0.134 OA 
BRANCH  19  22
HETATM   22  C   UNL     1     -12.705  15.220  70.216  1.00  0.00    -0.314 C  
HETATM   23  C   UNL     1     -12.462  14.200  71.314  1.00  0.00    -0.446 C  
ENDBRANCH  19  22
ENDBRANCH  15  19
BRANCH  16  24
HETATM   24  O   UNL     1     -12.124  11.920  64.570  1.00  0.00    -0.274 OA 
HETATM   25  C   UNL     1     -11.566  12.441  63.369  1.00  0.00    -0.462 C  
ENDBRANCH  16  24
ENDBRANCH  10  13
ENDBRANCH   8   9
ENDBRANCH   7   8
ENDBRANCH   2   3
TORSDOF 7
ENDMDL
MODEL       55
REMARK 921   NORMALIZED FREE ENERGY PREDICTED BY IDOCK:   -5.48 KCAL/MOL
REMARK 922        TOTAL FREE ENERGY PREDICTED BY IDOCK:   -8.59 KCAL/MOL
REMARK 923 INTER-LIGAND FREE ENERGY PREDICTED BY IDOCK:   -7.67 KCAL/MOL
REMARK 924 INTRA-LIGAND FREE ENERGY PREDICTED BY IDOCK:   -0.92 KCAL/MOL
REMARK 927      BINDING AFFINITY PREDICTED BY RF-SCORE:    0.00 PKD
ROOT
HETATM    1  C   UNL     1      -7.515  20.352  66.821  1.00  0.00    -0.329 C  
HETATM    2  C   UNL     1      -8.738  19.637  66.255  1.00  0.00    -0.369 C  
ENDROOT
BRANCH   2   3
HETATM    3  N   UNL     1      -8.676  18.183  66.448  1.00  0.00    -0.384 NA 
HETATM    4  C   UNL     1      -7.337  17.636  66.213  1.00  0.00    -0.310 C  
HETATM    5  C   UNL     1      -7.425  16.272  66.861  1.00  0.00    -0.271 C  
HETATM    6  C   UNL     1      -8.231  16.529  68.122  1.00  0.00    -0.181 C  
HETATM    7  C   UNL     1      -9.070  17.783  67.822  1.00  0.00    -0.249 C  
BRANCH   7   8
HETATM    8  C   UNL     1     -10.587  17.503  67.905  1.00  0.00    -0.390 C  
BRANCH   8   9
HETATM    9  N   UNL     1     -10.932  16.326  68.694  1.00  0.00    -0.322 N  
HETATM   10  C   UNL     1     -11.369  15.150  68.110  1.00  0.00    -0.335 C  
HETATM   11  H   UNL     1     -10.848  16.371  69.710  1.00  0.00     0.000 HD 
HETATM   12  O   UNL     1     -11.503  15.023  66.900  1.00  0.00    -0.334 OA 
BRANCH  10  13
HETATM   13  C   UNL     1     -11.716  14.038  69.046  1.00  0.00    -0.368 A  
HETATM   14  C   UNL     1     -11.137  12.775  68.793  1.00  0.00    -0.303 A  
HETATM   15  C   UNL     1     -11.314  11.716  69.691  1.00  0.00    -0.236 A  
HETATM   16  C   UNL     1     -12.480  14.211  70.215  1.00  0.00    -0.353 A  
HETATM   17  C   UNL     1     -12.063  11.886  70.849  1.00  0.00    -0.237 A  
HETATM   18  C   UNL     1     -12.629  13.134  71.109  1.00  0.00    -0.403 A  
BRANCH  15  19
HETATM   19  S   UNL     1     -10.651  10.111  69.293  1.00  0.00    -0.246 S  
HETATM   20  O   UNL     1      -9.233  10.162  69.592  1.00  0.00    -0.214 OA 
HETATM   21  O   UNL     1     -11.115   9.781  67.960  1.00  0.00    -0.222 OA 
BRANCH  19  22
HETATM   22  C   UNL     1     -11.432   9.009  70.455  1.00  0.00    -0.212 C  
HETATM   23  C   UNL     1     -10.638   8.923  71.747  1.00  0.00    -0.432 C  
ENDBRANCH  19  22
ENDBRANCH  15  19
BRANCH  16  24
HETATM   24  O   UNL     1     -13.073  15.356  70.674  1.00  0.00    -0.426 OA 
HETATM   25  C   UNL     1     -13.950  15.230  71.788  1.00  0.00    -0.539 C  
ENDBRANCH  16  24
ENDBRANCH  10  13
ENDBRANCH   8   9
ENDBRANCH   7   8
ENDBRANCH   2   3
TORSDOF 7
ENDMDL
MODEL       56
REMARK 921   NORMALIZED FREE ENERGY PREDICTED BY IDOCK:   -5.47 KCAL/MOL
REMARK 922        TOTAL FREE ENERGY PREDICTED BY IDOCK:   -8.58 KCAL/MOL
REMARK 923 INTER-LIGAND FREE ENERGY PREDICTED BY IDOCK:   -7.47 KCAL/MOL
REMARK 924 INTRA-LIGAND FREE ENERGY PREDICTED BY IDOCK:   -1.11 KCAL/MOL
REMARK 927      BINDING AFFINITY PREDICTED BY RF-SCORE:    0.00 PKD
ROOT
HETATM    1  C   UNL     1     -10.203  10.092  67.446  1.00  0.00    -0.269 C  
HETATM    2  C   UNL     1     -11.229  11.174  67.126  1.00  0.00    -0.249 C  
ENDROOT
BRANCH   2   3
HETATM    3  N   UNL     1     -10.970  11.829  65.838  1.00  0.00    -0.302 NA 
HETATM    4  C   UNL     1     -10.349  10.931  64.860  1.00  0.00    -0.304 C  
HETATM    5  C   UNL     1     -10.569  11.666  63.557  1.00  0.00    -0.496 C  
HETATM    6  C   UNL     1     -11.973  12.227  63.700  1.00  0.00    -0.633 C  
HETATM    7  C   UNL     1     -12.212  12.350  65.215  1.00  0.00    -0.353 C  
BRANCH   7   8
HETATM    8  C   UNL     1     -12.478  13.810  65.647  1.00  0.00    -0.503 C  
BRANCH   8   9
HETATM    9  N   UNL     1     -11.301  14.504  66.157  1.00  0.00    -0.344 N  
HETATM   10  C   UNL     1     -11.153  14.818  67.496  1.00  0.00    -0.319 C  
HETATM   11  H   UNL     1     -10.562  14.765  65.504  1.00  0.00     0.000 HD 
HETATM   12  O   UNL     1     -12.000  14.545  68.336  1.00  0.00    -0.321 OA 
BRANCH  10  13
HETATM   13  C   UNL     1      -9.909  15.558  67.867  1.00  0.00    -0.216 A  
HETATM   14  C   UNL     1      -9.971  16.969  67.865  1.00  0.00    -0.281 A  
HETATM   15  C   UNL     1      -8.888  17.732  68.319  1.00  0.00    -0.277 A  
HETATM   16  C   UNL     1      -8.735  14.932  68.326  1.00  0.00    -0.166 A  
HETATM   17  C   UNL     1      -7.731  17.116  68.778  1.00  0.00    -0.259 A  
HETATM   18  C   UNL     1      -7.667  15.722  68.791  1.00  0.00    -0.177 A  
BRANCH  15  19
HETATM   19  S   UNL     1      -8.964  19.508  68.213  1.00  0.00    -0.326 S  
HETATM   20  O   UNL     1      -7.746  20.012  68.815  1.00  0.00    -0.213 OA 
HETATM   21  O   UNL     1     -10.262  19.907  68.722  1.00  0.00    -0.451 OA 
BRANCH  19  22
HETATM   22  C   UNL     1      -8.912  19.850  66.465  1.00  0.00    -0.366 C  
HETATM   23  C   UNL     1      -7.532  19.573  65.894  1.00  0.00    -0.314 C  
ENDBRANCH  19  22
ENDBRANCH  15  19
BRANCH  16  24
HETATM   24  O   UNL     1      -8.492  13.592  68.464  1.00  0.00    -0.161 OA 
HETATM   25  C   UNL     1      -7.803  12.946  67.399  1.00  0.00    -0.170 C  
ENDBRANCH  16  24
ENDBRANCH  10  13
ENDBRANCH   8   9
ENDBRANCH   7   8
ENDBRANCH   2   3
TORSDOF 7
ENDMDL
MODEL       57
REMARK 921   NORMALIZED FREE ENERGY PREDICTED BY IDOCK:   -5.46 KCAL/MOL
REMARK 922        TOTAL FREE ENERGY PREDICTED BY IDOCK:   -8.56 KCAL/MOL
REMARK 923 INTER-LIGAND FREE ENERGY PREDICTED BY IDOCK:   -7.27 KCAL/MOL
REMARK 924 INTRA-LIGAND FREE ENERGY PREDICTED BY IDOCK:   -1.29 KCAL/MOL
REMARK 927      BINDING AFFINITY PREDICTED BY RF-SCORE:    0.00 PKD
ROOT
HETATM    1  C   UNL     1      -7.354   8.449  68.569  1.00  0.00    -0.093 C  
HETATM    2  C   UNL     1      -7.955   9.816  68.880  1.00  0.00    -0.092 C  
ENDROOT
BRANCH   2   3
HETATM    3  N   UNL     1      -8.683  10.381  67.738  1.00  0.00    -0.122 NA 
HETATM    4  C   UNL     1      -7.909  10.339  66.494  1.00  0.00    -0.116 C  
HETATM    5  C   UNL     1      -8.972  10.562  65.441  1.00  0.00    -0.207 C  
HETATM    6  C   UNL     1     -10.153   9.755  65.953  1.00  0.00    -0.314 C  
HETATM    7  C   UNL     1      -9.957   9.666  67.477  1.00  0.00    -0.183 C  
BRANCH   7   8
HETATM    8  C   UNL     1     -11.126  10.313  68.253  1.00  0.00    -0.254 C  
BRANCH   8   9
HETATM    9  N   UNL     1     -10.929  11.726  68.556  1.00  0.00    -0.212 N  
HETATM   10  C   UNL     1     -11.448  12.730  67.758  1.00  0.00    -0.326 C  
HETATM   11  H   UNL     1     -10.390  11.983  69.384  1.00  0.00     0.000 HD 
HETATM   12  O   UNL     1     -12.096  12.500  66.746  1.00  0.00    -0.546 OA 
BRANCH  10  13
HETATM   13  C   UNL     1     -11.138  14.131  68.175  1.00  0.00    -0.276 A  
HETATM   14  C   UNL     1     -10.623  15.000  67.188  1.00  0.00    -0.295 A  
HETATM   15  C   UNL     1     -10.424  16.358  67.466  1.00  0.00    -0.304 A  
HETATM   16  C   UNL     1     -11.442  14.653  69.446  1.00  0.00    -0.296 A  
HETATM   17  C   UNL     1     -10.729  16.876  68.719  1.00  0.00    -0.333 A  
HETATM   18  C   UNL     1     -11.247  16.025  69.695  1.00  0.00    -0.336 A  
BRANCH  15  19
HETATM   19  S   UNL     1      -9.683  17.404  66.230  1.00  0.00    -0.231 S  
HETATM   20  O   UNL     1     -10.664  17.559  65.175  1.00  0.00    -0.673 OA 
HETATM   21  O   UNL     1      -8.370  16.859  65.946  1.00  0.00    -0.498 OA 
BRANCH  19  22
HETATM   22  C   UNL     1      -9.479  18.975  67.046  1.00  0.00    -0.317 C  
HETATM   23  C   UNL     1     -10.274  20.063  66.345  1.00  0.00    -0.598 C  
ENDBRANCH  19  22
ENDBRANCH  15  19
BRANCH  16  24
HETATM   24  O   UNL     1     -11.999  14.003  70.515  1.00  0.00    -0.313 OA 
HETATM   25  C   UNL     1     -12.976  14.713  71.267  1.00  0.00    -0.339 C  
ENDBRANCH  16  24
ENDBRANCH  10  13
ENDBRANCH   8   9
ENDBRANCH   7   8
ENDBRANCH   2   3
TORSDOF 7
ENDMDL
MODEL       58
REMARK 921   NORMALIZED FREE ENERGY PREDICTED BY IDOCK:   -5.46 KCAL/MOL
REMARK 922        TOTAL FREE ENERGY PREDICTED BY IDOCK:   -8.56 KCAL/MOL
REMARK 923 INTER-LIGAND FREE ENERGY PREDICTED BY IDOCK:   -7.75 KCAL/MOL
REMARK 924 INTRA-LIGAND FREE ENERGY PREDICTED BY IDOCK:   -0.81 KCAL/MOL
REMARK 927      BINDING AFFINITY PREDICTED BY RF-SCORE:    0.00 PKD
ROOT
HETATM    1  C   UNL     1      -6.595  18.142  68.951  1.00  0.00    -0.243 C  
HETATM    2  C   UNL     1      -7.314  19.485  69.017  1.00  0.00    -0.357 C  
ENDROOT
BRANCH   2   3
HETATM    3  N   UNL     1      -7.379  20.151  67.710  1.00  0.00    -0.291 NA 
HETATM    4  C   UNL     1      -6.130  20.832  67.358  1.00  0.00    -0.255 C  
HETATM    5  C   UNL     1      -6.289  21.056  65.870  1.00  0.00    -0.240 C  
HETATM    6  C   UNL     1      -6.940  19.772  65.386  1.00  0.00    -0.298 C  
HETATM    7  C   UNL     1      -7.676  19.200  66.611  1.00  0.00    -0.251 C  
BRANCH   7   8
HETATM    8  C   UNL     1      -9.198  19.083  66.374  1.00  0.00    -0.334 C  
BRANCH   8   9
HETATM    9  N   UNL     1      -9.754  17.777  66.710  1.00  0.00    -0.295 N  
HETATM   10  C   UNL     1     -10.382  17.533  67.918  1.00  0.00    -0.371 C  
HETATM   11  H   UNL     1      -9.677  17.019  66.032  1.00  0.00     0.000 HD 
HETATM   12  O   UNL     1     -10.505  18.389  68.784  1.00  0.00    -0.270 OA 
BRANCH  10  13
HETATM   13  C   UNL     1     -10.874  16.138  68.136  1.00  0.00    -0.329 A  
HETATM   14  C   UNL     1     -10.741  15.231  67.063  1.00  0.00    -0.313 A  
HETATM   15  C   UNL     1     -11.063  13.878  67.228  1.00  0.00    -0.299 A  
HETATM   16  C   UNL     1     -11.341  15.660  69.375  1.00  0.00    -0.330 A  
HETATM   17  C   UNL     1     -11.519  13.403  68.451  1.00  0.00    -0.351 A  
HETATM   18  C   UNL     1     -11.643  14.292  69.518  1.00  0.00    -0.353 A  
BRANCH  15  19
HETATM   19  S   UNL     1     -10.976  12.781  65.827  1.00  0.00    -0.284 S  
HETATM   20  O   UNL     1     -12.180  11.975  65.856  1.00  0.00    -0.531 OA 
HETATM   21  O   UNL     1      -9.667  12.158  65.859  1.00  0.00    -0.241 OA 
BRANCH  19  22
HETATM   22  C   UNL     1     -11.054  13.862  64.413  1.00  0.00    -0.319 C  
HETATM   23  C   UNL     1     -12.246  13.527  63.533  1.00  0.00    -0.410 C  
ENDBRANCH  19  22
ENDBRANCH  15  19
BRANCH  16  24
HETATM   24  O   UNL     1     -11.486  16.352  70.547  1.00  0.00    -0.328 OA 
HETATM   25  C   UNL     1     -12.280  15.748  71.561  1.00  0.00    -0.453 C  
ENDBRANCH  16  24
ENDBRANCH  10  13
ENDBRANCH   8   9
ENDBRANCH   7   8
ENDBRANCH   2   3
TORSDOF 7
ENDMDL
MODEL       59
REMARK 921   NORMALIZED FREE ENERGY PREDICTED BY IDOCK:   -5.46 KCAL/MOL
REMARK 922        TOTAL FREE ENERGY PREDICTED BY IDOCK:   -8.56 KCAL/MOL
REMARK 923 INTER-LIGAND FREE ENERGY PREDICTED BY IDOCK:   -7.71 KCAL/MOL
REMARK 924 INTRA-LIGAND FREE ENERGY PREDICTED BY IDOCK:   -0.85 KCAL/MOL
REMARK 927      BINDING AFFINITY PREDICTED BY RF-SCORE:    0.00 PKD
ROOT
HETATM    1  C   UNL     1      -9.846  11.255  63.499  1.00  0.00    -0.394 C  
HETATM    2  C   UNL     1      -8.882  10.311  64.209  1.00  0.00    -0.215 C  
ENDROOT
BRANCH   2   3
HETATM    3  N   UNL     1      -9.302  10.009  65.582  1.00  0.00    -0.187 NA 
HETATM    4  C   UNL     1      -9.240   8.578  65.893  1.00  0.00    -0.182 C  
HETATM    5  C   UNL     1      -9.298   8.570  67.405  1.00  0.00    -0.178 C  
HETATM    6  C   UNL     1      -8.430   9.753  67.799  1.00  0.00    -0.121 C  
HETATM    7  C   UNL     1      -8.464  10.705  66.590  1.00  0.00    -0.137 C  
BRANCH   7   8
HETATM    8  C   UNL     1      -9.061  12.084  66.951  1.00  0.00    -0.196 C  
BRANCH   8   9
HETATM    9  N   UNL     1      -9.789  12.105  68.215  1.00  0.00    -0.210 N  
HETATM   10  C   UNL     1     -11.128  11.768  68.299  1.00  0.00    -0.240 C  
HETATM   11  H   UNL     1      -9.293  12.376  69.065  1.00  0.00     0.000 HD 
HETATM   12  O   UNL     1     -11.790  11.442  67.323  1.00  0.00    -0.594 OA 
BRANCH  10  13
HETATM   13  C   UNL     1     -11.749  11.866  69.655  1.00  0.00    -0.413 A  
HETATM   14  C   UNL     1     -12.188  13.141  70.074  1.00  0.00    -0.323 A  
HETATM   15  C   UNL     1     -12.890  13.295  71.276  1.00  0.00    -0.312 A  
HETATM   16  C   UNL     1     -12.024  10.752  70.471  1.00  0.00    -0.361 A  
HETATM   17  C   UNL     1     -13.167  12.196  72.080  1.00  0.00    -0.496 A  
HETATM   18  C   UNL     1     -12.744  10.933  71.666  1.00  0.00    -0.498 A  
BRANCH  15  19
HETATM   19  S   UNL     1     -13.344  14.928  71.821  1.00  0.00    -0.401 S  
HETATM   20  O   UNL     1     -14.410  14.762  72.789  1.00  0.00    -0.341 OA 
HETATM   21  O   UNL     1     -13.543  15.731  70.631  1.00  0.00    -0.394 OA 
BRANCH  19  22
HETATM   22  C   UNL     1     -11.898  15.528  72.673  1.00  0.00    -0.471 C  
HETATM   23  C   UNL     1     -12.281  16.426  73.837  1.00  0.00    -0.545 C  
ENDBRANCH  19  22
ENDBRANCH  15  19
BRANCH  16  24
HETATM   24  O   UNL     1     -11.741   9.436  70.225  1.00  0.00    -0.206 OA 
HETATM   25  C   UNL     1     -11.412   8.624  71.345  1.00  0.00    -0.289 C  
ENDBRANCH  16  24
ENDBRANCH  10  13
ENDBRANCH   8   9
ENDBRANCH   7   8
ENDBRANCH   2   3
TORSDOF 7
ENDMDL
MODEL       60
REMARK 921   NORMALIZED FREE ENERGY PREDICTED BY IDOCK:   -5.45 KCAL/MOL
REMARK 922        TOTAL FREE ENERGY PREDICTED BY IDOCK:   -8.55 KCAL/MOL
REMARK 923 INTER-LIGAND FREE ENERGY PREDICTED BY IDOCK:   -7.87 KCAL/MOL
REMARK 924 INTRA-LIGAND FREE ENERGY PREDICTED BY IDOCK:   -0.69 KCAL/MOL
REMARK 927      BINDING AFFINITY PREDICTED BY RF-SCORE:    0.00 PKD
ROOT
HETATM    1  C   UNL     1     -13.087  11.473  71.752  1.00  0.00    -0.503 C  
HETATM    2  C   UNL     1     -12.587  12.582  70.832  1.00  0.00    -0.241 C  
ENDROOT
BRANCH   2   3
HETATM    3  N   UNL     1     -13.042  13.911  71.259  1.00  0.00    -0.330 NA 
HETATM    4  C   UNL     1     -13.347  13.974  72.690  1.00  0.00    -0.543 C  
HETATM    5  C   UNL     1     -13.374  15.463  72.953  1.00  0.00    -0.636 C  
HETATM    6  C   UNL     1     -12.221  15.991  72.117  1.00  0.00    -0.597 C  
HETATM    7  C   UNL     1     -12.032  14.963  70.987  1.00  0.00    -0.320 C  
BRANCH   7   8
HETATM    8  C   UNL     1     -12.242  15.587  69.589  1.00  0.00    -0.270 C  
BRANCH   8   9
HETATM    9  N   UNL     1     -12.100  14.641  68.488  1.00  0.00    -0.573 N  
HETATM   10  C   UNL     1     -11.052  14.711  67.587  1.00  0.00    -0.304 C  
HETATM   11  H   UNL     1     -12.797  13.904  68.378  1.00  0.00     0.000 HD 
HETATM   12  O   UNL     1     -10.185  15.572  67.649  1.00  0.00    -0.248 OA 
BRANCH  10  13
HETATM   13  C   UNL     1     -11.055  13.694  66.492  1.00  0.00    -0.310 A  
HETATM   14  C   UNL     1     -10.536  12.416  66.795  1.00  0.00    -0.250 A  
HETATM   15  C   UNL     1     -10.616  11.374  65.863  1.00  0.00    -0.263 A  
HETATM   16  C   UNL     1     -11.648  13.905  65.233  1.00  0.00    -0.327 A  
HETATM   17  C   UNL     1     -11.206  11.578  64.622  1.00  0.00    -0.276 A  
HETATM   18  C   UNL     1     -11.729  12.836  64.320  1.00  0.00    -0.443 A  
BRANCH  15  19
HETATM   19  S   UNL     1      -9.867   9.803  66.241  1.00  0.00    -0.264 S  
HETATM   20  O   UNL     1      -9.448   9.229  64.978  1.00  0.00    -0.209 OA 
HETATM   21  O   UNL     1     -10.786   9.094  67.108  1.00  0.00    -0.212 OA 
BRANCH  19  22
HETATM   22  C   UNL     1      -8.411  10.222  67.179  1.00  0.00    -0.125 C  
HETATM   23  C   UNL     1      -7.267  10.625  66.265  1.00  0.00    -0.137 C  
ENDBRANCH  19  22
ENDBRANCH  15  19
BRANCH  16  24
HETATM   24  O   UNL     1     -12.257  15.038  64.765  1.00  0.00    -0.331 OA 
HETATM   25  C   UNL     1     -11.412  16.060  64.249  1.00  0.00    -0.157 C  
ENDBRANCH  16  24
ENDBRANCH  10  13
ENDBRANCH   8   9
ENDBRANCH   7   8
ENDBRANCH   2   3
TORSDOF 7
ENDMDL
MODEL       61
REMARK 921   NORMALIZED FREE ENERGY PREDICTED BY IDOCK:   -5.44 KCAL/MOL
REMARK 922        TOTAL FREE ENERGY PREDICTED BY IDOCK:   -8.53 KCAL/MOL
REMARK 923 INTER-LIGAND FREE ENERGY PREDICTED BY IDOCK:   -7.48 KCAL/MOL
REMARK 924 INTRA-LIGAND FREE ENERGY PREDICTED BY IDOCK:   -1.06 KCAL/MOL
REMARK 927      BINDING AFFINITY PREDICTED BY RF-SCORE:    0.00 PKD
ROOT
HETATM    1  C   UNL     1     -10.373  17.902  65.950  1.00  0.00    -0.259 C  
HETATM    2  C   UNL     1     -10.302  16.381  66.034  1.00  0.00    -0.352 C  
ENDROOT
BRANCH   2   3
HETATM    3  N   UNL     1     -10.356  15.893  67.417  1.00  0.00    -0.282 NA 
HETATM    4  C   UNL     1     -10.330  16.977  68.403  1.00  0.00    -0.351 C  
HETATM    5  C   UNL     1     -10.808  16.285  69.661  1.00  0.00    -0.345 C  
HETATM    6  C   UNL     1     -11.910  15.366  69.162  1.00  0.00    -0.357 C  
HETATM    7  C   UNL     1     -11.581  15.098  67.683  1.00  0.00    -0.277 C  
BRANCH   7   8
HETATM    8  C   UNL     1     -11.342  13.598  67.401  1.00  0.00    -0.315 C  
BRANCH   8   9
HETATM    9  N   UNL     1     -11.854  12.709  68.438  1.00  0.00    -0.322 N  
HETATM   10  C   UNL     1     -11.083  11.702  68.992  1.00  0.00    -0.241 C  
HETATM   11  H   UNL     1     -12.811  12.835  68.767  1.00  0.00     0.000 HD 
HETATM   12  O   UNL     1      -9.930  11.485  68.643  1.00  0.00    -0.210 OA 
BRANCH  10  13
HETATM   13  C   UNL     1     -11.752  10.850  70.022  1.00  0.00    -0.427 A  
HETATM   14  C   UNL     1     -11.309   9.514  70.142  1.00  0.00    -0.241 A  
HETATM   15  C   UNL     1     -11.797   8.690  71.163  1.00  0.00    -0.287 A  
HETATM   16  C   UNL     1     -12.698  11.336  70.943  1.00  0.00    -0.318 A  
HETATM   17  C   UNL     1     -12.726   9.170  72.077  1.00  0.00    -0.473 A  
HETATM   18  C   UNL     1     -13.160  10.491  71.970  1.00  0.00    -0.511 A  
BRANCH  15  19
HETATM   19  S   UNL     1     -11.291   6.983  71.227  1.00  0.00    -0.290 S  
HETATM   20  O   UNL     1     -12.378   6.251  71.844  1.00  0.00    -0.312 OA 
HETATM   21  O   UNL     1      -9.960   6.959  71.801  1.00  0.00    -0.175 OA 
BRANCH  19  22
HETATM   22  C   UNL     1     -11.179   6.491  69.518  1.00  0.00    -0.372 C  
HETATM   23  C   UNL     1      -9.805   5.928  69.199  1.00  0.00    -0.199 C  
ENDBRANCH  19  22
ENDBRANCH  15  19
BRANCH  16  24
HETATM   24  O   UNL     1     -13.209  12.602  71.040  1.00  0.00    -0.050 OA 
HETATM   25  C   UNL     1     -13.680  13.015  72.317  1.00  0.00    -0.512 C  
ENDBRANCH  16  24
ENDBRANCH  10  13
ENDBRANCH   8   9
ENDBRANCH   7   8
ENDBRANCH   2   3
TORSDOF 7
ENDMDL
MODEL       62
REMARK 921   NORMALIZED FREE ENERGY PREDICTED BY IDOCK:   -5.44 KCAL/MOL
REMARK 922        TOTAL FREE ENERGY PREDICTED BY IDOCK:   -8.53 KCAL/MOL
REMARK 923 INTER-LIGAND FREE ENERGY PREDICTED BY IDOCK:   -7.59 KCAL/MOL
REMARK 924 INTRA-LIGAND FREE ENERGY PREDICTED BY IDOCK:   -0.94 KCAL/MOL
REMARK 927      BINDING AFFINITY PREDICTED BY RF-SCORE:    0.00 PKD
ROOT
HETATM    1  C   UNL     1     -14.207   7.724  71.714  1.00  0.00    -0.558 C  
HETATM    2  C   UNL     1     -13.961   9.209  71.468  1.00  0.00    -0.244 C  
ENDROOT
BRANCH   2   3
HETATM    3  N   UNL     1     -12.555   9.583  71.660  1.00  0.00    -0.361 NA 
HETATM    4  C   UNL     1     -11.726   8.463  72.112  1.00  0.00    -0.375 C  
HETATM    5  C   UNL     1     -10.325   8.961  71.834  1.00  0.00    -0.407 C  
HETATM    6  C   UNL     1     -10.461   9.674  70.500  1.00  0.00    -0.367 C  
HETATM    7  C   UNL     1     -11.938  10.100  70.413  1.00  0.00    -0.267 C  
BRANCH   7   8
HETATM    8  C   UNL     1     -12.097  11.633  70.309  1.00  0.00    -0.358 C  
BRANCH   8   9
HETATM    9  N   UNL     1     -10.989  12.302  69.635  1.00  0.00    -0.462 N  
HETATM   10  C   UNL     1     -11.164  13.466  68.909  1.00  0.00    -0.276 C  
HETATM   11  H   UNL     1     -10.055  11.897  69.703  1.00  0.00     0.000 HD 
HETATM   12  O   UNL     1     -12.255  14.005  68.776  1.00  0.00    -0.337 OA 
BRANCH  10  13
HETATM   13  C   UNL     1      -9.944  14.020  68.247  1.00  0.00    -0.236 A  
HETATM   14  C   UNL     1      -9.885  15.420  68.067  1.00  0.00    -0.216 A  
HETATM   15  C   UNL     1      -8.726  16.027  67.569  1.00  0.00    -0.182 A  
HETATM   16  C   UNL     1      -8.818  13.245  67.911  1.00  0.00    -0.192 A  
HETATM   17  C   UNL     1      -7.612  15.265  67.242  1.00  0.00    -0.244 A  
HETATM   18  C   UNL     1      -7.660  13.883  67.426  1.00  0.00    -0.160 A  
BRANCH  15  19
HETATM   19  S   UNL     1      -8.720  17.782  67.264  1.00  0.00    -0.241 S  
HETATM   20  O   UNL     1      -8.334  17.961  65.879  1.00  0.00    -0.521 OA 
HETATM   21  O   UNL     1      -7.953  18.394  68.332  1.00  0.00    -0.290 OA 
BRANCH  19  22
HETATM   22  C   UNL     1     -10.425  18.267  67.441  1.00  0.00    -0.409 C  
HETATM   23  C   UNL     1     -10.623  19.723  67.055  1.00  0.00    -0.586 C  
ENDBRANCH  19  22
ENDBRANCH  15  19
BRANCH  16  24
HETATM   24  O   UNL     1      -8.646  11.896  68.061  1.00  0.00    -0.152 OA 
HETATM   25  C   UNL     1      -7.739  11.255  67.171  1.00  0.00    -0.147 C  
ENDBRANCH  16  24
ENDBRANCH  10  13
ENDBRANCH   8   9
ENDBRANCH   7   8
ENDBRANCH   2   3
TORSDOF 7
ENDMDL
MODEL       63
REMARK 921   NORMALIZED FREE ENERGY PREDICTED BY IDOCK:   -5.42 KCAL/MOL
REMARK 922        TOTAL FREE ENERGY PREDICTED BY IDOCK:   -8.50 KCAL/MOL
REMARK 923 INTER-LIGAND FREE ENERGY PREDICTED BY IDOCK:   -7.96 KCAL/MOL
REMARK 924 INTRA-LIGAND FREE ENERGY PREDICTED BY IDOCK:   -0.55 KCAL/MOL
REMARK 927      BINDING AFFINITY PREDICTED BY RF-SCORE:    0.00 PKD
ROOT
HETATM    1  C   UNL     1     -11.915  13.724  67.216  1.00  0.00    -0.436 C  
HETATM    2  C   UNL     1     -11.551  12.266  66.954  1.00  0.00    -0.361 C  
ENDROOT
BRANCH   2   3
HETATM    3  N   UNL     1     -11.692  11.898  65.541  1.00  0.00    -0.338 NA 
HETATM    4  C   UNL     1     -12.531  12.837  64.791  1.00  0.00    -0.472 C  
HETATM    5  C   UNL     1     -12.188  12.506  63.355  1.00  0.00    -0.613 C  
HETATM    6  C   UNL     1     -10.690  12.262  63.396  1.00  0.00    -0.438 C  
HETATM    7  C   UNL     1     -10.384  11.837  64.843  1.00  0.00    -0.289 C  
BRANCH   7   8
HETATM    8  C   UNL     1      -9.780  10.417  64.919  1.00  0.00    -0.309 C  
BRANCH   8   9
HETATM    9  N   UNL     1     -10.145   9.679  66.124  1.00  0.00    -0.277 N  
HETATM   10  C   UNL     1      -9.627   8.427  66.406  1.00  0.00    -0.237 C  
HETATM   11  H   UNL     1     -10.802  10.100  66.780  1.00  0.00     0.000 HD 
HETATM   12  O   UNL     1      -8.841   7.855  65.663  1.00  0.00    -0.155 OA 
BRANCH  10  13
HETATM   13  C   UNL     1     -10.116   7.778  67.660  1.00  0.00    -0.254 A  
HETATM   14  C   UNL     1     -10.227   8.593  68.809  1.00  0.00    -0.224 A  
HETATM   15  C   UNL     1     -10.792   8.091  69.987  1.00  0.00    -0.235 A  
HETATM   16  C   UNL     1     -10.579   6.451  67.723  1.00  0.00    -0.266 A  
HETATM   17  C   UNL     1     -11.255   6.783  70.050  1.00  0.00    -0.380 A  
HETATM   18  C   UNL     1     -11.158   5.976  68.915  1.00  0.00    -0.349 A  
BRANCH  15  19
HETATM   19  S   UNL     1     -10.828   9.114  71.445  1.00  0.00    -0.371 S  
HETATM   20  O   UNL     1     -11.348  10.403  71.034  1.00  0.00    -0.306 OA 
HETATM   21  O   UNL     1      -9.524   9.006  72.069  1.00  0.00    -0.339 OA 
BRANCH  19  22
HETATM   22  C   UNL     1     -12.030   8.333  72.504  1.00  0.00    -0.356 C  
HETATM   23  C   UNL     1     -13.408   8.942  72.311  1.00  0.00    -0.497 C  
ENDBRANCH  19  22
ENDBRANCH  15  19
BRANCH  16  24
HETATM   24  O   UNL     1     -10.619   5.522  66.718  1.00  0.00    -0.264 OA 
HETATM   25  C   UNL     1      -9.654   4.477  66.764  1.00  0.00    -0.190 C  
ENDBRANCH  16  24
ENDBRANCH  10  13
ENDBRANCH   8   9
ENDBRANCH   7   8
ENDBRANCH   2   3
TORSDOF 7
ENDMDL
MODEL       64
REMARK 921   NORMALIZED FREE ENERGY PREDICTED BY IDOCK:   -5.39 KCAL/MOL
REMARK 922        TOTAL FREE ENERGY PREDICTED BY IDOCK:   -8.47 KCAL/MOL
REMARK 923 INTER-LIGAND FREE ENERGY PREDICTED BY IDOCK:   -7.68 KCAL/MOL
REMARK 924 INTRA-LIGAND FREE ENERGY PREDICTED BY IDOCK:   -0.79 KCAL/MOL
REMARK 927      BINDING AFFINITY PREDICTED BY RF-SCORE:    0.00 PKD
ROOT
HETATM    1  C   UNL     1      -9.697   8.094  72.259  1.00  0.00    -0.322 C  
HETATM    2  C   UNL     1     -10.241   8.088  70.835  1.00  0.00    -0.192 C  
ENDROOT
BRANCH   2   3
HETATM    3  N   UNL     1     -11.488   8.852  70.707  1.00  0.00    -0.277 NA 
HETATM    4  C   UNL     1     -12.193   9.003  71.983  1.00  0.00    -0.375 C  
HETATM    5  C   UNL     1     -13.161  10.128  71.689  1.00  0.00    -0.550 C  
HETATM    6  C   UNL     1     -12.343  11.085  70.839  1.00  0.00    -0.503 C  
HETATM    7  C   UNL     1     -11.256  10.218  70.178  1.00  0.00    -0.318 C  
BRANCH   7   8
HETATM    8  C   UNL     1     -11.350  10.240  68.636  1.00  0.00    -0.166 C  
BRANCH   8   9
HETATM    9  N   UNL     1     -11.255  11.574  68.054  1.00  0.00    -0.246 N  
HETATM   10  C   UNL     1     -10.319  11.890  67.085  1.00  0.00    -0.210 C  
HETATM   11  H   UNL     1     -11.900  12.298  68.371  1.00  0.00     0.000 HD 
HETATM   12  O   UNL     1      -9.507  11.078  66.662  1.00  0.00    -0.179 OA 
BRANCH  10  13
HETATM   13  C   UNL     1     -10.319  13.305  66.604  1.00  0.00    -0.274 A  
HETATM   14  C   UNL     1      -9.985  14.307  67.542  1.00  0.00    -0.235 A  
HETATM   15  C   UNL     1      -9.842  15.641  67.141  1.00  0.00    -0.229 A  
HETATM   16  C   UNL     1     -10.512  13.673  65.259  1.00  0.00    -0.351 A  
HETATM   17  C   UNL     1     -10.027  16.005  65.813  1.00  0.00    -0.382 A  
HETATM   18  C   UNL     1     -10.347  15.018  64.880  1.00  0.00    -0.317 A  
BRANCH  15  19
HETATM   19  S   UNL     1      -9.516  16.892  68.366  1.00  0.00    -0.267 S  
HETATM   20  O   UNL     1      -8.293  16.504  69.040  1.00  0.00    -0.235 OA 
HETATM   21  O   UNL     1     -10.744  17.083  69.112  1.00  0.00    -0.324 OA 
BRANCH  19  22
HETATM   22  C   UNL     1      -9.194  18.365  67.417  1.00  0.00    -0.271 C  
HETATM   23  C   UNL     1     -10.310  19.381  67.587  1.00  0.00    -0.550 C  
ENDBRANCH  19  22
ENDBRANCH  15  19
BRANCH  16  24
HETATM   24  O   UNL     1     -10.780  12.859  64.192  1.00  0.00    -0.376 OA 
HETATM   25  C   UNL     1     -12.067  12.976  63.596  1.00  0.00    -0.531 C  
ENDBRANCH  16  24
ENDBRANCH  10  13
ENDBRANCH   8   9
ENDBRANCH   7   8
ENDBRANCH   2   3
TORSDOF 7
ENDMDL
MODEL       65
REMARK 921   NORMALIZED FREE ENERGY PREDICTED BY IDOCK:   -5.39 KCAL/MOL
REMARK 922        TOTAL FREE ENERGY PREDICTED BY IDOCK:   -8.47 KCAL/MOL
REMARK 923 INTER-LIGAND FREE ENERGY PREDICTED BY IDOCK:   -7.27 KCAL/MOL
REMARK 924 INTRA-LIGAND FREE ENERGY PREDICTED BY IDOCK:   -1.20 KCAL/MOL
REMARK 927      BINDING AFFINITY PREDICTED BY RF-SCORE:    0.00 PKD
ROOT
HETATM    1  C   UNL     1     -10.643  10.655  69.358  1.00  0.00    -0.270 C  
HETATM    2  C   UNL     1     -11.517  10.972  68.149  1.00  0.00    -0.302 C  
ENDROOT
BRANCH   2   3
HETATM    3  N   UNL     1     -10.755  11.575  67.049  1.00  0.00    -0.245 NA 
HETATM    4  C   UNL     1      -9.498  10.872  66.777  1.00  0.00    -0.177 C  
HETATM    5  C   UNL     1      -9.128  11.387  65.403  1.00  0.00    -0.115 C  
HETATM    6  C   UNL     1     -10.460  11.444  64.676  1.00  0.00    -0.373 C  
HETATM    7  C   UNL     1     -11.522  11.593  65.779  1.00  0.00    -0.108 C  
BRANCH   7   8
HETATM    8  C   UNL     1     -12.331  12.902  65.637  1.00  0.00    -0.423 C  
BRANCH   8   9
HETATM    9  N   UNL     1     -11.845  13.994  66.473  1.00  0.00    -0.397 N  
HETATM   10  C   UNL     1     -11.048  15.008  65.971  1.00  0.00    -0.329 C  
HETATM   11  H   UNL     1     -12.102  14.012  67.460  1.00  0.00     0.000 HD 
HETATM   12  O   UNL     1     -10.691  15.049  64.801  1.00  0.00    -0.404 OA 
BRANCH  10  13
HETATM   13  C   UNL     1     -10.599  16.042  66.952  1.00  0.00    -0.300 A  
HETATM   14  C   UNL     1     -10.252  17.311  66.440  1.00  0.00    -0.333 A  
HETATM   15  C   UNL     1      -9.942  18.369  67.304  1.00  0.00    -0.335 A  
HETATM   16  C   UNL     1     -10.621  15.856  68.347  1.00  0.00    -0.266 A  
HETATM   17  C   UNL     1      -9.969  18.190  68.681  1.00  0.00    -0.409 A  
HETATM   18  C   UNL     1     -10.320  16.940  69.193  1.00  0.00    -0.319 A  
BRANCH  15  19
HETATM   19  S   UNL     1      -9.416  19.928  66.623  1.00  0.00    -0.424 S  
HETATM   20  O   UNL     1      -9.852  20.954  67.550  1.00  0.00    -0.414 OA 
HETATM   21  O   UNL     1      -9.843  19.951  65.238  1.00  0.00    -0.129 OA 
BRANCH  19  22
HETATM   22  C   UNL     1      -7.636  19.851  66.665  1.00  0.00    -0.269 C  
HETATM   23  C   UNL     1      -7.053  21.046  67.399  1.00  0.00    -0.393 C  
ENDBRANCH  19  22
ENDBRANCH  15  19
BRANCH  16  24
HETATM   24  O   UNL     1     -10.983  14.735  69.044  1.00  0.00    -0.230 OA 
HETATM   25  C   UNL     1     -11.847  14.917  70.160  1.00  0.00    -0.308 C  
ENDBRANCH  16  24
ENDBRANCH  10  13
ENDBRANCH   8   9
ENDBRANCH   7   8
ENDBRANCH   2   3
TORSDOF 7
ENDMDL
MODEL       66
REMARK 921   NORMALIZED FREE ENERGY PREDICTED BY IDOCK:   -5.38 KCAL/MOL
REMARK 922        TOTAL FREE ENERGY PREDICTED BY IDOCK:   -8.44 KCAL/MOL
REMARK 923 INTER-LIGAND FREE ENERGY PREDICTED BY IDOCK:   -7.65 KCAL/MOL
REMARK 924 INTRA-LIGAND FREE ENERGY PREDICTED BY IDOCK:   -0.80 KCAL/MOL
REMARK 927      BINDING AFFINITY PREDICTED BY RF-SCORE:    0.00 PKD
ROOT
HETATM    1  C   UNL     1      -9.802  17.171  68.828  1.00  0.00    -0.293 C  
HETATM    2  C   UNL     1     -11.154  16.467  68.886  1.00  0.00    -0.328 C  
ENDROOT
BRANCH   2   3
HETATM    3  N   UNL     1     -11.254  15.536  70.016  1.00  0.00    -0.285 NA 
HETATM    4  C   UNL     1     -11.763  16.175  71.233  1.00  0.00    -0.425 C  
HETATM    5  C   UNL     1     -12.163  14.988  72.081  1.00  0.00    -0.446 C  
HETATM    6  C   UNL     1     -12.783  14.029  71.078  1.00  0.00    -0.431 C  
HETATM    7  C   UNL     1     -12.151  14.392  69.723  1.00  0.00    -0.334 C  
BRANCH   7   8
HETATM    8  C   UNL     1     -11.363  13.211  69.113  1.00  0.00    -0.281 C  
BRANCH   8   9
HETATM    9  N   UNL     1     -11.190  12.080  70.018  1.00  0.00    -0.475 N  
HETATM   10  C   UNL     1     -11.253  10.769  69.580  1.00  0.00    -0.281 C  
HETATM   11  H   UNL     1     -11.017  12.262  71.007  1.00  0.00     0.000 HD 
HETATM   12  O   UNL     1     -11.466  10.473  68.412  1.00  0.00    -0.285 OA 
BRANCH  10  13
HETATM   13  C   UNL     1     -11.090   9.715  70.626  1.00  0.00    -0.384 A  
HETATM   14  C   UNL     1      -9.772   9.328  70.953  1.00  0.00    -0.346 A  
HETATM   15  C   UNL     1      -9.530   8.438  72.007  1.00  0.00    -0.268 A  
HETATM   16  C   UNL     1     -12.157   9.186  71.375  1.00  0.00    -0.337 A  
HETATM   17  C   UNL     1     -10.582   7.919  72.751  1.00  0.00    -0.418 A  
HETATM   18  C   UNL     1     -11.885   8.306  72.439  1.00  0.00    -0.461 A  
BRANCH  15  19
HETATM   19  S   UNL     1      -7.864   7.897  72.330  1.00  0.00    -0.122 S  
HETATM   20  O   UNL     1      -6.988   8.968  71.898  1.00  0.00    -0.274 OA 
HETATM   21  O   UNL     1      -7.737   6.565  71.771  1.00  0.00    -0.093 OA 
BRANCH  19  22
HETATM   22  C   UNL     1      -7.774   7.776  74.105  1.00  0.00    -0.175 C  
HETATM   23  C   UNL     1      -7.256   6.416  74.537  1.00  0.00    -0.100 C  
ENDBRANCH  19  22
ENDBRANCH  15  19
BRANCH  16  24
HETATM   24  O   UNL     1     -13.491   9.472  71.263  1.00  0.00    -0.370 OA 
HETATM   25  C   UNL     1     -14.406   8.507  71.769  1.00  0.00    -0.437 C  
ENDBRANCH  16  24
ENDBRANCH  10  13
ENDBRANCH   8   9
ENDBRANCH   7   8
ENDBRANCH   2   3
TORSDOF 7
ENDMDL
MODEL       67
REMARK 921   NORMALIZED FREE ENERGY PREDICTED BY IDOCK:   -5.38 KCAL/MOL
REMARK 922        TOTAL FREE ENERGY PREDICTED BY IDOCK:   -8.44 KCAL/MOL
REMARK 923 INTER-LIGAND FREE ENERGY PREDICTED BY IDOCK:   -7.85 KCAL/MOL
REMARK 924 INTRA-LIGAND FREE ENERGY PREDICTED BY IDOCK:   -0.60 KCAL/MOL
REMARK 927      BINDING AFFINITY PREDICTED BY RF-SCORE:    0.00 PKD
ROOT
HETATM    1  C   UNL     1     -11.705  15.634  68.870  1.00  0.00    -0.396 C  
HETATM    2  C   UNL     1     -12.150  14.384  69.621  1.00  0.00    -0.334 C  
ENDROOT
BRANCH   2   3
HETATM    3  N   UNL     1     -12.106  14.559  71.078  1.00  0.00    -0.327 NA 
HETATM    4  C   UNL     1     -11.639  15.890  71.475  1.00  0.00    -0.465 C  
HETATM    5  C   UNL     1     -12.071  15.968  72.922  1.00  0.00    -0.626 C  
HETATM    6  C   UNL     1     -13.439  15.309  72.920  1.00  0.00    -0.611 C  
HETATM    7  C   UNL     1     -13.435  14.363  71.707  1.00  0.00    -0.373 C  
BRANCH   7   8
HETATM    8  C   UNL     1     -13.643  12.888  72.117  1.00  0.00    -0.495 C  
BRANCH   8   9
HETATM    9  N   UNL     1     -12.665  11.968  71.546  1.00  0.00    -0.309 N  
HETATM   10  C   UNL     1     -12.875  10.601  71.507  1.00  0.00    -0.462 C  
HETATM   11  H   UNL     1     -11.799  12.346  71.162  1.00  0.00     0.000 HD 
HETATM   12  O   UNL     1     -13.884  10.075  71.955  1.00  0.00    -0.228 OA 
BRANCH  10  13
HETATM   13  C   UNL     1     -11.771   9.781  70.922  1.00  0.00    -0.429 A  
HETATM   14  C   UNL     1     -11.261  10.184  69.668  1.00  0.00    -0.310 A  
HETATM   15  C   UNL     1     -10.147   9.544  69.112  1.00  0.00    -0.195 A  
HETATM   16  C   UNL     1     -11.144   8.718  71.599  1.00  0.00    -0.327 A  
HETATM   17  C   UNL     1      -9.523   8.499  69.781  1.00  0.00    -0.166 A  
HETATM   18  C   UNL     1     -10.017   8.102  71.024  1.00  0.00    -0.220 A  
BRANCH  15  19
HETATM   19  S   UNL     1      -9.589  10.014  67.487  1.00  0.00    -0.156 S  
HETATM   20  O   UNL     1      -9.940  11.409  67.315  1.00  0.00    -0.191 OA 
HETATM   21  O   UNL     1     -10.078   9.008  66.565  1.00  0.00    -0.272 OA 
BRANCH  19  22
HETATM   22  C   UNL     1      -7.814   9.886  67.575  1.00  0.00    -0.098 C  
HETATM   23  C   UNL     1      -7.283   8.914  66.536  1.00  0.00    -0.085 C  
ENDBRANCH  19  22
ENDBRANCH  15  19
BRANCH  16  24
HETATM   24  O   UNL     1     -11.440   8.214  72.837  1.00  0.00    -0.389 OA 
HETATM   25  C   UNL     1     -10.596   7.183  73.335  1.00  0.00    -0.382 C  
ENDBRANCH  16  24
ENDBRANCH  10  13
ENDBRANCH   8   9
ENDBRANCH   7   8
ENDBRANCH   2   3
TORSDOF 7
ENDMDL
MODEL       68
REMARK 921   NORMALIZED FREE ENERGY PREDICTED BY IDOCK:   -5.37 KCAL/MOL
REMARK 922        TOTAL FREE ENERGY PREDICTED BY IDOCK:   -8.43 KCAL/MOL
REMARK 923 INTER-LIGAND FREE ENERGY PREDICTED BY IDOCK:   -7.11 KCAL/MOL
REMARK 924 INTRA-LIGAND FREE ENERGY PREDICTED BY IDOCK:   -1.32 KCAL/MOL
REMARK 927      BINDING AFFINITY PREDICTED BY RF-SCORE:    0.00 PKD
ROOT
HETATM    1  C   UNL     1     -10.218   6.666  69.953  1.00  0.00    -0.214 C  
HETATM    2  C   UNL     1     -10.952   7.994  70.112  1.00  0.00    -0.226 C  
ENDROOT
BRANCH   2   3
HETATM    3  N   UNL     1     -10.213   9.117  69.523  1.00  0.00    -0.196 NA 
HETATM    4  C   UNL     1      -9.055   9.518  70.327  1.00  0.00    -0.253 C  
HETATM    5  C   UNL     1      -8.255  10.353  69.352  1.00  0.00    -0.158 C  
HETATM    6  C   UNL     1      -8.392   9.596  68.042  1.00  0.00    -0.117 C  
HETATM    7  C   UNL     1      -9.706   8.803  68.164  1.00  0.00    -0.158 C  
BRANCH   7   8
HETATM    8  C   UNL     1     -10.732   9.205  67.082  1.00  0.00    -0.143 C  
BRANCH   8   9
HETATM    9  N   UNL     1     -10.615  10.588  66.635  1.00  0.00    -0.226 N  
HETATM   10  C   UNL     1     -11.368  11.608  67.189  1.00  0.00    -0.306 C  
HETATM   11  H   UNL     1      -9.955  10.811  65.889  1.00  0.00     0.000 HD 
HETATM   12  O   UNL     1     -12.185  11.416  68.079  1.00  0.00    -0.607 OA 
BRANCH  10  13
HETATM   13  C   UNL     1     -11.164  12.970  66.608  1.00  0.00    -0.341 A  
HETATM   14  C   UNL     1     -10.975  14.037  67.513  1.00  0.00    -0.288 A  
HETATM   15  C   UNL     1     -10.655  15.319  67.049  1.00  0.00    -0.306 A  
HETATM   16  C   UNL     1     -11.031  13.219  65.229  1.00  0.00    -0.291 A  
HETATM   17  C   UNL     1     -10.518  15.565  65.688  1.00  0.00    -0.393 A  
HETATM   18  C   UNL     1     -10.694  14.513  64.790  1.00  0.00    -0.414 A  
BRANCH  15  19
HETATM   19  S   UNL     1     -10.518  16.661  68.211  1.00  0.00    -0.339 S  
HETATM   20  O   UNL     1     -11.288  16.280  69.378  1.00  0.00    -0.324 OA 
HETATM   21  O   UNL     1     -10.824  17.880  67.487  1.00  0.00    -0.364 OA 
BRANCH  19  22
HETATM   22  C   UNL     1      -8.793  16.686  68.657  1.00  0.00    -0.249 C  
HETATM   23  C   UNL     1      -8.207  18.078  68.500  1.00  0.00    -0.311 C  
ENDBRANCH  19  22
ENDBRANCH  15  19
BRANCH  16  24
HETATM   24  O   UNL     1     -11.115  12.323  64.197  1.00  0.00    -0.313 OA 
HETATM   25  C   UNL     1     -12.385  12.170  63.574  1.00  0.00    -0.574 C  
ENDBRANCH  16  24
ENDBRANCH  10  13
ENDBRANCH   8   9
ENDBRANCH   7   8
ENDBRANCH   2   3
TORSDOF 7
ENDMDL
MODEL       69
REMARK 921   NORMALIZED FREE ENERGY PREDICTED BY IDOCK:   -5.36 KCAL/MOL
REMARK 922        TOTAL FREE ENERGY PREDICTED BY IDOCK:   -8.42 KCAL/MOL
REMARK 923 INTER-LIGAND FREE ENERGY PREDICTED BY IDOCK:   -7.19 KCAL/MOL
REMARK 924 INTRA-LIGAND FREE ENERGY PREDICTED BY IDOCK:   -1.24 KCAL/MOL
REMARK 927      BINDING AFFINITY PREDICTED BY RF-SCORE:    0.00 PKD
ROOT
HETATM    1  C   UNL     1      -7.112  20.987  67.204  1.00  0.00    -0.383 C  
HETATM    2  C   UNL     1      -7.347  19.850  68.192  1.00  0.00    -0.303 C  
ENDROOT
BRANCH   2   3
HETATM    3  N   UNL     1      -8.563  19.086  67.888  1.00  0.00    -0.293 NA 
HETATM    4  C   UNL     1      -9.790  19.822  68.205  1.00  0.00    -0.424 C  
HETATM    5  C   UNL     1     -10.841  19.046  67.443  1.00  0.00    -0.496 C  
HETATM    6  C   UNL     1     -10.150  18.702  66.136  1.00  0.00    -0.399 C  
HETATM    7  C   UNL     1      -8.644  18.709  66.455  1.00  0.00    -0.297 C  
BRANCH   7   8
HETATM    8  C   UNL     1      -7.988  17.333  66.205  1.00  0.00    -0.257 C  
BRANCH   8   9
HETATM    9  N   UNL     1      -8.912  16.208  66.298  1.00  0.00    -0.317 N  
HETATM   10  C   UNL     1      -8.538  14.991  66.841  1.00  0.00    -0.249 C  
HETATM   11  H   UNL     1      -9.865  16.322  65.953  1.00  0.00     0.000 HD 
HETATM   12  O   UNL     1      -7.411  14.776  67.266  1.00  0.00    -0.197 OA 
BRANCH  10  13
HETATM   13  C   UNL     1      -9.581  13.920  66.841  1.00  0.00    -0.271 A  
HETATM   14  C   UNL     1      -9.149  12.597  66.602  1.00  0.00    -0.193 A  
HETATM   15  C   UNL     1     -10.043  11.525  66.709  1.00  0.00    -0.215 A  
HETATM   16  C   UNL     1     -10.928  14.143  67.182  1.00  0.00    -0.299 A  
HETATM   17  C   UNL     1     -11.372  11.742  67.050  1.00  0.00    -0.387 A  
HETATM   18  C   UNL     1     -11.802  13.046  67.297  1.00  0.00    -0.419 A  
BRANCH  15  19
HETATM   19  S   UNL     1      -9.489   9.881  66.307  1.00  0.00    -0.208 S  
HETATM   20  O   UNL     1      -8.132   9.767  66.805  1.00  0.00    -0.118 OA 
HETATM   21  O   UNL     1      -9.783   9.666  64.903  1.00  0.00    -0.267 OA 
BRANCH  19  22
HETATM   22  C   UNL     1     -10.536   8.812  67.275  1.00  0.00    -0.283 C  
HETATM   23  C   UNL     1      -9.981   8.625  68.676  1.00  0.00    -0.197 C  
ENDBRANCH  19  22
ENDBRANCH  15  19
BRANCH  16  24
HETATM   24  O   UNL     1     -11.532  15.327  67.507  1.00  0.00    -0.333 OA 
HETATM   25  C   UNL     1     -11.613  15.655  68.889  1.00  0.00    -0.383 C  
ENDBRANCH  16  24
ENDBRANCH  10  13
ENDBRANCH   8   9
ENDBRANCH   7   8
ENDBRANCH   2   3
TORSDOF 7
ENDMDL
MODEL       70
REMARK 921   NORMALIZED FREE ENERGY PREDICTED BY IDOCK:   -5.32 KCAL/MOL
REMARK 922        TOTAL FREE ENERGY PREDICTED BY IDOCK:   -8.37 KCAL/MOL
REMARK 923 INTER-LIGAND FREE ENERGY PREDICTED BY IDOCK:   -7.67 KCAL/MOL
REMARK 924 INTRA-LIGAND FREE ENERGY PREDICTED BY IDOCK:   -0.70 KCAL/MOL
REMARK 927      BINDING AFFINITY PREDICTED BY RF-SCORE:    0.00 PKD
ROOT
HETATM    1  C   UNL     1     -10.429   7.546  73.057  1.00  0.00    -0.396 C  
HETATM    2  C   UNL     1     -10.765   8.296  71.772  1.00  0.00    -0.266 C  
ENDROOT
BRANCH   2   3
HETATM    3  N   UNL     1     -12.193   8.223  71.438  1.00  0.00    -0.297 NA 
HETATM    4  C   UNL     1     -12.787   6.926  71.769  1.00  0.00    -0.304 C  
HETATM    5  C   UNL     1     -14.269   7.229  71.739  1.00  0.00    -0.526 C  
HETATM    6  C   UNL     1     -14.362   8.603  72.379  1.00  0.00    -0.429 C  
HETATM    7  C   UNL     1     -12.987   9.255  72.149  1.00  0.00    -0.424 C  
BRANCH   7   8
HETATM    8  C   UNL     1     -13.089  10.551  71.313  1.00  0.00    -0.383 C  
BRANCH   8   9
HETATM    9  N   UNL     1     -12.416  10.479  70.021  1.00  0.00    -0.508 N  
HETATM   10  C   UNL     1     -11.831  11.587  69.433  1.00  0.00    -0.350 C  
HETATM   11  H   UNL     1     -12.375   9.583  69.536  1.00  0.00     0.000 HD 
HETATM   12  O   UNL     1     -11.848  12.695  69.950  1.00  0.00    -0.318 OA 
BRANCH  10  13
HETATM   13  C   UNL     1     -11.206  11.369  68.092  1.00  0.00    -0.343 A  
HETATM   14  C   UNL     1     -10.451  10.189  67.915  1.00  0.00    -0.265 A  
HETATM   15  C   UNL     1      -9.938   9.853  66.657  1.00  0.00    -0.217 A  
HETATM   16  C   UNL     1     -11.429  12.205  66.982  1.00  0.00    -0.350 A  
HETATM   17  C   UNL     1     -10.162  10.673  65.558  1.00  0.00    -0.329 A  
HETATM   18  C   UNL     1     -10.915  11.835  65.725  1.00  0.00    -0.353 A  
BRANCH  15  19
HETATM   19  S   UNL     1      -8.909   8.408  66.489  1.00  0.00    -0.156 S  
HETATM   20  O   UNL     1      -8.098   8.336  67.688  1.00  0.00    -0.122 OA 
HETATM   21  O   UNL     1      -8.291   8.479  65.180  1.00  0.00    -0.153 OA 
BRANCH  19  22
HETATM   22  C   UNL     1     -10.056   7.045  66.502  1.00  0.00    -0.079 C  
HETATM   23  C   UNL     1     -10.560   6.766  67.907  1.00  0.00    -0.296 C  
ENDBRANCH  19  22
ENDBRANCH  15  19
BRANCH  16  24
HETATM   24  O   UNL     1     -12.175  13.351  66.924  1.00  0.00    -0.365 OA 
HETATM   25  C   UNL     1     -12.222  14.030  65.675  1.00  0.00    -0.442 C  
ENDBRANCH  16  24
ENDBRANCH  10  13
ENDBRANCH   8   9
ENDBRANCH   7   8
ENDBRANCH   2   3
TORSDOF 7
ENDMDL
MODEL       71
REMARK 921   NORMALIZED FREE ENERGY PREDICTED BY IDOCK:   -5.32 KCAL/MOL
REMARK 922        TOTAL FREE ENERGY PREDICTED BY IDOCK:   -8.36 KCAL/MOL
REMARK 923 INTER-LIGAND FREE ENERGY PREDICTED BY IDOCK:   -7.33 KCAL/MOL
REMARK 924 INTRA-LIGAND FREE ENERGY PREDICTED BY IDOCK:   -1.04 KCAL/MOL
REMARK 927      BINDING AFFINITY PREDICTED BY RF-SCORE:    0.00 PKD
ROOT
HETATM    1  C   UNL     1      -6.461  20.584  67.605  1.00  0.00    -0.322 C  
HETATM    2  C   UNL     1      -6.822  19.272  68.293  1.00  0.00    -0.263 C  
ENDROOT
BRANCH   2   3
HETATM    3  N   UNL     1      -8.185  18.829  67.977  1.00  0.00    -0.283 NA 
HETATM    4  C   UNL     1      -9.204  19.809  68.363  1.00  0.00    -0.297 C  
HETATM    5  C   UNL     1     -10.415  19.344  67.585  1.00  0.00    -0.573 C  
HETATM    6  C   UNL     1      -9.836  18.927  66.244  1.00  0.00    -0.401 C  
HETATM    7  C   UNL     1      -8.367  18.568  66.527  1.00  0.00    -0.281 C  
BRANCH   7   8
HETATM    8  C   UNL     1      -8.051  17.094  66.185  1.00  0.00    -0.248 C  
BRANCH   8   9
HETATM    9  N   UNL     1      -9.022  16.141  66.709  1.00  0.00    -0.221 N  
HETATM   10  C   UNL     1      -8.639  14.994  67.382  1.00  0.00    -0.192 C  
HETATM   11  H   UNL     1     -10.016  16.325  66.575  1.00  0.00     0.000 HD 
HETATM   12  O   UNL     1      -7.466  14.701  67.573  1.00  0.00    -0.169 OA 
BRANCH  10  13
HETATM   13  C   UNL     1      -9.743  14.094  67.834  1.00  0.00    -0.224 A  
HETATM   14  C   UNL     1     -10.485  14.499  68.965  1.00  0.00    -0.241 A  
HETATM   15  C   UNL     1     -11.611  13.775  69.377  1.00  0.00    -0.310 A  
HETATM   16  C   UNL     1     -10.152  12.946  67.130  1.00  0.00    -0.243 A  
HETATM   17  C   UNL     1     -12.020  12.645  68.680  1.00  0.00    -0.264 A  
HETATM   18  C   UNL     1     -11.297  12.246  67.555  1.00  0.00    -0.388 A  
BRANCH  15  19
HETATM   19  S   UNL     1     -12.466  14.257  70.863  1.00  0.00    -0.375 S  
HETATM   20  O   UNL     1     -12.683  13.046  71.628  1.00  0.00    -0.296 OA 
HETATM   21  O   UNL     1     -13.583  15.088  70.458  1.00  0.00    -0.172 OA 
BRANCH  19  22
HETATM   22  C   UNL     1     -11.292  15.274  71.738  1.00  0.00    -0.371 C  
HETATM   23  C   UNL     1     -11.995  16.220  72.695  1.00  0.00    -0.644 C  
ENDBRANCH  19  22
ENDBRANCH  15  19
BRANCH  16  24
HETATM   24  O   UNL     1      -9.615  12.421  65.986  1.00  0.00    -0.242 OA 
HETATM   25  C   UNL     1     -10.415  12.476  64.810  1.00  0.00    -0.311 C  
ENDBRANCH  16  24
ENDBRANCH  10  13
ENDBRANCH   8   9
ENDBRANCH   7   8
ENDBRANCH   2   3
TORSDOF 7
ENDMDL
MODEL       72
REMARK 921   NORMALIZED FREE ENERGY PREDICTED BY IDOCK:   -5.30 KCAL/MOL
REMARK 922        TOTAL FREE ENERGY PREDICTED BY IDOCK:   -8.34 KCAL/MOL
REMARK 923 INTER-LIGAND FREE ENERGY PREDICTED BY IDOCK:   -7.39 KCAL/MOL
REMARK 924 INTRA-LIGAND FREE ENERGY PREDICTED BY IDOCK:   -0.95 KCAL/MOL
REMARK 927      BINDING AFFINITY PREDICTED BY RF-SCORE:    0.00 PKD
ROOT
HETATM    1  C   UNL     1      -8.392   5.258  70.521  1.00  0.00    -0.112 C  
HETATM    2  C   UNL     1      -8.203   6.738  70.838  1.00  0.00    -0.123 C  
ENDROOT
BRANCH   2   3
HETATM    3  N   UNL     1      -8.595   7.605  69.720  1.00  0.00    -0.134 NA 
HETATM    4  C   UNL     1      -8.385   6.975  68.414  1.00  0.00    -0.124 C  
HETATM    5  C   UNL     1      -9.219   7.842  67.497  1.00  0.00    -0.152 C  
HETATM    6  C   UNL     1     -10.463   8.132  68.318  1.00  0.00    -0.210 C  
HETATM    7  C   UNL     1     -10.025   7.994  69.787  1.00  0.00    -0.191 C  
BRANCH   7   8
HETATM    8  C   UNL     1     -10.206   9.310  70.575  1.00  0.00    -0.251 C  
BRANCH   8   9
HETATM    9  N   UNL     1     -10.412  10.484  69.734  1.00  0.00    -0.376 N  
HETATM   10  C   UNL     1     -11.551  11.265  69.826  1.00  0.00    -0.333 C  
HETATM   11  H   UNL     1      -9.693  10.737  69.057  1.00  0.00     0.000 HD 
HETATM   12  O   UNL     1     -12.459  11.019  70.607  1.00  0.00    -0.336 OA 
BRANCH  10  13
HETATM   13  C   UNL     1     -11.638  12.417  68.878  1.00  0.00    -0.364 A  
HETATM   14  C   UNL     1     -11.736  12.116  67.502  1.00  0.00    -0.385 A  
HETATM   15  C   UNL     1     -11.946  13.133  66.562  1.00  0.00    -0.398 A  
HETATM   16  C   UNL     1     -11.748  13.759  69.288  1.00  0.00    -0.327 A  
HETATM   17  C   UNL     1     -12.061  14.457  66.966  1.00  0.00    -0.374 A  
HETATM   18  C   UNL     1     -11.975  14.760  68.325  1.00  0.00    -0.258 A  
BRANCH  15  19
HETATM   19  S   UNL     1     -11.969  12.730  64.827  1.00  0.00    -0.428 S  
HETATM   20  O   UNL     1     -11.423  13.876  64.128  1.00  0.00    -0.342 OA 
HETATM   21  O   UNL     1     -13.300  12.242  64.524  1.00  0.00    -0.769 OA 
BRANCH  19  22
HETATM   22  C   UNL     1     -10.820  11.376  64.673  1.00  0.00    -0.292 C  
HETATM   23  C   UNL     1      -9.907  11.567  63.475  1.00  0.00    -0.407 C  
ENDBRANCH  19  22
ENDBRANCH  15  19
BRANCH  16  24
HETATM   24  O   UNL     1     -11.740  14.255  70.564  1.00  0.00    -0.286 OA 
HETATM   25  C   UNL     1     -12.188  15.594  70.741  1.00  0.00    -0.418 C  
ENDBRANCH  16  24
ENDBRANCH  10  13
ENDBRANCH   8   9
ENDBRANCH   7   8
ENDBRANCH   2   3
TORSDOF 7
ENDMDL
MODEL       73
REMARK 921   NORMALIZED FREE ENERGY PREDICTED BY IDOCK:   -5.28 KCAL/MOL
REMARK 922        TOTAL FREE ENERGY PREDICTED BY IDOCK:   -8.31 KCAL/MOL
REMARK 923 INTER-LIGAND FREE ENERGY PREDICTED BY IDOCK:   -7.22 KCAL/MOL
REMARK 924 INTRA-LIGAND FREE ENERGY PREDICTED BY IDOCK:   -1.10 KCAL/MOL
REMARK 927      BINDING AFFINITY PREDICTED BY RF-SCORE:    0.00 PKD
ROOT
HETATM    1  C   UNL     1     -12.136  14.480  64.467  1.00  0.00    -0.501 C  
HETATM    2  C   UNL     1     -12.599  13.973  65.829  1.00  0.00    -0.479 C  
ENDROOT
BRANCH   2   3
HETATM    3  N   UNL     1     -11.513  13.347  66.593  1.00  0.00    -0.330 NA 
HETATM    4  C   UNL     1     -10.298  13.154  65.797  1.00  0.00    -0.289 C  
HETATM    5  C   UNL     1      -9.248  12.912  66.859  1.00  0.00    -0.234 C  
HETATM    6  C   UNL     1      -9.621  13.893  67.957  1.00  0.00    -0.219 C  
HETATM    7  C   UNL     1     -11.128  14.151  67.779  1.00  0.00    -0.276 C  
BRANCH   7   8
HETATM    8  C   UNL     1     -11.942  13.729  69.023  1.00  0.00    -0.360 C  
BRANCH   8   9
HETATM    9  N   UNL     1     -11.380  12.593  69.745  1.00  0.00    -0.496 N  
HETATM   10  C   UNL     1     -11.680  11.285  69.408  1.00  0.00    -0.339 C  
HETATM   11  H   UNL     1     -10.744  12.769  70.523  1.00  0.00     0.000 HD 
HETATM   12  O   UNL     1     -12.440  10.996  68.494  1.00  0.00    -0.440 OA 
BRANCH  10  13
HETATM   13  C   UNL     1     -11.055  10.225  70.257  1.00  0.00    -0.388 A  
HETATM   14  C   UNL     1      -9.739   9.829  69.932  1.00  0.00    -0.273 A  
HETATM   15  C   UNL     1      -9.041   8.934  70.751  1.00  0.00    -0.213 A  
HETATM   16  C   UNL     1     -11.656   9.698  71.416  1.00  0.00    -0.400 A  
HETATM   17  C   UNL     1      -9.629   8.417  71.898  1.00  0.00    -0.324 A  
HETATM   18  C   UNL     1     -10.925   8.812  72.230  1.00  0.00    -0.336 A  
BRANCH  15  19
HETATM   19  S   UNL     1      -7.420   8.382  70.260  1.00  0.00    -0.066 S  
HETATM   20  O   UNL     1      -7.366   8.485  68.816  1.00  0.00    -0.086 OA 
HETATM   21  O   UNL     1      -7.188   7.113  70.922  1.00  0.00    -0.068 OA 
BRANCH  19  22
HETATM   22  C   UNL     1      -6.312   9.593  70.953  1.00  0.00    -0.083 C  
HETATM   23  C   UNL     1      -6.273  10.850  70.101  1.00  0.00    -0.142 C  
ENDBRANCH  19  22
ENDBRANCH  15  19
BRANCH  16  24
HETATM   24  O   UNL     1     -12.886   9.992  71.938  1.00  0.00    -0.403 OA 
HETATM   25  C   UNL     1     -13.751   8.897  72.214  1.00  0.00    -0.471 C  
ENDBRANCH  16  24
ENDBRANCH  10  13
ENDBRANCH   8   9
ENDBRANCH   7   8
ENDBRANCH   2   3
TORSDOF 7
ENDMDL
MODEL       74
REMARK 921   NORMALIZED FREE ENERGY PREDICTED BY IDOCK:   -5.27 KCAL/MOL
REMARK 922        TOTAL FREE ENERGY PREDICTED BY IDOCK:   -8.29 KCAL/MOL
REMARK 923 INTER-LIGAND FREE ENERGY PREDICTED BY IDOCK:   -7.40 KCAL/MOL
REMARK 924 INTRA-LIGAND FREE ENERGY PREDICTED BY IDOCK:   -0.89 KCAL/MOL
REMARK 927      BINDING AFFINITY PREDICTED BY RF-SCORE:    0.00 PKD
ROOT
HETATM    1  C   UNL     1      -9.978   5.882  67.137  1.00  0.00    -0.187 C  
HETATM    2  C   UNL     1     -11.032   6.967  67.336  1.00  0.00    -0.266 C  
ENDROOT
BRANCH   2   3
HETATM    3  N   UNL     1     -10.475   8.187  67.933  1.00  0.00    -0.217 NA 
HETATM    4  C   UNL     1      -9.613   7.912  69.086  1.00  0.00    -0.153 C  
HETATM    5  C   UNL     1      -8.858   9.213  69.246  1.00  0.00    -0.144 C  
HETATM    6  C   UNL     1      -8.569   9.633  67.816  1.00  0.00    -0.125 C  
HETATM    7  C   UNL     1      -9.663   8.965  66.964  1.00  0.00    -0.190 C  
BRANCH   7   8
HETATM    8  C   UNL     1     -10.533   9.999  66.215  1.00  0.00    -0.102 C  
BRANCH   8   9
HETATM    9  N   UNL     1     -10.668  11.275  66.908  1.00  0.00    -0.261 N  
HETATM   10  C   UNL     1     -11.611  12.218  66.539  1.00  0.00    -0.377 C  
HETATM   11  H   UNL     1     -10.046  11.480  67.691  1.00  0.00     0.000 HD 
HETATM   12  O   UNL     1     -12.384  12.048  65.606  1.00  0.00    -0.470 OA 
BRANCH  10  13
HETATM   13  C   UNL     1     -11.611  13.492  67.320  1.00  0.00    -0.398 A  
HETATM   14  C   UNL     1     -12.125  13.445  68.634  1.00  0.00    -0.281 A  
HETATM   15  C   UNL     1     -12.047  14.565  69.471  1.00  0.00    -0.306 A  
HETATM   16  C   UNL     1     -11.024  14.688  66.863  1.00  0.00    -0.324 A  
HETATM   17  C   UNL     1     -11.463  15.744  69.025  1.00  0.00    -0.394 A  
HETATM   18  C   UNL     1     -10.945  15.793  67.730  1.00  0.00    -0.314 A  
BRANCH  15  19
HETATM   19  S   UNL     1     -12.790  14.501  71.088  1.00  0.00    -0.358 S  
HETATM   20  O   UNL     1     -12.707  13.123  71.530  1.00  0.00    -0.338 OA 
HETATM   21  O   UNL     1     -14.072  15.171  70.991  1.00  0.00    -0.389 OA 
BRANCH  19  22
HETATM   22  C   UNL     1     -11.712  15.486  72.109  1.00  0.00    -0.476 C  
HETATM   23  C   UNL     1     -12.413  15.922  73.385  1.00  0.00    -0.655 C  
ENDBRANCH  19  22
ENDBRANCH  15  19
BRANCH  16  24
HETATM   24  O   UNL     1     -10.421  14.925  65.658  1.00  0.00    -0.304 OA 
HETATM   25  C   UNL     1     -11.189  15.605  64.672  1.00  0.00    -0.369 C  
ENDBRANCH  16  24
ENDBRANCH  10  13
ENDBRANCH   8   9
ENDBRANCH   7   8
ENDBRANCH   2   3
TORSDOF 7
ENDMDL
MODEL       75
REMARK 921   NORMALIZED FREE ENERGY PREDICTED BY IDOCK:   -5.26 KCAL/MOL
REMARK 922        TOTAL FREE ENERGY PREDICTED BY IDOCK:   -8.29 KCAL/MOL
REMARK 923 INTER-LIGAND FREE ENERGY PREDICTED BY IDOCK:   -7.30 KCAL/MOL
REMARK 924 INTRA-LIGAND FREE ENERGY PREDICTED BY IDOCK:   -0.99 KCAL/MOL
REMARK 927      BINDING AFFINITY PREDICTED BY RF-SCORE:    0.00 PKD
ROOT
HETATM    1  C   UNL     1     -10.737   7.171  67.927  1.00  0.00    -0.258 C  
HETATM    2  C   UNL     1     -10.003   7.027  69.257  1.00  0.00    -0.162 C  
ENDROOT
BRANCH   2   3
HETATM    3  N   UNL     1     -10.919   7.013  70.404  1.00  0.00    -0.257 NA 
HETATM    4  C   UNL     1     -10.866   5.756  71.156  1.00  0.00    -0.248 C  
HETATM    5  C   UNL     1     -11.534   6.130  72.461  1.00  0.00    -0.318 C  
HETATM    6  C   UNL     1     -11.007   7.526  72.742  1.00  0.00    -0.410 C  
HETATM    7  C   UNL     1     -10.627   8.104  71.367  1.00  0.00    -0.220 C  
BRANCH   7   8
HETATM    8  C   UNL     1     -11.435   9.376  71.025  1.00  0.00    -0.334 C  
BRANCH   8   9
HETATM    9  N   UNL     1     -10.840  10.193  69.973  1.00  0.00    -0.287 N  
HETATM   10  C   UNL     1     -11.599  11.029  69.173  1.00  0.00    -0.319 C  
HETATM   11  H   UNL     1      -9.832  10.147  69.823  1.00  0.00     0.000 HD 
HETATM   12  O   UNL     1     -12.813  11.131  69.287  1.00  0.00    -0.131 OA 
BRANCH  10  13
HETATM   13  C   UNL     1     -10.857  11.781  68.115  1.00  0.00    -0.258 A  
HETATM   14  C   UNL     1     -11.626  12.505  67.177  1.00  0.00    -0.437 A  
HETATM   15  C   UNL     1     -11.006  13.333  66.233  1.00  0.00    -0.284 A  
HETATM   16  C   UNL     1      -9.455  11.901  68.080  1.00  0.00    -0.197 A  
HETATM   17  C   UNL     1      -9.623  13.457  66.200  1.00  0.00    -0.216 A  
HETATM   18  C   UNL     1      -8.859  12.752  67.130  1.00  0.00    -0.202 A  
BRANCH  15  19
HETATM   19  S   UNL     1     -11.999  14.155  65.005  1.00  0.00    -0.430 S  
HETATM   20  O   UNL     1     -11.396  15.455  64.786  1.00  0.00    -0.412 OA 
HETATM   21  O   UNL     1     -13.380  14.042  65.433  1.00  0.00    -0.721 OA 
BRANCH  19  22
HETATM   22  C   UNL     1     -11.781  13.177  63.532  1.00  0.00    -0.415 C  
HETATM   23  C   UNL     1     -12.614  11.908  63.588  1.00  0.00    -0.555 C  
ENDBRANCH  19  22
ENDBRANCH  15  19
BRANCH  16  24
HETATM   24  O   UNL     1      -8.538  11.338  68.925  1.00  0.00    -0.138 OA 
HETATM   25  C   UNL     1      -7.588  10.448  68.351  1.00  0.00    -0.093 C  
ENDBRANCH  16  24
ENDBRANCH  10  13
ENDBRANCH   8   9
ENDBRANCH   7   8
ENDBRANCH   2   3
TORSDOF 7
ENDMDL
MODEL       76
REMARK 921   NORMALIZED FREE ENERGY PREDICTED BY IDOCK:   -5.25 KCAL/MOL
REMARK 922        TOTAL FREE ENERGY PREDICTED BY IDOCK:   -8.27 KCAL/MOL
REMARK 923 INTER-LIGAND FREE ENERGY PREDICTED BY IDOCK:   -7.28 KCAL/MOL
REMARK 924 INTRA-LIGAND FREE ENERGY PREDICTED BY IDOCK:   -0.99 KCAL/MOL
REMARK 927      BINDING AFFINITY PREDICTED BY RF-SCORE:    0.00 PKD
ROOT
HETATM    1  C   UNL     1      -9.672  20.029  66.744  1.00  0.00    -0.563 C  
HETATM    2  C   UNL     1     -10.133  18.973  67.742  1.00  0.00    -0.379 C  
ENDROOT
BRANCH   2   3
HETATM    3  N   UNL     1     -10.584  17.740  67.086  1.00  0.00    -0.326 NA 
HETATM    4  C   UNL     1     -10.651  17.866  65.627  1.00  0.00    -0.109 C  
HETATM    5  C   UNL     1     -10.716  16.423  65.178  1.00  0.00    -0.309 C  
HETATM    6  C   UNL     1      -9.747  15.718  66.111  1.00  0.00    -0.351 C  
HETATM    7  C   UNL     1      -9.691  16.591  67.377  1.00  0.00    -0.246 C  
BRANCH   7   8
HETATM    8  C   UNL     1     -10.163  15.826  68.634  1.00  0.00    -0.221 C  
BRANCH   8   9
HETATM    9  N   UNL     1     -10.088  14.375  68.510  1.00  0.00    -0.239 N  
HETATM   10  C   UNL     1     -11.163  13.554  68.802  1.00  0.00    -0.274 C  
HETATM   11  H   UNL     1      -9.215  13.951  68.197  1.00  0.00     0.000 HD 
HETATM   12  O   UNL     1     -12.239  13.989  69.191  1.00  0.00    -0.346 OA 
BRANCH  10  13
HETATM   13  C   UNL     1     -10.930  12.085  68.660  1.00  0.00    -0.281 A  
HETATM   14  C   UNL     1     -11.146  11.282  69.801  1.00  0.00    -0.238 A  
HETATM   15  C   UNL     1     -11.069   9.887  69.718  1.00  0.00    -0.254 A  
HETATM   16  C   UNL     1     -10.629  11.457  67.436  1.00  0.00    -0.218 A  
HETATM   17  C   UNL     1     -10.778   9.265  68.510  1.00  0.00    -0.185 A  
HETATM   18  C   UNL     1     -10.573  10.052  67.376  1.00  0.00    -0.330 A  
BRANCH  15  19
HETATM   19  S   UNL     1     -11.251   8.910  71.196  1.00  0.00    -0.310 S  
HETATM   20  O   UNL     1     -10.035   9.089  71.964  1.00  0.00    -0.321 OA 
HETATM   21  O   UNL     1     -11.677   7.588  70.779  1.00  0.00    -0.291 OA 
BRANCH  19  22
HETATM   22  C   UNL     1     -12.593   9.686  72.075  1.00  0.00    -0.361 C  
HETATM   23  C   UNL     1     -13.860   8.853  71.988  1.00  0.00    -0.511 C  
ENDBRANCH  19  22
ENDBRANCH  15  19
BRANCH  16  24
HETATM   24  O   UNL     1     -10.444  12.039  66.212  1.00  0.00    -0.228 OA 
HETATM   25  C   UNL     1     -11.608  12.474  65.519  1.00  0.00    -0.386 C  
ENDBRANCH  16  24
ENDBRANCH  10  13
ENDBRANCH   8   9
ENDBRANCH   7   8
ENDBRANCH   2   3
TORSDOF 7
ENDMDL
MODEL       77
REMARK 921   NORMALIZED FREE ENERGY PREDICTED BY IDOCK:   -5.24 KCAL/MOL
REMARK 922        TOTAL FREE ENERGY PREDICTED BY IDOCK:   -8.25 KCAL/MOL
REMARK 923 INTER-LIGAND FREE ENERGY PREDICTED BY IDOCK:   -7.36 KCAL/MOL
REMARK 924 INTRA-LIGAND FREE ENERGY PREDICTED BY IDOCK:   -0.89 KCAL/MOL
REMARK 927      BINDING AFFINITY PREDICTED BY RF-SCORE:    0.00 PKD
ROOT
HETATM    1  C   UNL     1     -11.199   6.505  69.790  1.00  0.00    -0.456 C  
HETATM    2  C   UNL     1     -10.982   7.924  70.305  1.00  0.00    -0.248 C  
ENDROOT
BRANCH   2   3
HETATM    3  N   UNL     1     -12.235   8.569  70.716  1.00  0.00    -0.097 NA 
HETATM    4  C   UNL     1     -12.787   8.003  71.949  1.00  0.00    -0.320 C  
HETATM    5  C   UNL     1     -13.782   9.059  72.376  1.00  0.00    -0.539 C  
HETATM    6  C   UNL     1     -13.068  10.364  72.066  1.00  0.00    -0.521 C  
HETATM    7  C   UNL     1     -12.066  10.025  70.948  1.00  0.00    -0.355 C  
BRANCH   7   8
HETATM    8  C   UNL     1     -12.338  10.829  69.657  1.00  0.00    -0.192 C  
BRANCH   8   9
HETATM    9  N   UNL     1     -11.259  11.735  69.282  1.00  0.00    -0.300 N  
HETATM   10  C   UNL     1     -11.252  12.414  68.077  1.00  0.00    -0.268 C  
HETATM   11  H   UNL     1     -10.483  11.874  69.931  1.00  0.00     0.000 HD 
HETATM   12  O   UNL     1     -12.142  12.292  67.245  1.00  0.00    -0.548 OA 
BRANCH  10  13
HETATM   13  C   UNL     1     -10.065  13.284  67.815  1.00  0.00    -0.229 A  
HETATM   14  C   UNL     1     -10.305  14.546  67.230  1.00  0.00    -0.260 A  
HETATM   15  C   UNL     1      -9.263  15.467  67.068  1.00  0.00    -0.225 A  
HETATM   16  C   UNL     1      -8.758  12.964  68.227  1.00  0.00    -0.168 A  
HETATM   17  C   UNL     1      -7.973  15.156  67.478  1.00  0.00    -0.194 A  
HETATM   18  C   UNL     1      -7.731  13.914  68.066  1.00  0.00    -0.151 A  
BRANCH  15  19
HETATM   19  S   UNL     1      -9.581  17.011  66.239  1.00  0.00    -0.246 S  
HETATM   20  O   UNL     1     -10.428  16.706  65.103  1.00  0.00    -0.647 OA 
HETATM   21  O   UNL     1      -8.300  17.664  66.054  1.00  0.00    -0.497 OA 
BRANCH  19  22
HETATM   22  C   UNL     1     -10.533  17.955  67.413  1.00  0.00    -0.383 C  
HETATM   23  C   UNL     1     -10.153  17.598  68.840  1.00  0.00    -0.351 C  
ENDBRANCH  19  22
ENDBRANCH  15  19
BRANCH  16  24
HETATM   24  O   UNL     1      -8.325  11.832  68.862  1.00  0.00    -0.062 OA 
HETATM   25  C   UNL     1      -7.863  10.765  68.041  1.00  0.00    -0.106 C  
ENDBRANCH  16  24
ENDBRANCH  10  13
ENDBRANCH   8   9
ENDBRANCH   7   8
ENDBRANCH   2   3
TORSDOF 7
ENDMDL
MODEL       78
REMARK 921   NORMALIZED FREE ENERGY PREDICTED BY IDOCK:   -5.23 KCAL/MOL
REMARK 922        TOTAL FREE ENERGY PREDICTED BY IDOCK:   -8.24 KCAL/MOL
REMARK 923 INTER-LIGAND FREE ENERGY PREDICTED BY IDOCK:   -7.43 KCAL/MOL
REMARK 924 INTRA-LIGAND FREE ENERGY PREDICTED BY IDOCK:   -0.82 KCAL/MOL
REMARK 927      BINDING AFFINITY PREDICTED BY RF-SCORE:    0.00 PKD
ROOT
HETATM    1  C   UNL     1      -8.856  20.773  67.070  1.00  0.00    -0.207 C  
HETATM    2  C   UNL     1      -9.588  19.591  66.445  1.00  0.00    -0.390 C  
ENDROOT
BRANCH   2   3
HETATM    3  N   UNL     1      -9.078  18.300  66.922  1.00  0.00    -0.275 NA 
HETATM    4  C   UNL     1      -7.734  18.000  66.421  1.00  0.00    -0.269 C  
HETATM    5  C   UNL     1      -7.281  16.892  67.346  1.00  0.00    -0.186 C  
HETATM    6  C   UNL     1      -7.806  17.326  68.703  1.00  0.00    -0.272 C  
HETATM    7  C   UNL     1      -9.009  18.237  68.403  1.00  0.00    -0.309 C  
BRANCH   7   8
HETATM    8  C   UNL     1     -10.323  17.683  68.997  1.00  0.00    -0.272 C  
BRANCH   8   9
HETATM    9  N   UNL     1     -10.626  16.314  68.594  1.00  0.00    -0.278 N  
HETATM   10  C   UNL     1     -11.596  15.557  69.228  1.00  0.00    -0.357 C  
HETATM   11  H   UNL     1     -10.107  15.901  67.819  1.00  0.00     0.000 HD 
HETATM   12  O   UNL     1     -12.253  15.980  70.170  1.00  0.00    -0.282 OA 
BRANCH  10  13
HETATM   13  C   UNL     1     -11.774  14.160  68.728  1.00  0.00    -0.380 A  
HETATM   14  C   UNL     1     -11.628  13.947  67.340  1.00  0.00    -0.398 A  
HETATM   15  C   UNL     1     -11.657  12.651  66.810  1.00  0.00    -0.374 A  
HETATM   16  C   UNL     1     -11.958  13.047  69.569  1.00  0.00    -0.289 A  
HETATM   17  C   UNL     1     -11.832  11.551  67.639  1.00  0.00    -0.194 A  
HETATM   18  C   UNL     1     -11.969  11.754  69.013  1.00  0.00    -0.341 A  
BRANCH  15  19
HETATM   19  S   UNL     1     -11.566  12.426  65.045  1.00  0.00    -0.349 S  
HETATM   20  O   UNL     1     -12.930  12.407  64.558  1.00  0.00    -0.770 OA 
HETATM   21  O   UNL     1     -10.679  11.303  64.808  1.00  0.00    -0.310 OA 
BRANCH  19  22
HETATM   22  C   UNL     1     -10.775  13.908  64.451  1.00  0.00    -0.268 C  
HETATM   23  C   UNL     1     -11.799  14.979  64.117  1.00  0.00    -0.184 C  
ENDBRANCH  19  22
ENDBRANCH  15  19
BRANCH  16  24
HETATM   24  O   UNL     1     -12.061  13.028  70.934  1.00  0.00    -0.298 OA 
HETATM   25  C   UNL     1     -13.368  12.904  71.483  1.00  0.00    -0.173 C  
ENDBRANCH  16  24
ENDBRANCH  10  13
ENDBRANCH   8   9
ENDBRANCH   7   8
ENDBRANCH   2   3
TORSDOF 7
ENDMDL
MODEL       79
REMARK 921   NORMALIZED FREE ENERGY PREDICTED BY IDOCK:   -5.23 KCAL/MOL
REMARK 922        TOTAL FREE ENERGY PREDICTED BY IDOCK:   -8.24 KCAL/MOL
REMARK 923 INTER-LIGAND FREE ENERGY PREDICTED BY IDOCK:   -7.00 KCAL/MOL
REMARK 924 INTRA-LIGAND FREE ENERGY PREDICTED BY IDOCK:   -1.24 KCAL/MOL
REMARK 927      BINDING AFFINITY PREDICTED BY RF-SCORE:    0.00 PKD
ROOT
HETATM    1  C   UNL     1     -11.950  12.203  70.155  1.00  0.00    -0.394 C  
HETATM    2  C   UNL     1     -11.995  11.230  68.981  1.00  0.00    -0.325 C  
ENDROOT
BRANCH   2   3
HETATM    3  N   UNL     1     -11.101  11.630  67.887  1.00  0.00    -0.229 NA 
HETATM    4  C   UNL     1     -10.234  10.538  67.436  1.00  0.00    -0.211 C  
HETATM    5  C   UNL     1      -9.746  11.043  66.096  1.00  0.00    -0.257 C  
HETATM    6  C   UNL     1     -10.977  11.702  65.497  1.00  0.00    -0.327 C  
HETATM    7  C   UNL     1     -11.850  12.105  66.698  1.00  0.00    -0.237 C  
BRANCH   7   8
HETATM    8  C   UNL     1     -12.084  13.631  66.763  1.00  0.00    -0.399 C  
BRANCH   8   9
HETATM    9  N   UNL     1     -10.875  14.408  67.011  1.00  0.00    -0.292 N  
HETATM   10  C   UNL     1     -10.293  15.197  66.036  1.00  0.00    -0.311 C  
HETATM   11  H   UNL     1     -10.444  14.368  67.936  1.00  0.00     0.000 HD 
HETATM   12  O   UNL     1     -10.746  15.288  64.903  1.00  0.00    -0.419 OA 
BRANCH  10  13
HETATM   13  C   UNL     1      -9.039  15.911  66.425  1.00  0.00    -0.355 A  
HETATM   14  C   UNL     1      -9.041  17.320  66.333  1.00  0.00    -0.281 A  
HETATM   15  C   UNL     1      -7.951  18.068  66.795  1.00  0.00    -0.237 A  
HETATM   16  C   UNL     1      -7.917  15.270  66.986  1.00  0.00    -0.208 A  
HETATM   17  C   UNL     1      -6.846  17.438  67.353  1.00  0.00    -0.183 A  
HETATM   18  C   UNL     1      -6.842  16.047  67.457  1.00  0.00    -0.205 A  
BRANCH  15  19
HETATM   19  S   UNL     1      -7.947  19.835  66.574  1.00  0.00    -0.333 S  
HETATM   20  O   UNL     1      -7.624  20.079  65.183  1.00  0.00    -0.279 OA 
HETATM   21  O   UNL     1      -7.127  20.391  67.633  1.00  0.00    -0.276 OA 
BRANCH  19  22
HETATM   22  C   UNL     1      -9.638  20.320  66.854  1.00  0.00    -0.427 C  
HETATM   23  C   UNL     1     -10.056  20.051  68.289  1.00  0.00    -0.531 C  
ENDBRANCH  19  22
ENDBRANCH  15  19
BRANCH  16  24
HETATM   24  O   UNL     1      -7.738  13.934  67.220  1.00  0.00    -0.164 OA 
HETATM   25  C   UNL     1      -7.469  13.542  68.561  1.00  0.00    -0.122 C  
ENDBRANCH  16  24
ENDBRANCH  10  13
ENDBRANCH   8   9
ENDBRANCH   7   8
ENDBRANCH   2   3
TORSDOF 7
ENDMDL
MODEL       80
REMARK 921   NORMALIZED FREE ENERGY PREDICTED BY IDOCK:   -5.23 KCAL/MOL
REMARK 922        TOTAL FREE ENERGY PREDICTED BY IDOCK:   -8.24 KCAL/MOL
REMARK 923 INTER-LIGAND FREE ENERGY PREDICTED BY IDOCK:   -7.33 KCAL/MOL
REMARK 924 INTRA-LIGAND FREE ENERGY PREDICTED BY IDOCK:   -0.91 KCAL/MOL
REMARK 927      BINDING AFFINITY PREDICTED BY RF-SCORE:    0.00 PKD
ROOT
HETATM    1  C   UNL     1     -12.028   9.254  71.181  1.00  0.00    -0.394 C  
HETATM    2  C   UNL     1     -10.513   9.246  71.000  1.00  0.00    -0.314 C  
ENDROOT
BRANCH   2   3
HETATM    3  N   UNL     1     -10.097   8.523  69.792  1.00  0.00    -0.192 NA 
HETATM    4  C   UNL     1     -10.633   7.161  69.733  1.00  0.00    -0.234 C  
HETATM    5  C   UNL     1     -10.435   6.795  68.279  1.00  0.00    -0.243 C  
HETATM    6  C   UNL     1     -10.783   8.077  67.542  1.00  0.00    -0.238 C  
HETATM    7  C   UNL     1     -10.530   9.211  68.551  1.00  0.00    -0.204 C  
BRANCH   7   8
HETATM    8  C   UNL     1      -9.451  10.200  68.058  1.00  0.00    -0.145 C  
BRANCH   8   9
HETATM    9  N   UNL     1      -9.987  11.381  67.390  1.00  0.00    -0.185 N  
HETATM   10  C   UNL     1      -9.181  12.434  66.996  1.00  0.00    -0.208 C  
HETATM   11  H   UNL     1     -10.989  11.431  67.207  1.00  0.00     0.000 HD 
HETATM   12  O   UNL     1      -7.973  12.449  67.189  1.00  0.00    -0.174 OA 
BRANCH  10  13
HETATM   13  C   UNL     1      -9.874  13.591  66.352  1.00  0.00    -0.299 A  
HETATM   14  C   UNL     1      -9.349  14.878  66.597  1.00  0.00    -0.291 A  
HETATM   15  C   UNL     1      -9.864  15.998  65.934  1.00  0.00    -0.348 A  
HETATM   16  C   UNL     1     -10.931  13.454  65.432  1.00  0.00    -0.286 A  
HETATM   17  C   UNL     1     -10.903  15.864  65.021  1.00  0.00    -0.444 A  
HETATM   18  C   UNL     1     -11.420  14.594  64.767  1.00  0.00    -0.410 A  
BRANCH  15  19
HETATM   19  S   UNL     1      -9.243  17.617  66.339  1.00  0.00    -0.208 S  
HETATM   20  O   UNL     1     -10.315  18.553  66.064  1.00  0.00    -0.464 OA 
HETATM   21  O   UNL     1      -7.956  17.752  65.685  1.00  0.00    -0.532 OA 
BRANCH  19  22
HETATM   22  C   UNL     1      -8.980  17.562  68.100  1.00  0.00    -0.266 C  
HETATM   23  C   UNL     1      -8.610  18.932  68.642  1.00  0.00    -0.376 C  
ENDBRANCH  19  22
ENDBRANCH  15  19
BRANCH  16  24
HETATM   24  O   UNL     1     -11.539  12.302  65.010  1.00  0.00    -0.332 OA 
HETATM   25  C   UNL     1     -11.976  12.259  63.656  1.00  0.00    -0.543 C  
ENDBRANCH  16  24
ENDBRANCH  10  13
ENDBRANCH   8   9
ENDBRANCH   7   8
ENDBRANCH   2   3
TORSDOF 7
ENDMDL
MODEL       81
REMARK 921   NORMALIZED FREE ENERGY PREDICTED BY IDOCK:   -5.23 KCAL/MOL
REMARK 922        TOTAL FREE ENERGY PREDICTED BY IDOCK:   -8.24 KCAL/MOL
REMARK 923 INTER-LIGAND FREE ENERGY PREDICTED BY IDOCK:   -7.31 KCAL/MOL
REMARK 924 INTRA-LIGAND FREE ENERGY PREDICTED BY IDOCK:   -0.93 KCAL/MOL
REMARK 927      BINDING AFFINITY PREDICTED BY RF-SCORE:    0.00 PKD
ROOT
HETATM    1  C   UNL     1     -11.600  15.449  69.109  1.00  0.00    -0.354 C  
HETATM    2  C   UNL     1     -10.818  15.249  70.403  1.00  0.00    -0.266 C  
ENDROOT
BRANCH   2   3
HETATM    3  N   UNL     1     -11.693  14.988  71.552  1.00  0.00    -0.357 NA 
HETATM    4  C   UNL     1     -12.176  16.217  72.189  1.00  0.00    -0.473 C  
HETATM    5  C   UNL     1     -13.335  15.718  73.022  1.00  0.00    -0.679 C  
HETATM    6  C   UNL     1     -14.000  14.689  72.125  1.00  0.00    -0.591 C  
HETATM    7  C   UNL     1     -12.892  14.199  71.175  1.00  0.00    -0.360 C  
BRANCH   7   8
HETATM    8  C   UNL     1     -12.628  12.684  71.319  1.00  0.00    -0.240 C  
BRANCH   8   9
HETATM    9  N   UNL     1     -12.027  12.071  70.140  1.00  0.00    -0.395 N  
HETATM   10  C   UNL     1     -11.621  10.748  70.123  1.00  0.00    -0.337 C  
HETATM   11  H   UNL     1     -11.902  12.635  69.299  1.00  0.00     0.000 HD 
HETATM   12  O   UNL     1     -11.729  10.012  71.095  1.00  0.00    -0.345 OA 
BRANCH  10  13
HETATM   13  C   UNL     1     -10.992  10.266  68.856  1.00  0.00    -0.279 A  
HETATM   14  C   UNL     1     -10.517   8.937  68.834  1.00  0.00    -0.225 A  
HETATM   15  C   UNL     1     -10.029   8.372  67.650  1.00  0.00    -0.190 A  
HETATM   16  C   UNL     1     -10.960  11.017  67.666  1.00  0.00    -0.275 A  
HETATM   17  C   UNL     1     -10.002   9.109  66.473  1.00  0.00    -0.359 A  
HETATM   18  C   UNL     1     -10.479  10.420  66.485  1.00  0.00    -0.262 A  
BRANCH  15  19
HETATM   19  S   UNL     1      -9.350   6.726  67.680  1.00  0.00    -0.119 S  
HETATM   20  O   UNL     1      -9.617   6.142  66.381  1.00  0.00    -0.158 OA 
HETATM   21  O   UNL     1      -9.833   6.091  68.891  1.00  0.00    -0.131 OA 
BRANCH  19  22
HETATM   22  C   UNL     1      -7.592   6.977  67.835  1.00  0.00    -0.111 C  
HETATM   23  C   UNL     1      -7.064   6.374  69.126  1.00  0.00    -0.084 C  
ENDBRANCH  19  22
ENDBRANCH  15  19
BRANCH  16  24
HETATM   24  O   UNL     1     -11.421  12.289  67.457  1.00  0.00    -0.302 OA 
HETATM   25  C   UNL     1     -11.830  12.621  66.135  1.00  0.00    -0.418 C  
ENDBRANCH  16  24
ENDBRANCH  10  13
ENDBRANCH   8   9
ENDBRANCH   7   8
ENDBRANCH   2   3
TORSDOF 7
ENDMDL
MODEL       82
REMARK 921   NORMALIZED FREE ENERGY PREDICTED BY IDOCK:   -5.21 KCAL/MOL
REMARK 922        TOTAL FREE ENERGY PREDICTED BY IDOCK:   -8.21 KCAL/MOL
REMARK 923 INTER-LIGAND FREE ENERGY PREDICTED BY IDOCK:   -7.25 KCAL/MOL
REMARK 924 INTRA-LIGAND FREE ENERGY PREDICTED BY IDOCK:   -0.96 KCAL/MOL
REMARK 927      BINDING AFFINITY PREDICTED BY RF-SCORE:    0.00 PKD
ROOT
HETATM    1  C   UNL     1      -9.714   5.506  68.920  1.00  0.00    -0.193 C  
HETATM    2  C   UNL     1      -8.912   6.565  69.669  1.00  0.00    -0.141 C  
ENDROOT
BRANCH   2   3
HETATM    3  N   UNL     1      -9.000   7.887  69.036  1.00  0.00    -0.145 NA 
HETATM    4  C   UNL     1      -8.512   7.887  67.654  1.00  0.00    -0.127 C  
HETATM    5  C   UNL     1      -9.077   9.181  67.110  1.00  0.00    -0.146 C  
HETATM    6  C   UNL     1     -10.468   9.243  67.717  1.00  0.00    -0.313 C  
HETATM    7  C   UNL     1     -10.391   8.401  69.003  1.00  0.00    -0.218 C  
BRANCH   7   8
HETATM    8  C   UNL     1     -10.706   9.234  70.265  1.00  0.00    -0.243 C  
BRANCH   8   9
HETATM    9  N   UNL     1     -10.783  10.671  70.025  1.00  0.00    -0.448 N  
HETATM   10  C   UNL     1     -11.920  11.406  70.310  1.00  0.00    -0.373 C  
HETATM   11  H   UNL     1      -9.971  11.150  69.634  1.00  0.00     0.000 HD 
HETATM   12  O   UNL     1     -12.935  10.900  70.771  1.00  0.00    -0.314 OA 
BRANCH  10  13
HETATM   13  C   UNL     1     -11.864  12.863  69.981  1.00  0.00    -0.356 A  
HETATM   14  C   UNL     1     -11.311  13.223  68.733  1.00  0.00    -0.331 A  
HETATM   15  C   UNL     1     -11.335  14.554  68.299  1.00  0.00    -0.297 A  
HETATM   16  C   UNL     1     -12.435  13.867  70.785  1.00  0.00    -0.375 A  
HETATM   17  C   UNL     1     -11.903  15.546  69.089  1.00  0.00    -0.373 A  
HETATM   18  C   UNL     1     -12.460  15.195  70.319  1.00  0.00    -0.388 A  
BRANCH  15  19
HETATM   19  S   UNL     1     -10.543  14.989  66.765  1.00  0.00    -0.307 S  
HETATM   20  O   UNL     1      -9.390  14.120  66.632  1.00  0.00    -0.272 OA 
HETATM   21  O   UNL     1     -10.388  16.430  66.762  1.00  0.00    -0.286 OA 
BRANCH  19  22
HETATM   22  C   UNL     1     -11.730  14.544  65.513  1.00  0.00    -0.343 C  
HETATM   23  C   UNL     1     -11.233  13.376  64.678  1.00  0.00    -0.377 C  
ENDBRANCH  19  22
ENDBRANCH  15  19
BRANCH  16  24
HETATM   24  O   UNL     1     -13.070  13.725  71.989  1.00  0.00    -0.360 OA 
HETATM   25  C   UNL     1     -14.343  14.347  72.127  1.00  0.00    -0.519 C  
ENDBRANCH  16  24
ENDBRANCH  10  13
ENDBRANCH   8   9
ENDBRANCH   7   8
ENDBRANCH   2   3
TORSDOF 7
ENDMDL
MODEL       83
REMARK 921   NORMALIZED FREE ENERGY PREDICTED BY IDOCK:   -5.20 KCAL/MOL
REMARK 922        TOTAL FREE ENERGY PREDICTED BY IDOCK:   -8.20 KCAL/MOL
REMARK 923 INTER-LIGAND FREE ENERGY PREDICTED BY IDOCK:   -7.10 KCAL/MOL
REMARK 924 INTRA-LIGAND FREE ENERGY PREDICTED BY IDOCK:   -1.10 KCAL/MOL
REMARK 927      BINDING AFFINITY PREDICTED BY RF-SCORE:    0.00 PKD
ROOT
HETATM    1  C   UNL     1      -7.922   4.122  70.559  1.00  0.00    -0.055 C  
HETATM    2  C   UNL     1      -9.378   3.830  70.209  1.00  0.00    -0.168 C  
ENDROOT
BRANCH   2   3
HETATM    3  N   UNL     1     -10.317   4.613  71.021  1.00  0.00    -0.133 NA 
HETATM    4  C   UNL     1     -10.137   4.400  72.460  1.00  0.00    -0.177 C  
HETATM    5  C   UNL     1     -10.881   5.574  73.058  1.00  0.00    -0.316 C  
HETATM    6  C   UNL     1     -10.531   6.724  72.131  1.00  0.00    -0.231 C  
HETATM    7  C   UNL     1     -10.184   6.071  70.781  1.00  0.00    -0.204 C  
BRANCH   7   8
HETATM    8  C   UNL     1     -11.127   6.535  69.649  1.00  0.00    -0.376 C  
BRANCH   8   9
HETATM    9  N   UNL     1     -11.427   7.963  69.672  1.00  0.00    -0.396 N  
HETATM   10  C   UNL     1     -10.660   8.888  68.987  1.00  0.00    -0.183 C  
HETATM   11  H   UNL     1     -12.229   8.289  70.212  1.00  0.00     0.000 HD 
HETATM   12  O   UNL     1      -9.679   8.573  68.327  1.00  0.00    -0.149 OA 
BRANCH  10  13
HETATM   13  C   UNL     1     -11.068  10.319  69.130  1.00  0.00    -0.283 A  
HETATM   14  C   UNL     1     -10.956  11.140  67.987  1.00  0.00    -0.307 A  
HETATM   15  C   UNL     1     -11.432  12.456  68.004  1.00  0.00    -0.322 A  
HETATM   16  C   UNL     1     -11.661  10.849  70.291  1.00  0.00    -0.347 A  
HETATM   17  C   UNL     1     -12.023  12.980  69.147  1.00  0.00    -0.320 A  
HETATM   18  C   UNL     1     -12.145  12.171  70.277  1.00  0.00    -0.385 A  
BRANCH  15  19
HETATM   19  S   UNL     1     -11.187  13.494  66.578  1.00  0.00    -0.314 S  
HETATM   20  O   UNL     1      -9.838  13.247  66.110  1.00  0.00    -0.283 OA 
HETATM   21  O   UNL     1     -11.609  14.830  66.949  1.00  0.00    -0.359 OA 
BRANCH  19  22
HETATM   22  C   UNL     1     -12.328  12.856  65.366  1.00  0.00    -0.485 C  
HETATM   23  C   UNL     1     -11.629  12.580  64.047  1.00  0.00    -0.485 C  
ENDBRANCH  19  22
ENDBRANCH  15  19
BRANCH  16  24
HETATM   24  O   UNL     1     -11.917  10.212  71.475  1.00  0.00    -0.374 OA 
HETATM   25  C   UNL     1     -13.271  10.179  71.913  1.00  0.00    -0.452 C  
ENDBRANCH  16  24
ENDBRANCH  10  13
ENDBRANCH   8   9
ENDBRANCH   7   8
ENDBRANCH   2   3
TORSDOF 7
ENDMDL
MODEL       84
REMARK 921   NORMALIZED FREE ENERGY PREDICTED BY IDOCK:   -5.20 KCAL/MOL
REMARK 922        TOTAL FREE ENERGY PREDICTED BY IDOCK:   -8.20 KCAL/MOL
REMARK 923 INTER-LIGAND FREE ENERGY PREDICTED BY IDOCK:   -7.11 KCAL/MOL
REMARK 924 INTRA-LIGAND FREE ENERGY PREDICTED BY IDOCK:   -1.09 KCAL/MOL
REMARK 927      BINDING AFFINITY PREDICTED BY RF-SCORE:    0.00 PKD
ROOT
HETATM    1  C   UNL     1      -7.750   4.319  70.514  1.00  0.00    -0.052 C  
HETATM    2  C   UNL     1      -9.030   3.526  70.273  1.00  0.00    -0.106 C  
ENDROOT
BRANCH   2   3
HETATM    3  N   UNL     1     -10.151   4.012  71.086  1.00  0.00    -0.115 NA 
HETATM    4  C   UNL     1     -10.104   3.522  72.467  1.00  0.00    -0.165 C  
HETATM    5  C   UNL     1     -11.063   4.454  73.176  1.00  0.00    -0.326 C  
HETATM    6  C   UNL     1     -10.772   5.806  72.547  1.00  0.00    -0.279 C  
HETATM    7  C   UNL     1     -10.193   5.493  71.156  1.00  0.00    -0.222 C  
BRANCH   7   8
HETATM    8  C   UNL     1     -11.059   6.079  70.018  1.00  0.00    -0.381 C  
BRANCH   8   9
HETATM    9  N   UNL     1     -11.535   7.434  70.271  1.00  0.00    -0.444 N  
HETATM   10  C   UNL     1     -10.738   8.546  70.060  1.00  0.00    -0.232 C  
HETATM   11  H   UNL     1     -12.487   7.567  70.613  1.00  0.00     0.000 HD 
HETATM   12  O   UNL     1      -9.585   8.465  69.660  1.00  0.00    -0.162 OA 
BRANCH  10  13
HETATM   13  C   UNL     1     -11.349   9.868  70.393  1.00  0.00    -0.376 A  
HETATM   14  C   UNL     1     -11.087  10.941  69.513  1.00  0.00    -0.326 A  
HETATM   15  C   UNL     1     -11.721  12.178  69.686  1.00  0.00    -0.325 A  
HETATM   16  C   UNL     1     -12.255  10.066  71.452  1.00  0.00    -0.416 A  
HETATM   17  C   UNL     1     -12.620  12.373  70.728  1.00  0.00    -0.298 A  
HETATM   18  C   UNL     1     -12.890  11.314  71.595  1.00  0.00    -0.510 A  
BRANCH  15  19
HETATM   19  S   UNL     1     -11.295  13.537  68.617  1.00  0.00    -0.310 S  
HETATM   20  O   UNL     1     -12.013  13.329  67.376  1.00  0.00    -0.363 OA 
HETATM   21  O   UNL     1      -9.850  13.645  68.627  1.00  0.00    -0.214 OA 
BRANCH  19  22
HETATM   22  C   UNL     1     -11.977  14.969  69.430  1.00  0.00    -0.303 C  
HETATM   23  C   UNL     1     -10.923  15.680  70.261  1.00  0.00    -0.363 C  
ENDBRANCH  19  22
ENDBRANCH  15  19
BRANCH  16  24
HETATM   24  O   UNL     1     -12.689   9.151  72.373  1.00  0.00    -0.382 OA 
HETATM   25  C   UNL     1     -14.061   8.776  72.317  1.00  0.00    -0.441 C  
ENDBRANCH  16  24
ENDBRANCH  10  13
ENDBRANCH   8   9
ENDBRANCH   7   8
ENDBRANCH   2   3
TORSDOF 7
ENDMDL
MODEL       85
REMARK 921   NORMALIZED FREE ENERGY PREDICTED BY IDOCK:   -5.19 KCAL/MOL
REMARK 922        TOTAL FREE ENERGY PREDICTED BY IDOCK:   -8.18 KCAL/MOL
REMARK 923 INTER-LIGAND FREE ENERGY PREDICTED BY IDOCK:   -7.05 KCAL/MOL
REMARK 924 INTRA-LIGAND FREE ENERGY PREDICTED BY IDOCK:   -1.14 KCAL/MOL
REMARK 927      BINDING AFFINITY PREDICTED BY RF-SCORE:    0.00 PKD
ROOT
HETATM    1  C   UNL     1      -6.409  20.177  68.762  1.00  0.00    -0.348 C  
HETATM    2  C   UNL     1      -7.194  18.934  69.166  1.00  0.00    -0.248 C  
ENDROOT
BRANCH   2   3
HETATM    3  N   UNL     1      -8.362  18.705  68.306  1.00  0.00    -0.314 NA 
HETATM    4  C   UNL     1      -9.486  19.589  68.629  1.00  0.00    -0.397 C  
HETATM    5  C   UNL     1     -10.358  19.469  67.399  1.00  0.00    -0.572 C  
HETATM    6  C   UNL     1      -9.358  19.442  66.257  1.00  0.00    -0.402 C  
HETATM    7  C   UNL     1      -8.050  18.912  66.871  1.00  0.00    -0.265 C  
BRANCH   7   8
HETATM    8  C   UNL     1      -7.587  17.595  66.208  1.00  0.00    -0.298 C  
BRANCH   8   9
HETATM    9  N   UNL     1      -8.622  16.570  66.135  1.00  0.00    -0.327 N  
HETATM   10  C   UNL     1      -8.479  15.334  66.739  1.00  0.00    -0.255 C  
HETATM   11  H   UNL     1      -9.481  16.772  65.621  1.00  0.00     0.000 HD 
HETATM   12  O   UNL     1      -7.476  15.016  67.364  1.00  0.00    -0.183 OA 
BRANCH  10  13
HETATM   13  C   UNL     1      -9.608  14.373  66.552  1.00  0.00    -0.310 A  
HETATM   14  C   UNL     1      -9.794  13.391  67.550  1.00  0.00    -0.227 A  
HETATM   15  C   UNL     1     -10.901  12.534  67.511  1.00  0.00    -0.232 A  
HETATM   16  C   UNL     1     -10.553  14.471  65.513  1.00  0.00    -0.351 A  
HETATM   17  C   UNL     1     -11.837  12.633  66.490  1.00  0.00    -0.463 A  
HETATM   18  C   UNL     1     -11.665  13.608  65.507  1.00  0.00    -0.352 A  
BRANCH  15  19
HETATM   19  S   UNL     1     -11.052  11.245  68.731  1.00  0.00    -0.258 S  
HETATM   20  O   UNL     1     -11.766  10.155  68.096  1.00  0.00    -0.199 OA 
HETATM   21  O   UNL     1     -11.565  11.864  69.938  1.00  0.00    -0.296 OA 
BRANCH  19  22
HETATM   22  C   UNL     1      -9.376  10.721  69.031  1.00  0.00    -0.156 C  
HETATM   23  C   UNL     1      -9.322   9.639  70.095  1.00  0.00    -0.294 C  
ENDBRANCH  19  22
ENDBRANCH  15  19
BRANCH  16  24
HETATM   24  O   UNL     1     -10.593  15.380  64.491  1.00  0.00    -0.238 OA 
HETATM   25  C   UNL     1     -11.745  16.210  64.406  1.00  0.00    -0.059 C  
ENDBRANCH  16  24
ENDBRANCH  10  13
ENDBRANCH   8   9
ENDBRANCH   7   8
ENDBRANCH   2   3
TORSDOF 7
ENDMDL
MODEL       86
REMARK 921   NORMALIZED FREE ENERGY PREDICTED BY IDOCK:   -5.17 KCAL/MOL
REMARK 922        TOTAL FREE ENERGY PREDICTED BY IDOCK:   -8.15 KCAL/MOL
REMARK 923 INTER-LIGAND FREE ENERGY PREDICTED BY IDOCK:   -7.32 KCAL/MOL
REMARK 924 INTRA-LIGAND FREE ENERGY PREDICTED BY IDOCK:   -0.83 KCAL/MOL
REMARK 927      BINDING AFFINITY PREDICTED BY RF-SCORE:    0.00 PKD
ROOT
HETATM    1  C   UNL     1     -11.501  14.071  67.094  1.00  0.00    -0.373 C  
HETATM    2  C   UNL     1     -11.650  12.553  67.106  1.00  0.00    -0.368 C  
ENDROOT
BRANCH   2   3
HETATM    3  N   UNL     1     -11.716  11.985  65.754  1.00  0.00    -0.442 NA 
HETATM    4  C   UNL     1     -12.766  12.594  64.934  1.00  0.00    -0.370 C  
HETATM    5  C   UNL     1     -12.372  12.175  63.535  1.00  0.00    -0.682 C  
HETATM    6  C   UNL     1     -10.858  12.304  63.540  1.00  0.00    -0.508 C  
HETATM    7  C   UNL     1     -10.441  12.151  65.014  1.00  0.00    -0.290 C  
BRANCH   7   8
HETATM    8  C   UNL     1      -9.509  10.939  65.233  1.00  0.00    -0.217 C  
BRANCH   8   9
HETATM    9  N   UNL     1     -10.041   9.939  66.152  1.00  0.00    -0.255 N  
HETATM   10  C   UNL     1      -9.259   9.343  67.126  1.00  0.00    -0.134 C  
HETATM   11  H   UNL     1     -11.022   9.671  66.075  1.00  0.00     0.000 HD 
HETATM   12  O   UNL     1      -8.073   9.606  67.273  1.00  0.00    -0.109 OA 
BRANCH  10  13
HETATM   13  C   UNL     1      -9.932   8.312  67.974  1.00  0.00    -0.224 A  
HETATM   14  C   UNL     1     -10.487   8.745  69.198  1.00  0.00    -0.230 A  
HETATM   15  C   UNL     1     -11.239   7.869  69.990  1.00  0.00    -0.100 A  
HETATM   16  C   UNL     1     -10.144   6.982  67.565  1.00  0.00    -0.185 A  
HETATM   17  C   UNL     1     -11.455   6.557  69.586  1.00  0.00    -0.417 A  
HETATM   18  C   UNL     1     -10.917   6.127  68.372  1.00  0.00    -0.391 A  
BRANCH  15  19
HETATM   19  S   UNL     1     -11.843   8.419  71.572  1.00  0.00    -0.312 S  
HETATM   20  O   UNL     1     -13.030   7.639  71.858  1.00  0.00    -0.312 OA 
HETATM   21  O   UNL     1     -11.902   9.867  71.522  1.00  0.00    -0.381 OA 
BRANCH  19  22
HETATM   22  C   UNL     1     -10.566   7.944  72.721  1.00  0.00    -0.353 C  
HETATM   23  C   UNL     1     -10.794   6.535  73.241  1.00  0.00    -0.276 C  
ENDBRANCH  19  22
ENDBRANCH  15  19
BRANCH  16  24
HETATM   24  O   UNL     1      -9.748   6.383  66.400  1.00  0.00    -0.159 OA 
HETATM   25  C   UNL     1     -10.314   5.113  66.100  1.00  0.00    -0.236 C  
ENDBRANCH  16  24
ENDBRANCH  10  13
ENDBRANCH   8   9
ENDBRANCH   7   8
ENDBRANCH   2   3
TORSDOF 7
ENDMDL
MODEL       87
REMARK 921   NORMALIZED FREE ENERGY PREDICTED BY IDOCK:   -5.16 KCAL/MOL
REMARK 922        TOTAL FREE ENERGY PREDICTED BY IDOCK:   -8.15 KCAL/MOL
REMARK 923 INTER-LIGAND FREE ENERGY PREDICTED BY IDOCK:   -7.02 KCAL/MOL
REMARK 924 INTRA-LIGAND FREE ENERGY PREDICTED BY IDOCK:   -1.12 KCAL/MOL
REMARK 927      BINDING AFFINITY PREDICTED BY RF-SCORE:    0.00 PKD
ROOT
HETATM    1  C   UNL     1      -7.019   4.838  67.869  1.00  0.00    -0.061 C  
HETATM    2  C   UNL     1      -8.368   4.360  67.341  1.00  0.00    -0.100 C  
ENDROOT
BRANCH   2   3
HETATM    3  N   UNL     1      -9.467   4.644  68.272  1.00  0.00    -0.140 NA 
HETATM    4  C   UNL     1      -9.247   4.068  69.602  1.00  0.00    -0.147 C  
HETATM    5  C   UNL     1     -10.246   4.821  70.452  1.00  0.00    -0.261 C  
HETATM    6  C   UNL     1     -10.172   6.239  69.913  1.00  0.00    -0.232 C  
HETATM    7  C   UNL     1      -9.678   6.100  68.463  1.00  0.00    -0.127 C  
BRANCH   7   8
HETATM    8  C   UNL     1     -10.699   6.651  67.443  1.00  0.00    -0.339 C  
BRANCH   8   9
HETATM    9  N   UNL     1     -11.055   8.050  67.655  1.00  0.00    -0.435 N  
HETATM   10  C   UNL     1     -10.447   9.079  66.958  1.00  0.00    -0.246 C  
HETATM   11  H   UNL     1     -11.777   8.277  68.339  1.00  0.00     0.000 HD 
HETATM   12  O   UNL     1      -9.568   8.885  66.129  1.00  0.00    -0.234 OA 
BRANCH  10  13
HETATM   13  C   UNL     1     -10.891  10.463  67.304  1.00  0.00    -0.324 A  
HETATM   14  C   UNL     1     -11.124  11.354  66.233  1.00  0.00    -0.281 A  
HETATM   15  C   UNL     1     -11.659  12.626  66.466  1.00  0.00    -0.381 A  
HETATM   16  C   UNL     1     -11.201  10.880  68.612  1.00  0.00    -0.267 A  
HETATM   17  C   UNL     1     -11.971  13.038  67.756  1.00  0.00    -0.344 A  
HETATM   18  C   UNL     1     -11.752  12.159  68.817  1.00  0.00    -0.374 A  
BRANCH  15  19
HETATM   19  S   UNL     1     -11.850  13.758  65.105  1.00  0.00    -0.374 S  
HETATM   20  O   UNL     1     -13.262  14.074  65.022  1.00  0.00    -0.720 OA 
HETATM   21  O   UNL     1     -11.153  13.179  63.973  1.00  0.00    -0.384 OA 
BRANCH  19  22
HETATM   22  C   UNL     1     -10.975  15.222  65.621  1.00  0.00    -0.344 C  
HETATM   23  C   UNL     1      -9.515  14.915  65.906  1.00  0.00    -0.290 C  
ENDBRANCH  19  22
ENDBRANCH  15  19
BRANCH  16  24
HETATM   24  O   UNL     1     -11.108  10.160  69.772  1.00  0.00    -0.246 OA 
HETATM   25  C   UNL     1     -12.008  10.500  70.820  1.00  0.00    -0.370 C  
ENDBRANCH  16  24
ENDBRANCH  10  13
ENDBRANCH   8   9
ENDBRANCH   7   8
ENDBRANCH   2   3
TORSDOF 7
ENDMDL
MODEL       88
REMARK 921   NORMALIZED FREE ENERGY PREDICTED BY IDOCK:   -5.16 KCAL/MOL
REMARK 922        TOTAL FREE ENERGY PREDICTED BY IDOCK:   -8.13 KCAL/MOL
REMARK 923 INTER-LIGAND FREE ENERGY PREDICTED BY IDOCK:   -6.91 KCAL/MOL
REMARK 924 INTRA-LIGAND FREE ENERGY PREDICTED BY IDOCK:   -1.23 KCAL/MOL
REMARK 927      BINDING AFFINITY PREDICTED BY RF-SCORE:    0.00 PKD
ROOT
HETATM    1  C   UNL     1      -9.553  20.781  66.956  1.00  0.00    -0.411 C  
HETATM    2  C   UNL     1      -9.929  19.602  66.065  1.00  0.00    -0.422 C  
ENDROOT
BRANCH   2   3
HETATM    3  N   UNL     1      -9.322  18.344  66.514  1.00  0.00    -0.308 NA 
HETATM    4  C   UNL     1      -7.902  18.242  66.166  1.00  0.00    -0.204 C  
HETATM    5  C   UNL     1      -7.426  17.122  67.063  1.00  0.00    -0.223 C  
HETATM    6  C   UNL     1      -8.154  17.381  68.371  1.00  0.00    -0.264 C  
HETATM    7  C   UNL     1      -9.418  18.169  67.985  1.00  0.00    -0.285 C  
BRANCH   7   8
HETATM    8  C   UNL     1     -10.713  17.421  68.372  1.00  0.00    -0.301 C  
BRANCH   8   9
HETATM    9  N   UNL     1     -10.779  16.051  67.874  1.00  0.00    -0.307 N  
HETATM   10  C   UNL     1     -11.286  15.014  68.637  1.00  0.00    -0.296 C  
HETATM   11  H   UNL     1     -10.441  15.851  66.933  1.00  0.00     0.000 HD 
HETATM   12  O   UNL     1     -11.701  15.174  69.777  1.00  0.00    -0.278 OA 
BRANCH  10  13
HETATM   13  C   UNL     1     -11.261  13.658  68.008  1.00  0.00    -0.295 A  
HETATM   14  C   UNL     1     -10.874  12.574  68.824  1.00  0.00    -0.276 A  
HETATM   15  C   UNL     1     -10.943  11.260  68.346  1.00  0.00    -0.219 A  
HETATM   16  C   UNL     1     -11.713  13.396  66.701  1.00  0.00    -0.385 A  
HETATM   17  C   UNL     1     -11.395  10.998  67.059  1.00  0.00    -0.164 A  
HETATM   18  C   UNL     1     -11.788  12.065  66.250  1.00  0.00    -0.225 A  
BRANCH  15  19
HETATM   19  S   UNL     1     -10.356   9.924  69.368  1.00  0.00    -0.238 S  
HETATM   20  O   UNL     1      -8.966  10.209  69.665  1.00  0.00    -0.202 OA 
HETATM   21  O   UNL     1     -10.735   8.690  68.709  1.00  0.00    -0.174 OA 
BRANCH  19  22
HETATM   22  C   UNL     1     -11.296  10.074  70.874  1.00  0.00    -0.361 C  
HETATM   23  C   UNL     1     -12.788  10.099  70.589  1.00  0.00    -0.314 C  
ENDBRANCH  19  22
ENDBRANCH  15  19
BRANCH  16  24
HETATM   24  O   UNL     1     -12.186  14.287  65.776  1.00  0.00    -0.408 OA 
HETATM   25  C   UNL     1     -11.443  14.425  64.570  1.00  0.00    -0.345 C  
ENDBRANCH  16  24
ENDBRANCH  10  13
ENDBRANCH   8   9
ENDBRANCH   7   8
ENDBRANCH   2   3
TORSDOF 7
ENDMDL
MODEL       89
REMARK 921   NORMALIZED FREE ENERGY PREDICTED BY IDOCK:   -5.14 KCAL/MOL
REMARK 922        TOTAL FREE ENERGY PREDICTED BY IDOCK:   -8.11 KCAL/MOL
REMARK 923 INTER-LIGAND FREE ENERGY PREDICTED BY IDOCK:   -7.26 KCAL/MOL
REMARK 924 INTRA-LIGAND FREE ENERGY PREDICTED BY IDOCK:   -0.85 KCAL/MOL
REMARK 927      BINDING AFFINITY PREDICTED BY RF-SCORE:    0.00 PKD
ROOT
HETATM    1  C   UNL     1      -8.932   9.008  70.871  1.00  0.00    -0.300 C  
HETATM    2  C   UNL     1      -9.956   8.920  69.744  1.00  0.00    -0.191 C  
ENDROOT
BRANCH   2   3
HETATM    3  N   UNL     1     -11.319   8.697  70.241  1.00  0.00    -0.194 NA 
HETATM    4  C   UNL     1     -11.511   7.350  70.784  1.00  0.00    -0.288 C  
HETATM    5  C   UNL     1     -12.788   7.499  71.581  1.00  0.00    -0.392 C  
HETATM    6  C   UNL     1     -12.642   8.865  72.230  1.00  0.00    -0.455 C  
HETATM    7  C   UNL     1     -11.686   9.651  71.316  1.00  0.00    -0.382 C  
BRANCH   7   8
HETATM    8  C   UNL     1     -12.349  10.919  70.732  1.00  0.00    -0.390 C  
BRANCH   8   9
HETATM    9  N   UNL     1     -11.415  11.833  70.084  1.00  0.00    -0.510 N  
HETATM   10  C   UNL     1     -11.394  12.015  68.713  1.00  0.00    -0.278 C  
HETATM   11  H   UNL     1     -10.755  12.356  70.661  1.00  0.00     0.000 HD 
HETATM   12  O   UNL     1     -12.147  11.418  67.956  1.00  0.00    -0.629 OA 
BRANCH  10  13
HETATM   13  C   UNL     1     -10.361  12.959  68.188  1.00  0.00    -0.243 A  
HETATM   14  C   UNL     1     -10.509  14.325  68.513  1.00  0.00    -0.253 A  
HETATM   15  C   UNL     1      -9.520  15.253  68.165  1.00  0.00    -0.203 A  
HETATM   16  C   UNL     1      -9.203  12.547  67.501  1.00  0.00    -0.188 A  
HETATM   17  C   UNL     1      -8.374  14.848  67.492  1.00  0.00    -0.195 A  
HETATM   18  C   UNL     1      -8.217  13.498  67.177  1.00  0.00    -0.126 A  
BRANCH  15  19
HETATM   19  S   UNL     1      -9.784  16.982  68.504  1.00  0.00    -0.294 S  
HETATM   20  O   UNL     1      -8.475  17.568  68.712  1.00  0.00    -0.274 OA 
HETATM   21  O   UNL     1     -10.802  17.060  69.532  1.00  0.00    -0.264 OA 
BRANCH  19  22
HETATM   22  C   UNL     1     -10.458  17.632  66.988  1.00  0.00    -0.305 C  
HETATM   23  C   UNL     1     -10.731  19.121  67.105  1.00  0.00    -0.567 C  
ENDBRANCH  19  22
ENDBRANCH  15  19
BRANCH  16  24
HETATM   24  O   UNL     1      -8.839  11.276  67.147  1.00  0.00    -0.147 OA 
HETATM   25  C   UNL     1      -9.060  10.893  65.794  1.00  0.00    -0.196 C  
ENDBRANCH  16  24
ENDBRANCH  10  13
ENDBRANCH   8   9
ENDBRANCH   7   8
ENDBRANCH   2   3
TORSDOF 7
ENDMDL
MODEL       90
REMARK 921   NORMALIZED FREE ENERGY PREDICTED BY IDOCK:   -5.13 KCAL/MOL
REMARK 922        TOTAL FREE ENERGY PREDICTED BY IDOCK:   -8.10 KCAL/MOL
REMARK 923 INTER-LIGAND FREE ENERGY PREDICTED BY IDOCK:   -7.01 KCAL/MOL
REMARK 924 INTRA-LIGAND FREE ENERGY PREDICTED BY IDOCK:   -1.09 KCAL/MOL
REMARK 927      BINDING AFFINITY PREDICTED BY RF-SCORE:    0.00 PKD
ROOT
HETATM    1  C   UNL     1     -10.102  19.984  68.149  1.00  0.00    -0.547 C  
HETATM    2  C   UNL     1     -10.642  18.868  67.260  1.00  0.00    -0.456 C  
ENDROOT
BRANCH   2   3
HETATM    3  N   UNL     1      -9.962  17.588  67.491  1.00  0.00    -0.304 NA 
HETATM    4  C   UNL     1      -8.522  17.743  67.716  1.00  0.00    -0.236 C  
HETATM    5  C   UNL     1      -8.143  16.412  68.326  1.00  0.00    -0.171 C  
HETATM    6  C   UNL     1      -9.307  16.101  69.251  1.00  0.00    -0.227 C  
HETATM    7  C   UNL     1     -10.507  16.869  68.668  1.00  0.00    -0.352 C  
BRANCH   7   8
HETATM    8  C   UNL     1     -11.659  15.925  68.257  1.00  0.00    -0.272 C  
BRANCH   8   9
HETATM    9  N   UNL     1     -11.224  14.737  67.530  1.00  0.00    -0.320 N  
HETATM   10  C   UNL     1     -11.540  13.458  67.952  1.00  0.00    -0.339 C  
HETATM   11  H   UNL     1     -10.670  14.854  66.682  1.00  0.00     0.000 HD 
HETATM   12  O   UNL     1     -12.193  13.239  68.963  1.00  0.00    -0.277 OA 
BRANCH  10  13
HETATM   13  C   UNL     1     -10.999  12.338  67.125  1.00  0.00    -0.308 A  
HETATM   14  C   UNL     1     -10.850  11.082  67.754  1.00  0.00    -0.297 A  
HETATM   15  C   UNL     1     -10.467   9.955  67.017  1.00  0.00    -0.230 A  
HETATM   16  C   UNL     1     -10.749  12.437  65.743  1.00  0.00    -0.267 A  
HETATM   17  C   UNL     1     -10.226  10.050  65.652  1.00  0.00    -0.258 A  
HETATM   18  C   UNL     1     -10.381  11.285  65.023  1.00  0.00    -0.359 A  
BRANCH  15  19
HETATM   19  S   UNL     1     -10.195   8.410  67.860  1.00  0.00    -0.222 S  
HETATM   20  O   UNL     1     -10.869   7.389  67.082  1.00  0.00    -0.331 OA 
HETATM   21  O   UNL     1     -10.532   8.623  69.253  1.00  0.00    -0.220 OA 
BRANCH  19  22
HETATM   22  C   UNL     1      -8.437   8.143  67.736  1.00  0.00    -0.132 C  
HETATM   23  C   UNL     1      -7.918   7.357  68.928  1.00  0.00    -0.126 C  
ENDBRANCH  19  22
ENDBRANCH  15  19
BRANCH  16  24
HETATM   24  O   UNL     1     -10.890  13.534  64.937  1.00  0.00    -0.322 OA 
HETATM   25  C   UNL     1     -11.809  13.430  63.856  1.00  0.00    -0.439 C  
ENDBRANCH  16  24
ENDBRANCH  10  13
ENDBRANCH   8   9
ENDBRANCH   7   8
ENDBRANCH   2   3
TORSDOF 7
ENDMDL
MODEL       91
REMARK 921   NORMALIZED FREE ENERGY PREDICTED BY IDOCK:   -5.12 KCAL/MOL
REMARK 922        TOTAL FREE ENERGY PREDICTED BY IDOCK:   -8.09 KCAL/MOL
REMARK 923 INTER-LIGAND FREE ENERGY PREDICTED BY IDOCK:   -6.94 KCAL/MOL
REMARK 924 INTRA-LIGAND FREE ENERGY PREDICTED BY IDOCK:   -1.15 KCAL/MOL
REMARK 927      BINDING AFFINITY PREDICTED BY RF-SCORE:    0.00 PKD
ROOT
HETATM    1  C   UNL     1      -9.541  15.752  69.301  1.00  0.00    -0.270 C  
HETATM    2  C   UNL     1     -10.715  16.719  69.193  1.00  0.00    -0.329 C  
ENDROOT
BRANCH   2   3
HETATM    3  N   UNL     1     -10.546  17.685  68.100  1.00  0.00    -0.377 NA 
HETATM    4  C   UNL     1      -9.957  18.950  68.548  1.00  0.00    -0.406 C  
HETATM    5  C   UNL     1      -9.508  19.578  67.247  1.00  0.00    -0.422 C  
HETATM    6  C   UNL     1      -8.958  18.403  66.458  1.00  0.00    -0.294 C  
HETATM    7  C   UNL     1      -9.674  17.162  67.020  1.00  0.00    -0.265 C  
BRANCH   7   8
HETATM    8  C   UNL     1     -10.504  16.430  65.942  1.00  0.00    -0.337 C  
BRANCH   8   9
HETATM    9  N   UNL     1     -10.213  15.005  65.834  1.00  0.00    -0.293 N  
HETATM   10  C   UNL     1     -11.034  14.041  66.392  1.00  0.00    -0.308 C  
HETATM   11  H   UNL     1      -9.376  14.709  65.330  1.00  0.00     0.000 HD 
HETATM   12  O   UNL     1     -12.048  14.318  67.017  1.00  0.00    -0.425 OA 
BRANCH  10  13
HETATM   13  C   UNL     1     -10.591  12.622  66.229  1.00  0.00    -0.274 A  
HETATM   14  C   UNL     1     -10.362  11.877  67.406  1.00  0.00    -0.228 A  
HETATM   15  C   UNL     1     -10.067  10.510  67.339  1.00  0.00    -0.197 A  
HETATM   16  C   UNL     1     -10.510  11.968  64.985  1.00  0.00    -0.287 A  
HETATM   17  C   UNL     1      -9.992   9.861  66.113  1.00  0.00    -0.331 A  
HETATM   18  C   UNL     1     -10.227  10.590  64.947  1.00  0.00    -0.371 A  
BRANCH  15  19
HETATM   19  S   UNL     1      -9.689   9.622  68.836  1.00  0.00    -0.168 S  
HETATM   20  O   UNL     1     -10.452   8.391  68.792  1.00  0.00    -0.214 OA 
HETATM   21  O   UNL     1      -9.852  10.556  69.933  1.00  0.00    -0.107 OA 
BRANCH  19  22
HETATM   22  C   UNL     1      -7.959   9.220  68.687  1.00  0.00    -0.100 C  
HETATM   23  C   UNL     1      -7.681   7.809  69.177  1.00  0.00    -0.101 C  
ENDBRANCH  19  22
ENDBRANCH  15  19
BRANCH  16  24
HETATM   24  O   UNL     1     -10.752  12.486  63.741  1.00  0.00    -0.405 OA 
HETATM   25  C   UNL     1     -12.104  12.503  63.298  1.00  0.00    -0.430 C  
ENDBRANCH  16  24
ENDBRANCH  10  13
ENDBRANCH   8   9
ENDBRANCH   7   8
ENDBRANCH   2   3
TORSDOF 7
ENDMDL
MODEL       92
REMARK 921   NORMALIZED FREE ENERGY PREDICTED BY IDOCK:   -5.12 KCAL/MOL
REMARK 922        TOTAL FREE ENERGY PREDICTED BY IDOCK:   -8.08 KCAL/MOL
REMARK 923 INTER-LIGAND FREE ENERGY PREDICTED BY IDOCK:   -7.27 KCAL/MOL
REMARK 924 INTRA-LIGAND FREE ENERGY PREDICTED BY IDOCK:   -0.82 KCAL/MOL
REMARK 927      BINDING AFFINITY PREDICTED BY RF-SCORE:    0.00 PKD
ROOT
HETATM    1  C   UNL     1     -11.620  14.239  67.121  1.00  0.00    -0.402 C  
HETATM    2  C   UNL     1     -11.702  12.717  67.144  1.00  0.00    -0.371 C  
ENDROOT
BRANCH   2   3
HETATM    3  N   UNL     1     -11.833  12.143  65.799  1.00  0.00    -0.513 NA 
HETATM    4  C   UNL     1     -12.703  12.936  64.926  1.00  0.00    -0.403 C  
HETATM    5  C   UNL     1     -12.351  12.411  63.552  1.00  0.00    -0.648 C  
HETATM    6  C   UNL     1     -10.845  12.224  63.618  1.00  0.00    -0.522 C  
HETATM    7  C   UNL     1     -10.524  12.024  65.110  1.00  0.00    -0.289 C  
BRANCH   7   8
HETATM    8  C   UNL     1      -9.873  10.650  65.387  1.00  0.00    -0.267 C  
BRANCH   8   9
HETATM    9  N   UNL     1      -9.629  10.383  66.800  1.00  0.00    -0.167 N  
HETATM   10  C   UNL     1     -10.089   9.236  67.423  1.00  0.00    -0.223 C  
HETATM   11  H   UNL     1      -9.101  11.063  67.347  1.00  0.00     0.000 HD 
HETATM   12  O   UNL     1     -10.736   8.379  66.835  1.00  0.00    -0.279 OA 
BRANCH  10  13
HETATM   13  C   UNL     1      -9.790   9.113  68.882  1.00  0.00    -0.179 A  
HETATM   14  C   UNL     1     -10.782   8.525  69.698  1.00  0.00    -0.200 A  
HETATM   15  C   UNL     1     -10.531   8.261  71.050  1.00  0.00    -0.202 A  
HETATM   16  C   UNL     1      -8.545   9.435  69.455  1.00  0.00    -0.148 A  
HETATM   17  C   UNL     1      -9.301   8.573  71.615  1.00  0.00    -0.311 A  
HETATM   18  C   UNL     1      -8.314   9.145  70.812  1.00  0.00    -0.248 A  
BRANCH  15  19
HETATM   19  S   UNL     1     -11.836   7.609  72.071  1.00  0.00    -0.312 S  
HETATM   20  O   UNL     1     -11.412   7.781  73.446  1.00  0.00    -0.237 OA 
HETATM   21  O   UNL     1     -12.159   6.293  71.555  1.00  0.00    -0.286 OA 
BRANCH  19  22
HETATM   22  C   UNL     1     -13.218   8.692  71.768  1.00  0.00    -0.363 C  
HETATM   23  C   UNL     1     -12.797  10.150  71.839  1.00  0.00    -0.526 C  
ENDBRANCH  19  22
ENDBRANCH  15  19
BRANCH  16  24
HETATM   24  O   UNL     1      -7.440   9.951  68.835  1.00  0.00    -0.075 OA 
HETATM   25  C   UNL     1      -6.503  10.643  69.652  1.00  0.00    -0.096 C  
ENDBRANCH  16  24
ENDBRANCH  10  13
ENDBRANCH   8   9
ENDBRANCH   7   8
ENDBRANCH   2   3
TORSDOF 7
ENDMDL
MODEL       93
REMARK 921   NORMALIZED FREE ENERGY PREDICTED BY IDOCK:   -5.11 KCAL/MOL
REMARK 922        TOTAL FREE ENERGY PREDICTED BY IDOCK:   -8.08 KCAL/MOL
REMARK 923 INTER-LIGAND FREE ENERGY PREDICTED BY IDOCK:   -6.93 KCAL/MOL
REMARK 924 INTRA-LIGAND FREE ENERGY PREDICTED BY IDOCK:   -1.15 KCAL/MOL
REMARK 927      BINDING AFFINITY PREDICTED BY RF-SCORE:    0.00 PKD
ROOT
HETATM    1  C   UNL     1     -10.025  16.737  65.858  1.00  0.00    -0.299 C  
HETATM    2  C   UNL     1      -9.234  15.651  66.580  1.00  0.00    -0.293 C  
ENDROOT
BRANCH   2   3
HETATM    3  N   UNL     1      -9.926  15.153  67.775  1.00  0.00    -0.224 NA 
HETATM    4  C   UNL     1      -9.548  15.876  68.992  1.00  0.00    -0.247 C  
HETATM    5  C   UNL     1     -10.651  15.494  69.954  1.00  0.00    -0.322 C  
HETATM    6  C   UNL     1     -11.898  15.509  69.087  1.00  0.00    -0.373 C  
HETATM    7  C   UNL     1     -11.401  15.258  67.652  1.00  0.00    -0.312 C  
BRANCH   7   8
HETATM    8  C   UNL     1     -12.001  13.971  67.044  1.00  0.00    -0.438 C  
BRANCH   8   9
HETATM    9  N   UNL     1     -11.995  12.827  67.950  1.00  0.00    -0.324 N  
HETATM   10  C   UNL     1     -11.067  11.806  67.841  1.00  0.00    -0.245 C  
HETATM   11  H   UNL     1     -12.697  12.778  68.688  1.00  0.00     0.000 HD 
HETATM   12  O   UNL     1     -10.201  11.791  66.977  1.00  0.00    -0.210 OA 
BRANCH  10  13
HETATM   13  C   UNL     1     -11.203  10.684  68.818  1.00  0.00    -0.337 A  
HETATM   14  C   UNL     1     -10.592   9.456  68.482  1.00  0.00    -0.234 A  
HETATM   15  C   UNL     1     -10.568   8.396  69.396  1.00  0.00    -0.197 A  
HETATM   16  C   UNL     1     -11.795  10.821  70.088  1.00  0.00    -0.343 A  
HETATM   17  C   UNL     1     -11.146   8.532  70.652  1.00  0.00    -0.280 A  
HETATM   18  C   UNL     1     -11.743   9.745  70.994  1.00  0.00    -0.453 A  
BRANCH  15  19
HETATM   19  S   UNL     1      -9.875   6.831  68.904  1.00  0.00    -0.147 S  
HETATM   20  O   UNL     1      -9.981   5.951  70.051  1.00  0.00    -0.167 OA 
HETATM   21  O   UNL     1      -8.586   7.111  68.302  1.00  0.00    -0.123 OA 
BRANCH  19  22
HETATM   22  C   UNL     1     -10.977   6.239  67.636  1.00  0.00    -0.342 C  
HETATM   23  C   UNL     1     -10.277   5.248  66.721  1.00  0.00    -0.287 C  
ENDBRANCH  19  22
ENDBRANCH  15  19
BRANCH  16  24
HETATM   24  O   UNL     1     -12.382  11.933  70.630  1.00  0.00    -0.356 OA 
HETATM   25  C   UNL     1     -13.067  11.765  71.865  1.00  0.00    -0.376 C  
ENDBRANCH  16  24
ENDBRANCH  10  13
ENDBRANCH   8   9
ENDBRANCH   7   8
ENDBRANCH   2   3
TORSDOF 7
ENDMDL
MODEL       94
REMARK 921   NORMALIZED FREE ENERGY PREDICTED BY IDOCK:   -5.11 KCAL/MOL
REMARK 922        TOTAL FREE ENERGY PREDICTED BY IDOCK:   -8.07 KCAL/MOL
REMARK 923 INTER-LIGAND FREE ENERGY PREDICTED BY IDOCK:   -7.07 KCAL/MOL
REMARK 924 INTRA-LIGAND FREE ENERGY PREDICTED BY IDOCK:   -0.99 KCAL/MOL
REMARK 927      BINDING AFFINITY PREDICTED BY RF-SCORE:    0.00 PKD
ROOT
HETATM    1  C   UNL     1      -9.400  15.576  65.726  1.00  0.00    -0.292 C  
HETATM    2  C   UNL     1     -10.885  15.914  65.640  1.00  0.00    -0.284 C  
ENDROOT
BRANCH   2   3
HETATM    3  N   UNL     1     -11.733  14.716  65.628  1.00  0.00    -0.334 NA 
HETATM    4  C   UNL     1     -12.103  14.296  64.274  1.00  0.00    -0.441 C  
HETATM    5  C   UNL     1     -12.583  12.878  64.492  1.00  0.00    -0.420 C  
HETATM    6  C   UNL     1     -11.605  12.327  65.514  1.00  0.00    -0.422 C  
HETATM    7  C   UNL     1     -11.070  13.555  66.272  1.00  0.00    -0.300 C  
BRANCH   7   8
HETATM    8  C   UNL     1     -11.397  13.496  67.781  1.00  0.00    -0.296 C  
BRANCH   8   9
HETATM    9  N   UNL     1     -10.618  12.509  68.521  1.00  0.00    -0.240 N  
HETATM   10  C   UNL     1     -11.154  11.300  68.925  1.00  0.00    -0.238 C  
HETATM   11  H   UNL     1      -9.645  12.718  68.746  1.00  0.00     0.000 HD 
HETATM   12  O   UNL     1     -12.314  10.983  68.699  1.00  0.00    -0.539 OA 
BRANCH  10  13
HETATM   13  C   UNL     1     -10.246  10.402  69.702  1.00  0.00    -0.245 A  
HETATM   14  C   UNL     1     -10.832   9.604  70.709  1.00  0.00    -0.400 A  
HETATM   15  C   UNL     1     -10.072   8.649  71.396  1.00  0.00    -0.254 A  
HETATM   16  C   UNL     1      -8.881  10.226  69.406  1.00  0.00    -0.163 A  
HETATM   17  C   UNL     1      -8.727   8.469  71.100  1.00  0.00    -0.215 A  
HETATM   18  C   UNL     1      -8.144   9.248  70.100  1.00  0.00    -0.152 A  
BRANCH  15  19
HETATM   19  S   UNL     1     -10.819   7.728  72.725  1.00  0.00    -0.398 S  
HETATM   20  O   UNL     1     -12.136   8.295  72.933  1.00  0.00    -0.290 OA 
HETATM   21  O   UNL     1      -9.852   7.684  73.804  1.00  0.00    -0.286 OA 
BRANCH  19  22
HETATM   22  C   UNL     1     -11.011   6.083  72.068  1.00  0.00    -0.263 C  
HETATM   23  C   UNL     1     -11.333   6.119  70.585  1.00  0.00    -0.368 C  
ENDBRANCH  19  22
ENDBRANCH  15  19
BRANCH  16  24
HETATM   24  O   UNL     1      -8.140  10.847  68.437  1.00  0.00    -0.116 OA 
HETATM   25  C   UNL     1      -7.091  11.704  68.875  1.00  0.00    -0.115 C  
ENDBRANCH  16  24
ENDBRANCH  10  13
ENDBRANCH   8   9
ENDBRANCH   7   8
ENDBRANCH   2   3
TORSDOF 7
ENDMDL
MODEL       95
REMARK 921   NORMALIZED FREE ENERGY PREDICTED BY IDOCK:   -5.08 KCAL/MOL
REMARK 922        TOTAL FREE ENERGY PREDICTED BY IDOCK:   -8.03 KCAL/MOL
REMARK 923 INTER-LIGAND FREE ENERGY PREDICTED BY IDOCK:   -6.92 KCAL/MOL
REMARK 924 INTRA-LIGAND FREE ENERGY PREDICTED BY IDOCK:   -1.11 KCAL/MOL
REMARK 927      BINDING AFFINITY PREDICTED BY RF-SCORE:    0.00 PKD
ROOT
HETATM    1  C   UNL     1     -14.145   7.642  71.825  1.00  0.00    -0.510 C  
HETATM    2  C   UNL     1     -12.992   8.594  71.527  1.00  0.00    -0.312 C  
ENDROOT
BRANCH   2   3
HETATM    3  N   UNL     1     -11.687   7.923  71.561  1.00  0.00    -0.274 NA 
HETATM    4  C   UNL     1     -11.142   7.812  72.917  1.00  0.00    -0.398 C  
HETATM    5  C   UNL     1     -10.066   6.762  72.750  1.00  0.00    -0.197 C  
HETATM    6  C   UNL     1     -10.697   5.756  71.803  1.00  0.00    -0.305 C  
HETATM    7  C   UNL     1     -11.750   6.548  71.008  1.00  0.00    -0.343 C  
BRANCH   7   8
HETATM    8  C   UNL     1     -11.458   6.546  69.491  1.00  0.00    -0.319 C  
BRANCH   8   9
HETATM    9  N   UNL     1     -10.858   7.782  68.999  1.00  0.00    -0.414 N  
HETATM   10  C   UNL     1     -10.574   7.981  67.660  1.00  0.00    -0.194 C  
HETATM   11  H   UNL     1     -10.641   8.524  69.665  1.00  0.00     0.000 HD 
HETATM   12  O   UNL     1     -10.798   7.135  66.804  1.00  0.00    -0.320 OA 
BRANCH  10  13
HETATM   13  C   UNL     1      -9.931   9.283  67.308  1.00  0.00    -0.264 A  
HETATM   14  C   UNL     1     -10.669  10.170  66.494  1.00  0.00    -0.118 A  
HETATM   15  C   UNL     1     -10.189  11.457  66.222  1.00  0.00    -0.233 A  
HETATM   16  C   UNL     1      -8.699   9.713  67.836  1.00  0.00    -0.119 A  
HETATM   17  C   UNL     1      -8.977  11.886  66.748  1.00  0.00    -0.196 A  
HETATM   18  C   UNL     1      -8.247  11.017  67.560  1.00  0.00    -0.117 A  
BRANCH  15  19
HETATM   19  S   UNL     1     -11.099  12.514  65.115  1.00  0.00    -0.310 S  
HETATM   20  O   UNL     1     -10.356  13.756  65.023  1.00  0.00    -0.359 OA 
HETATM   21  O   UNL     1     -12.478  12.507  65.561  1.00  0.00    -0.646 OA 
BRANCH  19  22
HETATM   22  C   UNL     1     -11.009  11.687  63.540  1.00  0.00    -0.407 C  
HETATM   23  C   UNL     1      -9.570  11.371  63.168  1.00  0.00    -0.398 C  
ENDBRANCH  19  22
ENDBRANCH  15  19
BRANCH  16  24
HETATM   24  O   UNL     1      -7.864   9.040  68.685  1.00  0.00    -0.098 OA 
HETATM   25  C   UNL     1      -6.792   8.312  68.097  1.00  0.00    -0.069 C  
ENDBRANCH  16  24
ENDBRANCH  10  13
ENDBRANCH   8   9
ENDBRANCH   7   8
ENDBRANCH   2   3
TORSDOF 7
ENDMDL
MODEL       96
REMARK 921   NORMALIZED FREE ENERGY PREDICTED BY IDOCK:   -5.07 KCAL/MOL
REMARK 922        TOTAL FREE ENERGY PREDICTED BY IDOCK:   -8.02 KCAL/MOL
REMARK 923 INTER-LIGAND FREE ENERGY PREDICTED BY IDOCK:   -7.50 KCAL/MOL
REMARK 924 INTRA-LIGAND FREE ENERGY PREDICTED BY IDOCK:   -0.51 KCAL/MOL
REMARK 927      BINDING AFFINITY PREDICTED BY RF-SCORE:    0.00 PKD
ROOT
HETATM    1  C   UNL     1      -8.796  10.142  64.188  1.00  0.00    -0.243 C  
HETATM    2  C   UNL     1      -8.310   9.600  65.528  1.00  0.00    -0.139 C  
ENDROOT
BRANCH   2   3
HETATM    3  N   UNL     1      -9.152   8.509  66.031  1.00  0.00    -0.187 NA 
HETATM    4  C   UNL     1      -8.512   7.196  65.910  1.00  0.00    -0.147 C  
HETATM    5  C   UNL     1      -9.346   6.341  66.839  1.00  0.00    -0.148 C  
HETATM    6  C   UNL     1      -9.612   7.257  68.020  1.00  0.00    -0.148 C  
HETATM    7  C   UNL     1      -9.504   8.687  67.462  1.00  0.00    -0.149 C  
BRANCH   7   8
HETATM    8  C   UNL     1     -10.824   9.474  67.615  1.00  0.00    -0.187 C  
BRANCH   8   9
HETATM    9  N   UNL     1     -10.841  10.751  66.909  1.00  0.00    -0.254 N  
HETATM   10  C   UNL     1     -11.544  11.845  67.381  1.00  0.00    -0.297 C  
HETATM   11  H   UNL     1     -10.316  10.840  66.039  1.00  0.00     0.000 HD 
HETATM   12  O   UNL     1     -12.203  11.811  68.411  1.00  0.00    -0.467 OA 
BRANCH  10  13
HETATM   13  C   UNL     1     -11.495  13.076  66.535  1.00  0.00    -0.385 A  
HETATM   14  C   UNL     1     -10.667  14.131  66.978  1.00  0.00    -0.285 A  
HETATM   15  C   UNL     1     -10.471  15.266  66.181  1.00  0.00    -0.309 A  
HETATM   16  C   UNL     1     -12.125  13.188  65.282  1.00  0.00    -0.429 A  
HETATM   17  C   UNL     1     -11.087  15.376  64.941  1.00  0.00    -0.435 A  
HETATM   18  C   UNL     1     -11.899  14.333  64.495  1.00  0.00    -0.456 A  
BRANCH  15  19
HETATM   19  S   UNL     1      -9.499  16.619  66.811  1.00  0.00    -0.257 S  
HETATM   20  O   UNL     1      -9.158  17.450  65.673  1.00  0.00    -0.459 OA 
HETATM   21  O   UNL     1      -8.462  16.042  67.644  1.00  0.00    -0.155 OA 
BRANCH  19  22
HETATM   22  C   UNL     1     -10.625  17.525  67.853  1.00  0.00    -0.390 C  
HETATM   23  C   UNL     1      -9.942  18.728  68.480  1.00  0.00    -0.450 C  
ENDBRANCH  19  22
ENDBRANCH  15  19
BRANCH  16  24
HETATM   24  O   UNL     1     -12.912  12.266  64.647  1.00  0.00    -0.741 OA 
HETATM   25  C   UNL     1     -12.661  12.041  63.265  1.00  0.00    -0.385 C  
ENDBRANCH  16  24
ENDBRANCH  10  13
ENDBRANCH   8   9
ENDBRANCH   7   8
ENDBRANCH   2   3
TORSDOF 7
ENDMDL
MODEL       97
REMARK 921   NORMALIZED FREE ENERGY PREDICTED BY IDOCK:   -5.06 KCAL/MOL
REMARK 922        TOTAL FREE ENERGY PREDICTED BY IDOCK:   -8.01 KCAL/MOL
REMARK 923 INTER-LIGAND FREE ENERGY PREDICTED BY IDOCK:   -6.93 KCAL/MOL
REMARK 924 INTRA-LIGAND FREE ENERGY PREDICTED BY IDOCK:   -1.07 KCAL/MOL
REMARK 927      BINDING AFFINITY PREDICTED BY RF-SCORE:    0.00 PKD
ROOT
HETATM    1  C   UNL     1     -10.411  20.088  68.124  1.00  0.00    -0.428 C  
HETATM    2  C   UNL     1     -10.728  19.081  67.024  1.00  0.00    -0.432 C  
ENDROOT
BRANCH   2   3
HETATM    3  N   UNL     1     -10.009  17.813  67.200  1.00  0.00    -0.309 NA 
HETATM    4  C   UNL     1      -8.574  17.933  66.931  1.00  0.00    -0.245 C  
HETATM    5  C   UNL     1      -8.017  16.678  67.565  1.00  0.00    -0.186 C  
HETATM    6  C   UNL     1      -8.823  16.541  68.846  1.00  0.00    -0.244 C  
HETATM    7  C   UNL     1     -10.147  17.277  68.577  1.00  0.00    -0.341 C  
BRANCH   7   8
HETATM    8  C   UNL     1     -11.369  16.339  68.688  1.00  0.00    -0.333 C  
BRANCH   8   9
HETATM    9  N   UNL     1     -11.102  14.964  68.282  1.00  0.00    -0.270 N  
HETATM   10  C   UNL     1     -11.715  13.883  68.891  1.00  0.00    -0.337 C  
HETATM   11  H   UNL     1     -10.441  14.793  67.523  1.00  0.00     0.000 HD 
HETATM   12  O   UNL     1     -12.510  14.009  69.812  1.00  0.00    -0.325 OA 
BRANCH  10  13
HETATM   13  C   UNL     1     -11.319  12.531  68.392  1.00  0.00    -0.333 A  
HETATM   14  C   UNL     1     -11.175  11.505  69.350  1.00  0.00    -0.324 A  
HETATM   15  C   UNL     1     -10.928  10.185  68.951  1.00  0.00    -0.223 A  
HETATM   16  C   UNL     1     -11.203  12.207  67.027  1.00  0.00    -0.314 A  
HETATM   17  C   UNL     1     -10.819   9.861  67.605  1.00  0.00    -0.318 A  
HETATM   18  C   UNL     1     -10.970  10.870  66.652  1.00  0.00    -0.212 A  
BRANCH  15  19
HETATM   19  S   UNL     1     -10.657   8.933  70.188  1.00  0.00    -0.228 S  
HETATM   20  O   UNL     1     -10.780   7.654  69.519  1.00  0.00    -0.238 OA 
HETATM   21  O   UNL     1     -11.505   9.263  71.317  1.00  0.00    -0.290 OA 
BRANCH  19  22
HETATM   22  C   UNL     1      -8.956   9.154  70.674  1.00  0.00    -0.244 C  
HETATM   23  C   UNL     1      -8.178   7.855  70.548  1.00  0.00    -0.118 C  
ENDBRANCH  19  22
ENDBRANCH  15  19
BRANCH  16  24
HETATM   24  O   UNL     1     -11.365  13.031  65.946  1.00  0.00    -0.297 OA 
HETATM   25  C   UNL     1     -11.539  12.409  64.678  1.00  0.00    -0.343 C  
ENDBRANCH  16  24
ENDBRANCH  10  13
ENDBRANCH   8   9
ENDBRANCH   7   8
ENDBRANCH   2   3
TORSDOF 7
ENDMDL
MODEL       98
REMARK 921   NORMALIZED FREE ENERGY PREDICTED BY IDOCK:   -5.04 KCAL/MOL
REMARK 922        TOTAL FREE ENERGY PREDICTED BY IDOCK:   -7.98 KCAL/MOL
REMARK 923 INTER-LIGAND FREE ENERGY PREDICTED BY IDOCK:   -7.03 KCAL/MOL
REMARK 924 INTRA-LIGAND FREE ENERGY PREDICTED BY IDOCK:   -0.94 KCAL/MOL
REMARK 927      BINDING AFFINITY PREDICTED BY RF-SCORE:    0.00 PKD
ROOT
HETATM    1  C   UNL     1      -9.320  20.114  67.057  1.00  0.00    -0.523 C  
HETATM    2  C   UNL     1     -10.620  19.364  67.329  1.00  0.00    -0.486 C  
ENDROOT
BRANCH   2   3
HETATM    3  N   UNL     1     -10.481  17.915  67.140  1.00  0.00    -0.366 NA 
HETATM    4  C   UNL     1     -10.539  17.519  65.730  1.00  0.00    -0.174 C  
HETATM    5  C   UNL     1      -9.970  16.118  65.762  1.00  0.00    -0.370 C  
HETATM    6  C   UNL     1      -8.831  16.221  66.762  1.00  0.00    -0.263 C  
HETATM    7  C   UNL     1      -9.199  17.400  67.680  1.00  0.00    -0.234 C  
BRANCH   7   8
HETATM    8  C   UNL     1      -9.354  16.965  69.155  1.00  0.00    -0.121 C  
BRANCH   8   9
HETATM    9  N   UNL     1      -9.790  15.583  69.325  1.00  0.00    -0.252 N  
HETATM   10  C   UNL     1     -11.125  15.221  69.275  1.00  0.00    -0.274 C  
HETATM   11  H   UNL     1      -9.088  14.860  69.485  1.00  0.00     0.000 HD 
HETATM   12  O   UNL     1     -12.023  16.033  69.096  1.00  0.00    -0.340 OA 
BRANCH  10  13
HETATM   13  C   UNL     1     -11.424  13.774  69.498  1.00  0.00    -0.327 A  
HETATM   14  C   UNL     1     -10.665  12.836  68.765  1.00  0.00    -0.246 A  
HETATM   15  C   UNL     1     -10.799  11.464  69.008  1.00  0.00    -0.219 A  
HETATM   16  C   UNL     1     -12.325  13.305  70.473  1.00  0.00    -0.316 A  
HETATM   17  C   UNL     1     -11.683  10.998  69.974  1.00  0.00    -0.437 A  
HETATM   18  C   UNL     1     -12.429  11.921  70.708  1.00  0.00    -0.384 A  
BRANCH  15  19
HETATM   19  S   UNL     1      -9.898  10.305  67.999  1.00  0.00    -0.154 S  
HETATM   20  O   UNL     1      -8.768  11.026  67.448  1.00  0.00    -0.131 OA 
HETATM   21  O   UNL     1     -10.863   9.663  67.129  1.00  0.00    -0.232 OA 
BRANCH  19  22
HETATM   22  C   UNL     1      -9.285   9.096  69.156  1.00  0.00    -0.144 C  
HETATM   23  C   UNL     1      -9.165   7.728  68.506  1.00  0.00    -0.137 C  
ENDBRANCH  19  22
ENDBRANCH  15  19
BRANCH  16  24
HETATM   24  O   UNL     1     -13.104  14.039  71.326  1.00  0.00    -0.328 OA 
HETATM   25  C   UNL     1     -13.759  13.333  72.374  1.00  0.00    -0.578 C  
ENDBRANCH  16  24
ENDBRANCH  10  13
ENDBRANCH   8   9
ENDBRANCH   7   8
ENDBRANCH   2   3
TORSDOF 7
ENDMDL
MODEL       99
REMARK 921   NORMALIZED FREE ENERGY PREDICTED BY IDOCK:   -5.04 KCAL/MOL
REMARK 922        TOTAL FREE ENERGY PREDICTED BY IDOCK:   -7.97 KCAL/MOL
REMARK 923 INTER-LIGAND FREE ENERGY PREDICTED BY IDOCK:   -6.98 KCAL/MOL
REMARK 924 INTRA-LIGAND FREE ENERGY PREDICTED BY IDOCK:   -0.99 KCAL/MOL
REMARK 927      BINDING AFFINITY PREDICTED BY RF-SCORE:    0.00 PKD
ROOT
HETATM    1  C   UNL     1      -7.451  20.084  66.670  1.00  0.00    -0.299 C  
HETATM    2  C   UNL     1      -8.746  19.956  67.465  1.00  0.00    -0.338 C  
ENDROOT
BRANCH   2   3
HETATM    3  N   UNL     1      -9.375  18.639  67.304  1.00  0.00    -0.284 NA 
HETATM    4  C   UNL     1     -10.087  18.502  66.030  1.00  0.00    -0.288 C  
HETATM    5  C   UNL     1     -10.266  17.004  65.916  1.00  0.00    -0.311 C  
HETATM    6  C   UNL     1      -8.949  16.450  66.430  1.00  0.00    -0.340 C  
HETATM    7  C   UNL     1      -8.385  17.535  67.365  1.00  0.00    -0.211 C  
BRANCH   7   8
HETATM    8  C   UNL     1      -8.212  17.024  68.813  1.00  0.00    -0.245 C  
BRANCH   8   9
HETATM    9  N   UNL     1      -9.107  15.929  69.168  1.00  0.00    -0.243 N  
HETATM   10  C   UNL     1     -10.383  16.150  69.655  1.00  0.00    -0.271 C  
HETATM   11  H   UNL     1      -8.782  14.969  69.054  1.00  0.00     0.000 HD 
HETATM   12  O   UNL     1     -10.839  17.272  69.828  1.00  0.00    -0.035 OA 
BRANCH  10  13
HETATM   13  C   UNL     1     -11.175  14.932  70.008  1.00  0.00    -0.293 A  
HETATM   14  C   UNL     1     -10.896  13.749  69.289  1.00  0.00    -0.141 A  
HETATM   15  C   UNL     1     -11.505  12.539  69.642  1.00  0.00    -0.185 A  
HETATM   16  C   UNL     1     -12.083  14.875  71.082  1.00  0.00    -0.327 A  
HETATM   17  C   UNL     1     -12.397  12.479  70.706  1.00  0.00    -0.376 A  
HETATM   18  C   UNL     1     -12.670  13.643  71.425  1.00  0.00    -0.437 A  
BRANCH  15  19
HETATM   19  S   UNL     1     -11.204  11.087  68.655  1.00  0.00    -0.290 S  
HETATM   20  O   UNL     1     -11.904  11.285  67.402  1.00  0.00    -0.590 OA 
HETATM   21  O   UNL     1     -11.494   9.940  69.492  1.00  0.00    -0.180 OA 
BRANCH  19  22
HETATM   22  C   UNL     1      -9.452  11.127  68.334  1.00  0.00    -0.189 C  
HETATM   23  C   UNL     1      -9.170  11.391  66.865  1.00  0.00    -0.183 C  
ENDBRANCH  19  22
ENDBRANCH  15  19
BRANCH  16  24
HETATM   24  O   UNL     1     -12.445  15.882  71.936  1.00  0.00    -0.425 OA 
HETATM   25  C   UNL     1     -12.403  15.595  73.329  1.00  0.00    -0.497 C  
ENDBRANCH  16  24
ENDBRANCH  10  13
ENDBRANCH   8   9
ENDBRANCH   7   8
ENDBRANCH   2   3
TORSDOF 7
ENDMDL
MODEL      100
REMARK 921   NORMALIZED FREE ENERGY PREDICTED BY IDOCK:   -5.01 KCAL/MOL
REMARK 922        TOTAL FREE ENERGY PREDICTED BY IDOCK:   -7.92 KCAL/MOL
REMARK 923 INTER-LIGAND FREE ENERGY PREDICTED BY IDOCK:   -6.91 KCAL/MOL
REMARK 924 INTRA-LIGAND FREE ENERGY PREDICTED BY IDOCK:   -1.02 KCAL/MOL
REMARK 927      BINDING AFFINITY PREDICTED BY RF-SCORE:    0.00 PKD
ROOT
HETATM    1  C   UNL     1     -10.045  19.667  68.541  1.00  0.00    -0.557 C  
HETATM    2  C   UNL     1     -10.571  18.655  67.529  1.00  0.00    -0.423 C  
ENDROOT
BRANCH   2   3
HETATM    3  N   UNL     1      -9.829  17.389  67.566  1.00  0.00    -0.270 NA 
HETATM    4  C   UNL     1      -8.377  17.583  67.604  1.00  0.00    -0.214 C  
HETATM    5  C   UNL     1      -7.879  16.226  68.052  1.00  0.00    -0.154 C  
HETATM    6  C   UNL     1      -8.894  15.804  69.100  1.00  0.00    -0.250 C  
HETATM    7  C   UNL     1     -10.185  16.565  68.748  1.00  0.00    -0.267 C  
BRANCH   7   8
HETATM    8  C   UNL     1     -11.355  15.609  68.426  1.00  0.00    -0.364 C  
BRANCH   8   9
HETATM    9  N   UNL     1     -11.108  14.727  67.290  1.00  0.00    -0.322 N  
HETATM   10  C   UNL     1     -11.295  13.359  67.366  1.00  0.00    -0.309 C  
HETATM   11  H   UNL     1     -10.788  15.134  66.411  1.00  0.00     0.000 HD 
HETATM   12  O   UNL     1     -11.669  12.799  68.388  1.00  0.00    -0.302 OA 
BRANCH  10  13
HETATM   13  C   UNL     1     -10.971  12.579  66.132  1.00  0.00    -0.318 A  
HETATM   14  C   UNL     1      -9.972  11.587  66.239  1.00  0.00    -0.252 A  
HETATM   15  C   UNL     1      -9.698  10.732  65.164  1.00  0.00    -0.265 A  
HETATM   16  C   UNL     1     -11.683  12.699  64.924  1.00  0.00    -0.353 A  
HETATM   17  C   UNL     1     -10.404  10.844  63.973  1.00  0.00    -0.417 A  
HETATM   18  C   UNL     1     -11.398  11.816  63.865  1.00  0.00    -0.494 A  
BRANCH  15  19
HETATM   19  S   UNL     1      -8.368   9.556  65.299  1.00  0.00    -0.148 S  
HETATM   20  O   UNL     1      -7.269  10.080  64.512  1.00  0.00    -0.134 OA 
HETATM   21  O   UNL     1      -8.927   8.250  65.012  1.00  0.00    -0.010 OA 
BRANCH  19  22
HETATM   22  C   UNL     1      -7.904   9.608  67.019  1.00  0.00    -0.098 C  
HETATM   23  C   UNL     1      -6.470  10.078  67.186  1.00  0.00    -0.069 C  
ENDBRANCH  19  22
ENDBRANCH  15  19
BRANCH  16  24
HETATM   24  O   UNL     1     -12.718  13.545  64.634  1.00  0.00    -0.641 OA 
HETATM   25  C   UNL     1     -12.381  14.867  64.229  1.00  0.00    -0.277 C  
ENDBRANCH  16  24
ENDBRANCH  10  13
ENDBRANCH   8   9
ENDBRANCH   7   8
ENDBRANCH   2   3
TORSDOF 7
ENDMDL
MODEL      101
REMARK 921   NORMALIZED FREE ENERGY PREDICTED BY IDOCK:   -4.99 KCAL/MOL
REMARK 922        TOTAL FREE ENERGY PREDICTED BY IDOCK:   -7.91 KCAL/MOL
REMARK 923 INTER-LIGAND FREE ENERGY PREDICTED BY IDOCK:   -6.92 KCAL/MOL
REMARK 924 INTRA-LIGAND FREE ENERGY PREDICTED BY IDOCK:   -0.99 KCAL/MOL
REMARK 927      BINDING AFFINITY PREDICTED BY RF-SCORE:    0.00 PKD
ROOT
HETATM    1  C   UNL     1      -9.176  17.007  68.630  1.00  0.00    -0.266 C  
HETATM    2  C   UNL     1     -10.638  16.960  69.063  1.00  0.00    -0.338 C  
ENDROOT
BRANCH   2   3
HETATM    3  N   UNL     1     -10.957  15.751  69.832  1.00  0.00    -0.301 NA 
HETATM    4  C   UNL     1     -11.557  16.050  71.136  1.00  0.00    -0.443 C  
HETATM    5  C   UNL     1     -12.159  14.720  71.530  1.00  0.00    -0.411 C  
HETATM    6  C   UNL     1     -12.729  14.189  70.226  1.00  0.00    -0.287 C  
HETATM    7  C   UNL     1     -11.905  14.864  69.115  1.00  0.00    -0.307 C  
BRANCH   7   8
HETATM    8  C   UNL     1     -11.152  13.836  68.241  1.00  0.00    -0.255 C  
BRANCH   8   9
HETATM    9  N   UNL     1     -10.522  12.761  68.999  1.00  0.00    -0.434 N  
HETATM   10  C   UNL     1     -10.855  11.431  68.807  1.00  0.00    -0.208 C  
HETATM   11  H   UNL     1      -9.812  12.996  69.693  1.00  0.00     0.000 HD 
HETATM   12  O   UNL     1     -11.702  11.073  68.000  1.00  0.00    -0.532 OA 
BRANCH  10  13
HETATM   13  C   UNL     1     -10.150  10.442  69.677  1.00  0.00    -0.226 A  
HETATM   14  C   UNL     1     -10.938   9.710  70.593  1.00  0.00    -0.386 A  
HETATM   15  C   UNL     1     -10.375   8.679  71.355  1.00  0.00    -0.261 A  
HETATM   16  C   UNL     1      -8.786  10.121  69.549  1.00  0.00    -0.182 A  
HETATM   17  C   UNL     1      -9.030   8.357  71.225  1.00  0.00    -0.224 A  
HETATM   18  C   UNL     1      -8.248   9.070  70.316  1.00  0.00    -0.150 A  
BRANCH  15  19
HETATM   19  S   UNL     1     -11.373   7.842  72.568  1.00  0.00    -0.406 S  
HETATM   20  O   UNL     1     -12.520   8.692  72.821  1.00  0.00    -0.320 OA 
HETATM   21  O   UNL     1     -10.488   7.453  73.649  1.00  0.00    -0.360 OA 
BRANCH  19  22
HETATM   22  C   UNL     1     -11.936   6.369  71.738  1.00  0.00    -0.316 C  
HETATM   23  C   UNL     1     -11.474   5.119  72.466  1.00  0.00    -0.149 C  
ENDBRANCH  19  22
ENDBRANCH  15  19
BRANCH  16  24
HETATM   24  O   UNL     1      -7.869  10.661  68.688  1.00  0.00    -0.105 OA 
HETATM   25  C   UNL     1      -6.725   9.873  68.382  1.00  0.00    -0.055 C  
ENDBRANCH  16  24
ENDBRANCH  10  13
ENDBRANCH   8   9
ENDBRANCH   7   8
ENDBRANCH   2   3
TORSDOF 7
ENDMDL
MODEL      102
REMARK 921   NORMALIZED FREE ENERGY PREDICTED BY IDOCK:   -4.99 KCAL/MOL
REMARK 922        TOTAL FREE ENERGY PREDICTED BY IDOCK:   -7.90 KCAL/MOL
REMARK 923 INTER-LIGAND FREE ENERGY PREDICTED BY IDOCK:   -6.77 KCAL/MOL
REMARK 924 INTRA-LIGAND FREE ENERGY PREDICTED BY IDOCK:   -1.13 KCAL/MOL
REMARK 927      BINDING AFFINITY PREDICTED BY RF-SCORE:    0.00 PKD
ROOT
HETATM    1  C   UNL     1      -9.569   8.589  66.320  1.00  0.00    -0.306 C  
HETATM    2  C   UNL     1     -10.652   8.033  67.239  1.00  0.00    -0.290 C  
ENDROOT
BRANCH   2   3
HETATM    3  N   UNL     1     -10.187   7.876  68.623  1.00  0.00    -0.202 NA 
HETATM    4  C   UNL     1      -9.479   6.612  68.844  1.00  0.00    -0.130 C  
HETATM    5  C   UNL     1      -8.762   6.864  70.151  1.00  0.00    -0.141 C  
HETATM    6  C   UNL     1      -8.294   8.303  70.027  1.00  0.00    -0.121 C  
HETATM    7  C   UNL     1      -9.263   8.963  69.030  1.00  0.00    -0.140 C  
BRANCH   7   8
HETATM    8  C   UNL     1     -10.037  10.142  69.662  1.00  0.00    -0.234 C  
BRANCH   8   9
HETATM    9  N   UNL     1     -10.007  11.366  68.870  1.00  0.00    -0.352 N  
HETATM   10  C   UNL     1     -11.070  11.755  68.075  1.00  0.00    -0.242 C  
HETATM   11  H   UNL     1      -9.174  11.955  68.903  1.00  0.00     0.000 HD 
HETATM   12  O   UNL     1     -12.097  11.097  67.977  1.00  0.00    -0.635 OA 
BRANCH  10  13
HETATM   13  C   UNL     1     -10.884  13.016  67.295  1.00  0.00    -0.270 A  
HETATM   14  C   UNL     1     -10.667  14.203  68.027  1.00  0.00    -0.248 A  
HETATM   15  C   UNL     1     -10.362  15.402  67.370  1.00  0.00    -0.262 A  
HETATM   16  C   UNL     1     -10.795  13.060  65.891  1.00  0.00    -0.272 A  
HETATM   17  C   UNL     1     -10.268  15.446  65.985  1.00  0.00    -0.343 A  
HETATM   18  C   UNL     1     -10.472  14.274  65.256  1.00  0.00    -0.408 A  
BRANCH  15  19
HETATM   19  S   UNL     1     -10.190  16.900  68.318  1.00  0.00    -0.339 S  
HETATM   20  O   UNL     1     -10.623  16.590  69.666  1.00  0.00    -0.316 OA 
HETATM   21  O   UNL     1     -10.830  17.956  67.559  1.00  0.00    -0.364 OA 
BRANCH  19  22
HETATM   22  C   UNL     1      -8.435  17.205  68.346  1.00  0.00    -0.241 C  
HETATM   23  C   UNL     1      -7.663  15.938  68.670  1.00  0.00    -0.161 C  
ENDBRANCH  19  22
ENDBRANCH  15  19
BRANCH  16  24
HETATM   24  O   UNL     1     -10.911  12.023  65.005  1.00  0.00    -0.286 OA 
HETATM   25  C   UNL     1     -11.351  12.341  63.689  1.00  0.00    -0.470 C  
ENDBRANCH  16  24
ENDBRANCH  10  13
ENDBRANCH   8   9
ENDBRANCH   7   8
ENDBRANCH   2   3
TORSDOF 7
ENDMDL
MODEL      103
REMARK 921   NORMALIZED FREE ENERGY PREDICTED BY IDOCK:   -4.97 KCAL/MOL
REMARK 922        TOTAL FREE ENERGY PREDICTED BY IDOCK:   -7.87 KCAL/MOL
REMARK 923 INTER-LIGAND FREE ENERGY PREDICTED BY IDOCK:   -7.19 KCAL/MOL
REMARK 924 INTRA-LIGAND FREE ENERGY PREDICTED BY IDOCK:   -0.69 KCAL/MOL
REMARK 927      BINDING AFFINITY PREDICTED BY RF-SCORE:    0.00 PKD
ROOT
HETATM    1  C   UNL     1     -14.231   8.630  71.677  1.00  0.00    -0.463 C  
HETATM    2  C   UNL     1     -13.232   9.621  71.088  1.00  0.00    -0.303 C  
ENDROOT
BRANCH   2   3
HETATM    3  N   UNL     1     -11.851   9.334  71.494  1.00  0.00    -0.347 NA 
HETATM    4  C   UNL     1     -11.744   8.136  72.332  1.00  0.00    -0.399 C  
HETATM    5  C   UNL     1     -10.266   7.822  72.263  1.00  0.00    -0.285 C  
HETATM    6  C   UNL     1      -9.911   8.105  70.813  1.00  0.00    -0.209 C  
HETATM    7  C   UNL     1     -10.956   9.126  70.329  1.00  0.00    -0.245 C  
BRANCH   7   8
HETATM    8  C   UNL     1     -10.309  10.455  69.882  1.00  0.00    -0.182 C  
BRANCH   8   9
HETATM    9  N   UNL     1     -10.145  10.580  68.438  1.00  0.00    -0.158 N  
HETATM   10  C   UNL     1     -11.155  11.054  67.620  1.00  0.00    -0.300 C  
HETATM   11  H   UNL     1      -9.255  10.310  68.017  1.00  0.00     0.000 HD 
HETATM   12  O   UNL     1     -12.251  11.389  68.050  1.00  0.00    -0.607 OA 
BRANCH  10  13
HETATM   13  C   UNL     1     -10.854  11.096  66.156  1.00  0.00    -0.247 A  
HETATM   14  C   UNL     1      -9.854  10.223  65.676  1.00  0.00    -0.332 A  
HETATM   15  C   UNL     1      -9.600  10.115  64.304  1.00  0.00    -0.290 A  
HETATM   16  C   UNL     1     -11.589  11.861  65.230  1.00  0.00    -0.216 A  
HETATM   17  C   UNL     1     -10.327  10.864  63.388  1.00  0.00    -0.299 A  
HETATM   18  C   UNL     1     -11.324  11.721  63.855  1.00  0.00    -0.494 A  
BRANCH  15  19
HETATM   19  S   UNL     1      -8.266   9.077  63.740  1.00  0.00    -0.171 S  
HETATM   20  O   UNL     1      -8.566   8.725  62.367  1.00  0.00    -0.212 OA 
HETATM   21  O   UNL     1      -8.078   8.048  64.744  1.00  0.00    -0.140 OA 
BRANCH  19  22
HETATM   22  C   UNL     1      -6.840  10.145  63.750  1.00  0.00    -0.109 C  
HETATM   23  C   UNL     1      -5.890   9.780  64.877  1.00  0.00    -0.085 C  
ENDBRANCH  19  22
ENDBRANCH  15  19
BRANCH  16  24
HETATM   24  O   UNL     1     -12.630  12.714  65.477  1.00  0.00    -0.634 OA 
HETATM   25  C   UNL     1     -12.339  14.107  65.478  1.00  0.00    -0.458 C  
ENDBRANCH  16  24
ENDBRANCH  10  13
ENDBRANCH   8   9
ENDBRANCH   7   8
ENDBRANCH   2   3
TORSDOF 7
ENDMDL
MODEL      104
REMARK 921   NORMALIZED FREE ENERGY PREDICTED BY IDOCK:   -4.97 KCAL/MOL
REMARK 922        TOTAL FREE ENERGY PREDICTED BY IDOCK:   -7.87 KCAL/MOL
REMARK 923 INTER-LIGAND FREE ENERGY PREDICTED BY IDOCK:   -7.24 KCAL/MOL
REMARK 924 INTRA-LIGAND FREE ENERGY PREDICTED BY IDOCK:   -0.62 KCAL/MOL
REMARK 927      BINDING AFFINITY PREDICTED BY RF-SCORE:    0.00 PKD
ROOT
HETATM    1  C   UNL     1      -7.287   9.251  70.465  1.00  0.00    -0.120 C  
HETATM    2  C   UNL     1      -8.481   9.076  69.533  1.00  0.00    -0.125 C  
ENDROOT
BRANCH   2   3
HETATM    3  N   UNL     1      -9.641   8.487  70.212  1.00  0.00    -0.164 NA 
HETATM    4  C   UNL     1      -9.337   7.197  70.838  1.00  0.00    -0.160 C  
HETATM    5  C   UNL     1     -10.501   7.013  71.786  1.00  0.00    -0.223 C  
HETATM    6  C   UNL     1     -10.726   8.406  72.346  1.00  0.00    -0.405 C  
HETATM    7  C   UNL     1     -10.172   9.369  71.281  1.00  0.00    -0.270 C  
BRANCH   7   8
HETATM    8  C   UNL     1     -11.261  10.316  70.728  1.00  0.00    -0.293 C  
BRANCH   8   9
HETATM    9  N   UNL     1     -10.852  11.066  69.546  1.00  0.00    -0.351 N  
HETATM   10  C   UNL     1     -11.411  12.289  69.220  1.00  0.00    -0.256 C  
HETATM   11  H   UNL     1     -10.131  10.675  68.939  1.00  0.00     0.000 HD 
HETATM   12  O   UNL     1     -12.286  12.816  69.893  1.00  0.00    -0.262 OA 
BRANCH  10  13
HETATM   13  C   UNL     1     -10.916  12.926  67.961  1.00  0.00    -0.271 A  
HETATM   14  C   UNL     1     -11.722  12.791  66.809  1.00  0.00    -0.459 A  
HETATM   15  C   UNL     1     -11.391  13.461  65.625  1.00  0.00    -0.298 A  
HETATM   16  C   UNL     1      -9.770  13.740  67.896  1.00  0.00    -0.229 A  
HETATM   17  C   UNL     1     -10.264  14.270  65.560  1.00  0.00    -0.379 A  
HETATM   18  C   UNL     1      -9.469  14.415  66.698  1.00  0.00    -0.300 A  
BRANCH  15  19
HETATM   19  S   UNL     1     -12.374  13.192  64.164  1.00  0.00    -0.321 S  
HETATM   20  O   UNL     1     -12.578  14.492  63.556  1.00  0.00    -0.746 OA 
HETATM   21  O   UNL     1     -13.504  12.374  64.559  1.00  0.00    -0.668 OA 
BRANCH  19  22
HETATM   22  C   UNL     1     -11.324  12.229  63.095  1.00  0.00    -0.178 C  
HETATM   23  C   UNL     1     -10.645  11.106  63.860  1.00  0.00    -0.431 C  
ENDBRANCH  19  22
ENDBRANCH  15  19
BRANCH  16  24
HETATM   24  O   UNL     1      -8.896  14.050  68.902  1.00  0.00    -0.082 OA 
HETATM   25  C   UNL     1      -8.857  15.405  69.332  1.00  0.00    -0.251 C  
ENDBRANCH  16  24
ENDBRANCH  10  13
ENDBRANCH   8   9
ENDBRANCH   7   8
ENDBRANCH   2   3
TORSDOF 7
ENDMDL
MODEL      105
REMARK 921   NORMALIZED FREE ENERGY PREDICTED BY IDOCK:   -4.96 KCAL/MOL
REMARK 922        TOTAL FREE ENERGY PREDICTED BY IDOCK:   -7.86 KCAL/MOL
REMARK 923 INTER-LIGAND FREE ENERGY PREDICTED BY IDOCK:   -6.85 KCAL/MOL
REMARK 924 INTRA-LIGAND FREE ENERGY PREDICTED BY IDOCK:   -1.01 KCAL/MOL
REMARK 927      BINDING AFFINITY PREDICTED BY RF-SCORE:    0.00 PKD
ROOT
HETATM    1  C   UNL     1      -7.849   4.411  69.544  1.00  0.00    -0.057 C  
HETATM    2  C   UNL     1      -8.045   5.921  69.463  1.00  0.00    -0.106 C  
ENDROOT
BRANCH   2   3
HETATM    3  N   UNL     1      -8.753   6.331  68.244  1.00  0.00    -0.116 NA 
HETATM    4  C   UNL     1      -8.622   5.356  67.158  1.00  0.00    -0.108 C  
HETATM    5  C   UNL     1      -9.730   5.769  66.214  1.00  0.00    -0.148 C  
HETATM    6  C   UNL     1     -10.872   6.131  67.147  1.00  0.00    -0.442 C  
HETATM    7  C   UNL     1     -10.205   6.524  68.477  1.00  0.00    -0.172 C  
BRANCH   7   8
HETATM    8  C   UNL     1     -10.515   7.984  68.877  1.00  0.00    -0.191 C  
BRANCH   8   9
HETATM    9  N   UNL     1     -10.752   8.872  67.744  1.00  0.00    -0.453 N  
HETATM   10  C   UNL     1      -9.744   9.638  67.185  1.00  0.00    -0.174 C  
HETATM   11  H   UNL     1     -11.692   8.931  67.352  1.00  0.00     0.000 HD 
HETATM   12  O   UNL     1      -8.596   9.627  67.606  1.00  0.00    -0.125 OA 
BRANCH  10  13
HETATM   13  C   UNL     1     -10.142  10.525  66.050  1.00  0.00    -0.317 A  
HETATM   14  C   UNL     1     -10.799  11.733  66.374  1.00  0.00    -0.325 A  
HETATM   15  C   UNL     1     -11.093  12.674  65.379  1.00  0.00    -0.292 A  
HETATM   16  C   UNL     1      -9.795  10.281  64.708  1.00  0.00    -0.334 A  
HETATM   17  C   UNL     1     -10.745  12.437  64.055  1.00  0.00    -0.441 A  
HETATM   18  C   UNL     1     -10.088  11.250  63.731  1.00  0.00    -0.412 A  
BRANCH  15  19
HETATM   19  S   UNL     1     -12.007  14.142  65.807  1.00  0.00    -0.413 S  
HETATM   20  O   UNL     1     -11.854  14.324  67.237  1.00  0.00    -0.381 OA 
HETATM   21  O   UNL     1     -13.323  14.008  65.213  1.00  0.00    -0.741 OA 
BRANCH  19  22
HETATM   22  C   UNL     1     -11.141  15.459  64.976  1.00  0.00    -0.418 C  
HETATM   23  C   UNL     1     -10.370  16.317  65.964  1.00  0.00    -0.363 C  
ENDBRANCH  19  22
ENDBRANCH  15  19
BRANCH  16  24
HETATM   24  O   UNL     1      -9.110   9.213  64.195  1.00  0.00    -0.107 OA 
HETATM   25  C   UNL     1      -8.761   9.269  62.816  1.00  0.00    -0.214 C  
ENDBRANCH  16  24
ENDBRANCH  10  13
ENDBRANCH   8   9
ENDBRANCH   7   8
ENDBRANCH   2   3
TORSDOF 7
ENDMDL
MODEL      106
REMARK 921   NORMALIZED FREE ENERGY PREDICTED BY IDOCK:   -4.94 KCAL/MOL
REMARK 922        TOTAL FREE ENERGY PREDICTED BY IDOCK:   -7.83 KCAL/MOL
REMARK 923 INTER-LIGAND FREE ENERGY PREDICTED BY IDOCK:   -7.13 KCAL/MOL
REMARK 924 INTRA-LIGAND FREE ENERGY PREDICTED BY IDOCK:   -0.70 KCAL/MOL
REMARK 927      BINDING AFFINITY PREDICTED BY RF-SCORE:    0.00 PKD
ROOT
HETATM    1  C   UNL     1     -12.967  11.715  72.031  1.00  0.00    -0.365 C  
HETATM    2  C   UNL     1     -12.719  12.673  70.871  1.00  0.00    -0.188 C  
ENDROOT
BRANCH   2   3
HETATM    3  N   UNL     1     -12.911  14.078  71.252  1.00  0.00    -0.339 NA 
HETATM    4  C   UNL     1     -13.816  14.236  72.394  1.00  0.00    -0.518 C  
HETATM    5  C   UNL     1     -13.527  15.651  72.844  1.00  0.00    -0.657 C  
HETATM    6  C   UNL     1     -12.021  15.770  72.694  1.00  0.00    -0.597 C  
HETATM    7  C   UNL     1     -11.635  14.739  71.619  1.00  0.00    -0.191 C  
BRANCH   7   8
HETATM    8  C   UNL     1     -10.977  15.399  70.386  1.00  0.00    -0.323 C  
BRANCH   8   9
HETATM    9  N   UNL     1     -10.372  14.452  69.457  1.00  0.00    -0.435 N  
HETATM   10  C   UNL     1     -10.853  14.271  68.172  1.00  0.00    -0.244 C  
HETATM   11  H   UNL     1      -9.568  13.904  69.764  1.00  0.00     0.000 HD 
HETATM   12  O   UNL     1     -11.818  14.884  67.736  1.00  0.00    -0.345 OA 
BRANCH  10  13
HETATM   13  C   UNL     1     -10.153  13.243  67.343  1.00  0.00    -0.233 A  
HETATM   14  C   UNL     1      -8.771  13.060  67.572  1.00  0.00    -0.197 A  
HETATM   15  C   UNL     1      -8.071  12.034  66.926  1.00  0.00    -0.127 A  
HETATM   16  C   UNL     1     -10.813  12.380  66.448  1.00  0.00    -0.258 A  
HETATM   17  C   UNL     1      -8.721  11.177  66.047  1.00  0.00    -0.185 A  
HETATM   18  C   UNL     1     -10.088  11.347  65.824  1.00  0.00    -0.289 A  
BRANCH  15  19
HETATM   19  S   UNL     1      -6.312  11.892  67.163  1.00  0.00    -0.140 S  
HETATM   20  O   UNL     1      -5.860  13.164  67.690  1.00  0.00    -0.146 OA 
HETATM   21  O   UNL     1      -5.760  11.363  65.931  1.00  0.00    -0.173 OA 
BRANCH  19  22
HETATM   22  C   UNL     1      -6.136  10.659  68.438  1.00  0.00    -0.046 C  
HETATM   23  C   UNL     1      -5.920   9.280  67.840  1.00  0.00    -0.049 C  
ENDBRANCH  19  22
ENDBRANCH  15  19
BRANCH  16  24
HETATM   24  O   UNL     1     -12.144  12.348  66.133  1.00  0.00    -0.611 OA 
HETATM   25  C   UNL     1     -12.506  12.733  64.812  1.00  0.00    -0.472 C  
ENDBRANCH  16  24
ENDBRANCH  10  13
ENDBRANCH   8   9
ENDBRANCH   7   8
ENDBRANCH   2   3
TORSDOF 7
ENDMDL
MODEL      107
REMARK 921   NORMALIZED FREE ENERGY PREDICTED BY IDOCK:   -4.94 KCAL/MOL
REMARK 922        TOTAL FREE ENERGY PREDICTED BY IDOCK:   -7.83 KCAL/MOL
REMARK 923 INTER-LIGAND FREE ENERGY PREDICTED BY IDOCK:   -7.10 KCAL/MOL
REMARK 924 INTRA-LIGAND FREE ENERGY PREDICTED BY IDOCK:   -0.73 KCAL/MOL
REMARK 927      BINDING AFFINITY PREDICTED BY RF-SCORE:    0.00 PKD
ROOT
HETATM    1  C   UNL     1      -7.816  10.223  68.711  1.00  0.00    -0.106 C  
HETATM    2  C   UNL     1      -7.570  11.501  67.918  1.00  0.00    -0.113 C  
ENDROOT
BRANCH   2   3
HETATM    3  N   UNL     1      -7.417  11.248  66.480  1.00  0.00    -0.133 NA 
HETATM    4  C   UNL     1      -6.247  10.421  66.171  1.00  0.00    -0.101 C  
HETATM    5  C   UNL     1      -6.535   9.964  64.758  1.00  0.00    -0.120 C  
HETATM    6  C   UNL     1      -8.027   9.681  64.774  1.00  0.00    -0.129 C  
HETATM    7  C   UNL     1      -8.597  10.558  65.904  1.00  0.00    -0.164 C  
BRANCH   7   8
HETATM    8  C   UNL     1      -9.637  11.575  65.384  1.00  0.00    -0.224 C  
BRANCH   8   9
HETATM    9  N   UNL     1      -9.860  12.707  66.278  1.00  0.00    -0.258 N  
HETATM   10  C   UNL     1     -11.129  13.138  66.618  1.00  0.00    -0.292 C  
HETATM   11  H   UNL     1      -9.052  13.196  66.664  1.00  0.00     0.000 HD 
HETATM   12  O   UNL     1     -12.144  12.607  66.188  1.00  0.00    -0.521 OA 
BRANCH  10  13
HETATM   13  C   UNL     1     -11.203  14.329  67.518  1.00  0.00    -0.322 A  
HETATM   14  C   UNL     1     -11.894  14.176  68.739  1.00  0.00    -0.384 A  
HETATM   15  C   UNL     1     -11.902  15.204  69.689  1.00  0.00    -0.334 A  
HETATM   16  C   UNL     1     -10.526  15.538  67.268  1.00  0.00    -0.279 A  
HETATM   17  C   UNL     1     -11.230  16.396  69.447  1.00  0.00    -0.267 A  
HETATM   18  C   UNL     1     -10.537  16.550  68.247  1.00  0.00    -0.326 A  
BRANCH  15  19
HETATM   19  S   UNL     1     -12.863  15.015  71.176  1.00  0.00    -0.409 S  
HETATM   20  O   UNL     1     -12.695  13.641  71.606  1.00  0.00    -0.341 OA 
HETATM   21  O   UNL     1     -14.183  15.548  70.898  1.00  0.00    -0.423 OA 
BRANCH  19  22
HETATM   22  C   UNL     1     -12.061  16.078  72.360  1.00  0.00    -0.535 C  
HETATM   23  C   UNL     1     -12.418  15.682  73.782  1.00  0.00    -0.736 C  
ENDBRANCH  19  22
ENDBRANCH  15  19
BRANCH  16  24
HETATM   24  O   UNL     1      -9.756  15.867  66.186  1.00  0.00    -0.274 OA 
HETATM   25  C   UNL     1      -8.364  16.055  66.415  1.00  0.00    -0.309 C  
ENDBRANCH  16  24
ENDBRANCH  10  13
ENDBRANCH   8   9
ENDBRANCH   7   8
ENDBRANCH   2   3
TORSDOF 7
ENDMDL
MODEL      108
REMARK 921   NORMALIZED FREE ENERGY PREDICTED BY IDOCK:   -4.93 KCAL/MOL
REMARK 922        TOTAL FREE ENERGY PREDICTED BY IDOCK:   -7.82 KCAL/MOL
REMARK 923 INTER-LIGAND FREE ENERGY PREDICTED BY IDOCK:   -6.86 KCAL/MOL
REMARK 924 INTRA-LIGAND FREE ENERGY PREDICTED BY IDOCK:   -0.96 KCAL/MOL
REMARK 927      BINDING AFFINITY PREDICTED BY RF-SCORE:    0.00 PKD
ROOT
HETATM    1  C   UNL     1      -6.959  20.117  66.151  1.00  0.00    -0.284 C  
HETATM    2  C   UNL     1      -7.276  20.081  67.642  1.00  0.00    -0.281 C  
ENDROOT
BRANCH   2   3
HETATM    3  N   UNL     1      -8.610  19.534  67.919  1.00  0.00    -0.309 NA 
HETATM    4  C   UNL     1      -9.689  20.444  67.527  1.00  0.00    -0.431 C  
HETATM    5  C   UNL     1     -10.895  19.531  67.510  1.00  0.00    -0.494 C  
HETATM    6  C   UNL     1     -10.357  18.245  66.908  1.00  0.00    -0.404 C  
HETATM    7  C   UNL     1      -8.848  18.253  67.209  1.00  0.00    -0.255 C  
BRANCH   7   8
HETATM    8  C   UNL     1      -8.421  17.049  68.079  1.00  0.00    -0.216 C  
BRANCH   8   9
HETATM    9  N   UNL     1      -8.968  15.772  67.635  1.00  0.00    -0.186 N  
HETATM   10  C   UNL     1      -9.699  14.952  68.477  1.00  0.00    -0.215 C  
HETATM   11  H   UNL     1      -8.807  15.473  66.673  1.00  0.00     0.000 HD 
HETATM   12  O   UNL     1      -9.925  15.238  69.645  1.00  0.00    -0.251 OA 
BRANCH  10  13
HETATM   13  C   UNL     1     -10.169  13.658  67.893  1.00  0.00    -0.250 A  
HETATM   14  C   UNL     1      -9.736  12.470  68.522  1.00  0.00    -0.133 A  
HETATM   15  C   UNL     1     -10.230  11.226  68.114  1.00  0.00    -0.180 A  
HETATM   16  C   UNL     1     -11.101  13.569  66.843  1.00  0.00    -0.296 A  
HETATM   17  C   UNL     1     -11.155  11.136  67.081  1.00  0.00    -0.352 A  
HETATM   18  C   UNL     1     -11.593  12.306  66.462  1.00  0.00    -0.440 A  
BRANCH  15  19
HETATM   19  S   UNL     1      -9.591   9.742  68.863  1.00  0.00    -0.175 S  
HETATM   20  O   UNL     1      -8.521  10.152  69.750  1.00  0.00    -0.177 OA 
HETATM   21  O   UNL     1      -9.343   8.799  67.790  1.00  0.00    -0.140 OA 
BRANCH  19  22
HETATM   22  C   UNL     1     -10.941   9.131  69.853  1.00  0.00    -0.204 C  
HETATM   23  C   UNL     1     -10.575   9.115  71.327  1.00  0.00    -0.399 C  
ENDBRANCH  19  22
ENDBRANCH  15  19
BRANCH  16  24
HETATM   24  O   UNL     1     -11.688  14.590  66.146  1.00  0.00    -0.366 OA 
HETATM   25  C   UNL     1     -12.381  14.244  64.952  1.00  0.00    -0.425 C  
ENDBRANCH  16  24
ENDBRANCH  10  13
ENDBRANCH   8   9
ENDBRANCH   7   8
ENDBRANCH   2   3
TORSDOF 7
ENDMDL
MODEL      109
REMARK 921   NORMALIZED FREE ENERGY PREDICTED BY IDOCK:   -4.93 KCAL/MOL
REMARK 922        TOTAL FREE ENERGY PREDICTED BY IDOCK:   -7.81 KCAL/MOL
REMARK 923 INTER-LIGAND FREE ENERGY PREDICTED BY IDOCK:   -6.89 KCAL/MOL
REMARK 924 INTRA-LIGAND FREE ENERGY PREDICTED BY IDOCK:   -0.92 KCAL/MOL
REMARK 927      BINDING AFFINITY PREDICTED BY RF-SCORE:    0.00 PKD
ROOT
HETATM    1  C   UNL     1     -13.434  12.724  72.156  1.00  0.00    -0.591 C  
HETATM    2  C   UNL     1     -12.519  12.731  70.936  1.00  0.00    -0.283 C  
ENDROOT
BRANCH   2   3
HETATM    3  N   UNL     1     -12.285  14.085  70.419  1.00  0.00    -0.341 NA 
HETATM    4  C   UNL     1     -11.785  15.005  71.444  1.00  0.00    -0.357 C  
HETATM    5  C   UNL     1     -11.241  16.149  70.618  1.00  0.00    -0.371 C  
HETATM    6  C   UNL     1     -10.579  15.453  69.441  1.00  0.00    -0.251 C  
HETATM    7  C   UNL     1     -11.300  14.099  69.310  1.00  0.00    -0.281 C  
BRANCH   7   8
HETATM    8  C   UNL     1     -12.001  13.941  67.942  1.00  0.00    -0.358 C  
BRANCH   8   9
HETATM    9  N   UNL     1     -11.414  12.915  67.088  1.00  0.00    -0.316 N  
HETATM   10  C   UNL     1     -10.343  13.176  66.252  1.00  0.00    -0.287 C  
HETATM   11  H   UNL     1     -11.805  11.973  67.108  1.00  0.00     0.000 HD 
HETATM   12  O   UNL     1      -9.826  14.282  66.167  1.00  0.00    -0.294 OA 
BRANCH  10  13
HETATM   13  C   UNL     1      -9.867  12.035  65.412  1.00  0.00    -0.243 A  
HETATM   14  C   UNL     1      -9.042  11.073  66.034  1.00  0.00    -0.212 A  
HETATM   15  C   UNL     1      -8.658   9.913  65.351  1.00  0.00    -0.152 A  
HETATM   16  C   UNL     1     -10.292  11.811  64.088  1.00  0.00    -0.331 A  
HETATM   17  C   UNL     1      -9.081   9.687  64.047  1.00  0.00    -0.246 A  
HETATM   18  C   UNL     1      -9.904  10.629  63.430  1.00  0.00    -0.376 A  
BRANCH  15  19
HETATM   19  S   UNL     1      -7.539   8.768  66.132  1.00  0.00    -0.095 S  
HETATM   20  O   UNL     1      -7.370   9.220  67.498  1.00  0.00    -0.086 OA 
HETATM   21  O   UNL     1      -6.396   8.627  65.251  1.00  0.00    -0.055 OA 
BRANCH  19  22
HETATM   22  C   UNL     1      -8.431   7.226  66.155  1.00  0.00    -0.142 C  
HETATM   23  C   UNL     1      -9.799   7.393  66.792  1.00  0.00    -0.290 C  
ENDBRANCH  19  22
ENDBRANCH  15  19
BRANCH  16  24
HETATM   24  O   UNL     1     -11.133  12.579  63.329  1.00  0.00    -0.438 OA 
HETATM   25  C   UNL     1     -12.529  12.353  63.480  1.00  0.00    -0.500 C  
ENDBRANCH  16  24
ENDBRANCH  10  13
ENDBRANCH   8   9
ENDBRANCH   7   8
ENDBRANCH   2   3
TORSDOF 7
ENDMDL
MODEL      110
REMARK 921   NORMALIZED FREE ENERGY PREDICTED BY IDOCK:   -4.90 KCAL/MOL
REMARK 922        TOTAL FREE ENERGY PREDICTED BY IDOCK:   -7.78 KCAL/MOL
REMARK 923 INTER-LIGAND FREE ENERGY PREDICTED BY IDOCK:   -6.98 KCAL/MOL
REMARK 924 INTRA-LIGAND FREE ENERGY PREDICTED BY IDOCK:   -0.80 KCAL/MOL
REMARK 927      BINDING AFFINITY PREDICTED BY RF-SCORE:    0.00 PKD
ROOT
HETATM    1  C   UNL     1      -9.080   4.861  69.593  1.00  0.00    -0.153 C  
HETATM    2  C   UNL     1      -8.485   5.088  68.207  1.00  0.00    -0.098 C  
ENDROOT
BRANCH   2   3
HETATM    3  N   UNL     1      -8.412   6.511  67.855  1.00  0.00    -0.119 NA 
HETATM    4  C   UNL     1      -7.117   6.887  67.281  1.00  0.00    -0.084 C  
HETATM    5  C   UNL     1      -7.421   8.222  66.637  1.00  0.00    -0.086 C  
HETATM    6  C   UNL     1      -8.800   8.017  66.033  1.00  0.00    -0.196 C  
HETATM    7  C   UNL     1      -9.449   6.899  66.868  1.00  0.00    -0.158 C  
BRANCH   7   8
HETATM    8  C   UNL     1     -10.739   7.373  67.575  1.00  0.00    -0.240 C  
BRANCH   8   9
HETATM    9  N   UNL     1     -11.030   8.790  67.393  1.00  0.00    -0.418 N  
HETATM   10  C   UNL     1     -10.837   9.717  68.401  1.00  0.00    -0.201 C  
HETATM   11  H   UNL     1     -11.388   9.109  66.492  1.00  0.00     0.000 HD 
HETATM   12  O   UNL     1     -10.419   9.410  69.509  1.00  0.00    -0.202 OA 
BRANCH  10  13
HETATM   13  C   UNL     1     -11.209  11.129  68.080  1.00  0.00    -0.356 A  
HETATM   14  C   UNL     1     -11.339  11.469  66.716  1.00  0.00    -0.309 A  
HETATM   15  C   UNL     1     -11.804  12.734  66.337  1.00  0.00    -0.408 A  
HETATM   16  C   UNL     1     -11.550  12.087  69.054  1.00  0.00    -0.313 A  
HETATM   17  C   UNL     1     -12.146  13.679  67.296  1.00  0.00    -0.385 A  
HETATM   18  C   UNL     1     -12.029  13.346  68.646  1.00  0.00    -0.362 A  
BRANCH  15  19
HETATM   19  S   UNL     1     -11.864  13.163  64.610  1.00  0.00    -0.394 S  
HETATM   20  O   UNL     1     -11.872  14.611  64.541  1.00  0.00    -0.427 OA 
HETATM   21  O   UNL     1     -12.937  12.388  64.019  1.00  0.00    -0.748 OA 
BRANCH  19  22
HETATM   22  C   UNL     1     -10.314  12.577  63.955  1.00  0.00    -0.409 C  
HETATM   23  C   UNL     1     -10.489  11.248  63.241  1.00  0.00    -0.370 C  
ENDBRANCH  19  22
ENDBRANCH  15  19
BRANCH  16  24
HETATM   24  O   UNL     1     -11.553  11.943  70.415  1.00  0.00    -0.214 OA 
HETATM   25  C   UNL     1     -12.775  11.538  71.021  1.00  0.00    -0.328 C  
ENDBRANCH  16  24
ENDBRANCH  10  13
ENDBRANCH   8   9
ENDBRANCH   7   8
ENDBRANCH   2   3
TORSDOF 7
ENDMDL
MODEL      111
REMARK 921   NORMALIZED FREE ENERGY PREDICTED BY IDOCK:   -4.89 KCAL/MOL
REMARK 922        TOTAL FREE ENERGY PREDICTED BY IDOCK:   -7.77 KCAL/MOL
REMARK 923 INTER-LIGAND FREE ENERGY PREDICTED BY IDOCK:   -6.69 KCAL/MOL
REMARK 924 INTRA-LIGAND FREE ENERGY PREDICTED BY IDOCK:   -1.07 KCAL/MOL
REMARK 927      BINDING AFFINITY PREDICTED BY RF-SCORE:    0.00 PKD
ROOT
HETATM    1  C   UNL     1      -9.402   7.233  66.602  1.00  0.00    -0.215 C  
HETATM    2  C   UNL     1     -10.007   8.628  66.705  1.00  0.00    -0.273 C  
ENDROOT
BRANCH   2   3
HETATM    3  N   UNL     1      -9.110   9.668  66.187  1.00  0.00    -0.153 NA 
HETATM    4  C   UNL     1      -7.695   9.359  66.411  1.00  0.00    -0.097 C  
HETATM    5  C   UNL     1      -7.000  10.309  65.461  1.00  0.00    -0.138 C  
HETATM    6  C   UNL     1      -7.882  10.282  64.225  1.00  0.00    -0.117 C  
HETATM    7  C   UNL     1      -9.279   9.880  64.729  1.00  0.00    -0.254 C  
BRANCH   7   8
HETATM    8  C   UNL     1     -10.338  10.969  64.445  1.00  0.00    -0.358 C  
BRANCH   8   9
HETATM    9  N   UNL     1     -10.392  12.022  65.452  1.00  0.00    -0.256 N  
HETATM   10  C   UNL     1     -10.868  13.290  65.168  1.00  0.00    -0.310 C  
HETATM   11  H   UNL     1     -10.069  11.817  66.398  1.00  0.00     0.000 HD 
HETATM   12  O   UNL     1     -11.265  13.612  64.056  1.00  0.00    -0.321 OA 
BRANCH  10  13
HETATM   13  C   UNL     1     -10.834  14.275  66.291  1.00  0.00    -0.310 A  
HETATM   14  C   UNL     1     -10.281  15.545  66.020  1.00  0.00    -0.349 A  
HETATM   15  C   UNL     1     -10.325  16.563  66.981  1.00  0.00    -0.301 A  
HETATM   16  C   UNL     1     -11.425  14.046  67.548  1.00  0.00    -0.343 A  
HETATM   17  C   UNL     1     -10.912  16.341  68.220  1.00  0.00    -0.348 A  
HETATM   18  C   UNL     1     -11.469  15.091  68.491  1.00  0.00    -0.335 A  
BRANCH  15  19
HETATM   19  S   UNL     1      -9.533  18.121  66.642  1.00  0.00    -0.309 S  
HETATM   20  O   UNL     1      -9.530  18.865  67.886  1.00  0.00    -0.292 OA 
HETATM   21  O   UNL     1     -10.163  18.666  65.455  1.00  0.00    -0.474 OA 
BRANCH  19  22
HETATM   22  C   UNL     1      -7.852  17.686  66.242  1.00  0.00    -0.273 C  
HETATM   23  C   UNL     1      -6.943  18.901  66.295  1.00  0.00    -0.258 C  
ENDBRANCH  19  22
ENDBRANCH  15  19
BRANCH  16  24
HETATM   24  O   UNL     1     -12.063  12.919  67.989  1.00  0.00    -0.311 OA 
HETATM   25  C   UNL     1     -11.472  12.225  69.082  1.00  0.00    -0.296 C  
ENDBRANCH  16  24
ENDBRANCH  10  13
ENDBRANCH   8   9
ENDBRANCH   7   8
ENDBRANCH   2   3
TORSDOF 7
ENDMDL
MODEL      112
REMARK 921   NORMALIZED FREE ENERGY PREDICTED BY IDOCK:   -4.89 KCAL/MOL
REMARK 922        TOTAL FREE ENERGY PREDICTED BY IDOCK:   -7.75 KCAL/MOL
REMARK 923 INTER-LIGAND FREE ENERGY PREDICTED BY IDOCK:   -6.60 KCAL/MOL
REMARK 924 INTRA-LIGAND FREE ENERGY PREDICTED BY IDOCK:   -1.15 KCAL/MOL
REMARK 927      BINDING AFFINITY PREDICTED BY RF-SCORE:    0.00 PKD
ROOT
HETATM    1  C   UNL     1     -11.000  13.857  64.368  1.00  0.00    -0.322 C  
HETATM    2  C   UNL     1     -10.505  13.683  65.800  1.00  0.00    -0.293 C  
ENDROOT
BRANCH   2   3
HETATM    3  N   UNL     1     -10.299  12.274  66.156  1.00  0.00    -0.237 NA 
HETATM    4  C   UNL     1     -10.649  11.358  65.067  1.00  0.00    -0.299 C  
HETATM    5  C   UNL     1      -9.979  10.071  65.497  1.00  0.00    -0.367 C  
HETATM    6  C   UNL     1      -8.652  10.538  66.071  1.00  0.00    -0.166 C  
HETATM    7  C   UNL     1      -8.891  11.989  66.524  1.00  0.00    -0.172 C  
BRANCH   7   8
HETATM    8  C   UNL     1      -8.666  12.171  68.042  1.00  0.00    -0.180 C  
BRANCH   8   9
HETATM    9  N   UNL     1      -9.669  11.516  68.874  1.00  0.00    -0.393 N  
HETATM   10  C   UNL     1      -9.368  10.425  69.669  1.00  0.00    -0.066 C  
HETATM   11  H   UNL     1     -10.624  11.875  68.870  1.00  0.00     0.000 HD 
HETATM   12  O   UNL     1      -8.249   9.933  69.720  1.00  0.00    -0.151 OA 
BRANCH  10  13
HETATM   13  C   UNL     1     -10.504   9.838  70.443  1.00  0.00    -0.358 A  
HETATM   14  C   UNL     1     -10.264   8.627  71.128  1.00  0.00    -0.294 A  
HETATM   15  C   UNL     1     -11.236   8.079  71.973  1.00  0.00    -0.298 A  
HETATM   16  C   UNL     1     -11.743  10.483  70.620  1.00  0.00    -0.357 A  
HETATM   17  C   UNL     1     -12.457   8.717  72.154  1.00  0.00    -0.453 A  
HETATM   18  C   UNL     1     -12.697   9.919  71.488  1.00  0.00    -0.515 A  
BRANCH  15  19
HETATM   19  S   UNL     1     -10.937   6.503  72.745  1.00  0.00    -0.246 S  
HETATM   20  O   UNL     1     -12.133   5.709  72.545  1.00  0.00    -0.221 OA 
HETATM   21  O   UNL     1     -10.442   6.773  74.080  1.00  0.00    -0.365 OA 
BRANCH  19  22
HETATM   22  C   UNL     1      -9.618   5.784  71.786  1.00  0.00    -0.155 C  
HETATM   23  C   UNL     1      -8.420   5.458  72.661  1.00  0.00    -0.114 C  
ENDBRANCH  19  22
ENDBRANCH  15  19
BRANCH  16  24
HETATM   24  O   UNL     1     -12.153  11.681  70.102  1.00  0.00    -0.322 OA 
HETATM   25  C   UNL     1     -12.655  12.646  71.019  1.00  0.00    -0.262 C  
ENDBRANCH  16  24
ENDBRANCH  10  13
ENDBRANCH   8   9
ENDBRANCH   7   8
ENDBRANCH   2   3
TORSDOF 7
ENDMDL
MODEL      113
REMARK 921   NORMALIZED FREE ENERGY PREDICTED BY IDOCK:   -4.88 KCAL/MOL
REMARK 922        TOTAL FREE ENERGY PREDICTED BY IDOCK:   -7.75 KCAL/MOL
REMARK 923 INTER-LIGAND FREE ENERGY PREDICTED BY IDOCK:   -7.02 KCAL/MOL
REMARK 924 INTRA-LIGAND FREE ENERGY PREDICTED BY IDOCK:   -0.73 KCAL/MOL
REMARK 927      BINDING AFFINITY PREDICTED BY RF-SCORE:    0.00 PKD
ROOT
HETATM    1  C   UNL     1     -12.971  11.800  71.656  1.00  0.00    -0.467 C  
HETATM    2  C   UNL     1     -12.268  10.877  70.665  1.00  0.00    -0.376 C  
ENDROOT
BRANCH   2   3
HETATM    3  N   UNL     1     -11.452   9.856  71.332  1.00  0.00    -0.361 NA 
HETATM    4  C   UNL     1     -12.200   9.105  72.345  1.00  0.00    -0.193 C  
HETATM    5  C   UNL     1     -11.320   7.895  72.569  1.00  0.00    -0.449 C  
HETATM    6  C   UNL     1     -10.835   7.547  71.172  1.00  0.00    -0.254 C  
HETATM    7  C   UNL     1     -10.906   8.862  70.375  1.00  0.00    -0.236 C  
BRANCH   7   8
HETATM    8  C   UNL     1      -9.522   9.301  69.849  1.00  0.00    -0.197 C  
BRANCH   8   9
HETATM    9  N   UNL     1      -9.553   9.891  68.515  1.00  0.00    -0.151 N  
HETATM   10  C   UNL     1      -9.981   9.184  67.406  1.00  0.00    -0.206 C  
HETATM   11  H   UNL     1      -9.249  10.858  68.397  1.00  0.00     0.000 HD 
HETATM   12  O   UNL     1     -10.352   8.019  67.468  1.00  0.00    -0.221 OA 
BRANCH  10  13
HETATM   13  C   UNL     1      -9.928   9.908  66.100  1.00  0.00    -0.331 A  
HETATM   14  C   UNL     1     -10.843  10.966  65.910  1.00  0.00    -0.132 A  
HETATM   15  C   UNL     1     -10.776  11.772  64.767  1.00  0.00    -0.302 A  
HETATM   16  C   UNL     1      -8.949   9.673  65.116  1.00  0.00    -0.207 A  
HETATM   17  C   UNL     1      -9.806  11.546  63.797  1.00  0.00    -0.348 A  
HETATM   18  C   UNL     1      -8.893  10.508  63.984  1.00  0.00    -0.206 A  
BRANCH  15  19
HETATM   19  S   UNL     1     -12.005  13.035  64.513  1.00  0.00    -0.422 S  
HETATM   20  O   UNL     1     -12.896  12.983  65.654  1.00  0.00    -0.463 OA 
HETATM   21  O   UNL     1     -12.514  12.865  63.166  1.00  0.00    -0.641 OA 
BRANCH  19  22
HETATM   22  C   UNL     1     -11.090  14.563  64.583  1.00  0.00    -0.346 C  
HETATM   23  C   UNL     1     -10.682  14.893  66.008  1.00  0.00    -0.326 C  
ENDBRANCH  19  22
ENDBRANCH  15  19
BRANCH  16  24
HETATM   24  O   UNL     1      -7.941   8.748  65.132  1.00  0.00    -0.111 OA 
HETATM   25  C   UNL     1      -8.152   7.548  64.397  1.00  0.00    -0.074 C  
ENDBRANCH  16  24
ENDBRANCH  10  13
ENDBRANCH   8   9
ENDBRANCH   7   8
ENDBRANCH   2   3
TORSDOF 7
ENDMDL
MODEL      114
REMARK 921   NORMALIZED FREE ENERGY PREDICTED BY IDOCK:   -4.86 KCAL/MOL
REMARK 922        TOTAL FREE ENERGY PREDICTED BY IDOCK:   -7.72 KCAL/MOL
REMARK 923 INTER-LIGAND FREE ENERGY PREDICTED BY IDOCK:   -7.07 KCAL/MOL
REMARK 924 INTRA-LIGAND FREE ENERGY PREDICTED BY IDOCK:   -0.65 KCAL/MOL
REMARK 927      BINDING AFFINITY PREDICTED BY RF-SCORE:    0.00 PKD
ROOT
HETATM    1  C   UNL     1      -6.746  20.374  66.087  1.00  0.00    -0.279 C  
HETATM    2  C   UNL     1      -7.318  20.384  67.501  1.00  0.00    -0.318 C  
ENDROOT
BRANCH   2   3
HETATM    3  N   UNL     1      -8.658  19.787  67.568  1.00  0.00    -0.316 NA 
HETATM    4  C   UNL     1      -9.691  20.645  66.983  1.00  0.00    -0.345 C  
HETATM    5  C   UNL     1     -10.843  19.684  66.789  1.00  0.00    -0.489 C  
HETATM    6  C   UNL     1     -10.164  18.410  66.314  1.00  0.00    -0.427 C  
HETATM    7  C   UNL     1      -8.727  18.485  66.859  1.00  0.00    -0.286 C  
BRANCH   7   8
HETATM    8  C   UNL     1      -8.404  17.315  67.815  1.00  0.00    -0.212 C  
BRANCH   8   9
HETATM    9  N   UNL     1      -9.192  16.112  67.569  1.00  0.00    -0.207 N  
HETATM   10  C   UNL     1      -9.916  15.488  68.569  1.00  0.00    -0.208 C  
HETATM   11  H   UNL     1      -9.210  15.718  66.628  1.00  0.00     0.000 HD 
HETATM   12  O   UNL     1      -9.936  15.897  69.722  1.00  0.00    -0.267 OA 
BRANCH  10  13
HETATM   13  C   UNL     1     -10.649  14.246  68.177  1.00  0.00    -0.246 A  
HETATM   14  C   UNL     1     -10.492  13.795  66.848  1.00  0.00    -0.272 A  
HETATM   15  C   UNL     1     -11.045  12.576  66.438  1.00  0.00    -0.290 A  
HETATM   16  C   UNL     1     -11.377  13.451  69.082  1.00  0.00    -0.280 A  
HETATM   17  C   UNL     1     -11.759  11.787  67.331  1.00  0.00    -0.304 A  
HETATM   18  C   UNL     1     -11.910  12.222  68.648  1.00  0.00    -0.354 A  
BRANCH  15  19
HETATM   19  S   UNL     1     -10.910  12.084  64.732  1.00  0.00    -0.320 S  
HETATM   20  O   UNL     1      -9.952  12.980  64.116  1.00  0.00    -0.267 OA 
HETATM   21  O   UNL     1     -12.261  11.974  64.216  1.00  0.00    -0.358 OA 
BRANCH  19  22
HETATM   22  C   UNL     1     -10.195  10.453  64.798  1.00  0.00    -0.249 C  
HETATM   23  C   UNL     1      -8.906  10.388  63.998  1.00  0.00    -0.225 C  
ENDBRANCH  19  22
ENDBRANCH  15  19
BRANCH  16  24
HETATM   24  O   UNL     1     -11.596  13.673  70.415  1.00  0.00    -0.189 OA 
HETATM   25  C   UNL     1     -12.786  14.367  70.769  1.00  0.00    -0.360 C  
ENDBRANCH  16  24
ENDBRANCH  10  13
ENDBRANCH   8   9
ENDBRANCH   7   8
ENDBRANCH   2   3
TORSDOF 7
ENDMDL
MODEL      115
REMARK 921   NORMALIZED FREE ENERGY PREDICTED BY IDOCK:   -4.85 KCAL/MOL
REMARK 922        TOTAL FREE ENERGY PREDICTED BY IDOCK:   -7.70 KCAL/MOL
REMARK 923 INTER-LIGAND FREE ENERGY PREDICTED BY IDOCK:   -6.85 KCAL/MOL
REMARK 924 INTRA-LIGAND FREE ENERGY PREDICTED BY IDOCK:   -0.85 KCAL/MOL
REMARK 927      BINDING AFFINITY PREDICTED BY RF-SCORE:    0.00 PKD
ROOT
HETATM    1  C   UNL     1     -14.236  14.514  72.165  1.00  0.00    -0.619 C  
HETATM    2  C   UNL     1     -13.165  13.787  71.359  1.00  0.00    -0.305 C  
ENDROOT
BRANCH   2   3
HETATM    3  N   UNL     1     -12.525  14.656  70.364  1.00  0.00    -0.339 NA 
HETATM    4  C   UNL     1     -11.986  15.887  70.948  1.00  0.00    -0.394 C  
HETATM    5  C   UNL     1     -11.052  16.380  69.866  1.00  0.00    -0.313 C  
HETATM    6  C   UNL     1     -10.401  15.107  69.354  1.00  0.00    -0.259 C  
HETATM    7  C   UNL     1     -11.401  13.980  69.670  1.00  0.00    -0.214 C  
BRANCH   7   8
HETATM    8  C   UNL     1     -11.889  13.258  68.394  1.00  0.00    -0.360 C  
BRANCH   8   9
HETATM    9  N   UNL     1     -11.623  11.824  68.384  1.00  0.00    -0.296 N  
HETATM   10  C   UNL     1     -10.449  11.296  67.877  1.00  0.00    -0.188 C  
HETATM   11  H   UNL     1     -12.326  11.190  68.765  1.00  0.00     0.000 HD 
HETATM   12  O   UNL     1      -9.565  11.993  67.397  1.00  0.00    -0.173 OA 
BRANCH  10  13
HETATM   13  C   UNL     1     -10.330   9.807  67.904  1.00  0.00    -0.258 A  
HETATM   14  C   UNL     1     -10.606   9.158  69.127  1.00  0.00    -0.224 A  
HETATM   15  C   UNL     1     -10.637   7.760  69.203  1.00  0.00    -0.183 A  
HETATM   16  C   UNL     1     -10.079   9.023  66.762  1.00  0.00    -0.274 A  
HETATM   17  C   UNL     1     -10.395   6.985  68.076  1.00  0.00    -0.234 A  
HETATM   18  C   UNL     1     -10.131   7.620  66.862  1.00  0.00    -0.348 A  
BRANCH  15  19
HETATM   19  S   UNL     1     -10.893   6.975  70.780  1.00  0.00    -0.255 S  
HETATM   20  O   UNL     1      -9.831   6.002  70.937  1.00  0.00    -0.178 OA 
HETATM   21  O   UNL     1     -12.284   6.568  70.829  1.00  0.00    -0.328 OA 
BRANCH  19  22
HETATM   22  C   UNL     1     -10.643   8.279  71.969  1.00  0.00    -0.296 C  
HETATM   23  C   UNL     1      -9.245   8.219  72.561  1.00  0.00    -0.339 C  
ENDBRANCH  19  22
ENDBRANCH  15  19
BRANCH  16  24
HETATM   24  O   UNL     1      -9.850   9.446  65.480  1.00  0.00    -0.290 OA 
HETATM   25  C   UNL     1      -8.620   9.058  64.880  1.00  0.00    -0.180 C  
ENDBRANCH  16  24
ENDBRANCH  10  13
ENDBRANCH   8   9
ENDBRANCH   7   8
ENDBRANCH   2   3
TORSDOF 7
ENDMDL
MODEL      116
REMARK 921   NORMALIZED FREE ENERGY PREDICTED BY IDOCK:   -4.85 KCAL/MOL
REMARK 922        TOTAL FREE ENERGY PREDICTED BY IDOCK:   -7.70 KCAL/MOL
REMARK 923 INTER-LIGAND FREE ENERGY PREDICTED BY IDOCK:   -6.83 KCAL/MOL
REMARK 924 INTRA-LIGAND FREE ENERGY PREDICTED BY IDOCK:   -0.87 KCAL/MOL
REMARK 927      BINDING AFFINITY PREDICTED BY RF-SCORE:    0.00 PKD
ROOT
HETATM    1  C   UNL     1      -6.946   8.862  68.624  1.00  0.00    -0.064 C  
HETATM    2  C   UNL     1      -7.283  10.331  68.387  1.00  0.00    -0.080 C  
ENDROOT
BRANCH   2   3
HETATM    3  N   UNL     1      -8.426  10.504  67.483  1.00  0.00    -0.118 NA 
HETATM    4  C   UNL     1      -8.022  10.711  66.090  1.00  0.00    -0.151 C  
HETATM    5  C   UNL     1      -9.305  10.443  65.335  1.00  0.00    -0.252 C  
HETATM    6  C   UNL     1      -9.909   9.261  66.072  1.00  0.00    -0.363 C  
HETATM    7  C   UNL     1      -9.336   9.332  67.498  1.00  0.00    -0.127 C  
BRANCH   7   8
HETATM    8  C   UNL     1     -10.441   9.500  68.564  1.00  0.00    -0.217 C  
BRANCH   8   9
HETATM    9  N   UNL     1     -10.529  10.845  69.123  1.00  0.00    -0.220 N  
HETATM   10  C   UNL     1     -11.469  11.763  68.688  1.00  0.00    -0.288 C  
HETATM   11  H   UNL     1      -9.876  11.117  69.858  1.00  0.00     0.000 HD 
HETATM   12  O   UNL     1     -12.278  11.512  67.806  1.00  0.00    -0.560 OA 
BRANCH  10  13
HETATM   13  C   UNL     1     -11.419  13.112  69.329  1.00  0.00    -0.348 A  
HETATM   14  C   UNL     1     -10.750  14.138  68.626  1.00  0.00    -0.263 A  
HETATM   15  C   UNL     1     -10.766  15.455  69.099  1.00  0.00    -0.246 A  
HETATM   16  C   UNL     1     -12.096  13.436  70.520  1.00  0.00    -0.323 A  
HETATM   17  C   UNL     1     -11.439  15.779  70.271  1.00  0.00    -0.369 A  
HETATM   18  C   UNL     1     -12.109  14.771  70.965  1.00  0.00    -0.391 A  
BRANCH  15  19
HETATM   19  S   UNL     1      -9.833  16.705  68.239  1.00  0.00    -0.264 S  
HETATM   20  O   UNL     1      -8.443  16.295  68.292  1.00  0.00    -0.176 OA 
HETATM   21  O   UNL     1     -10.248  17.986  68.775  1.00  0.00    -0.377 OA 
BRANCH  19  22
HETATM   22  C   UNL     1     -10.391  16.590  66.551  1.00  0.00    -0.305 C  
HETATM   23  C   UNL     1      -9.630  15.514  65.795  1.00  0.00    -0.367 C  
ENDBRANCH  19  22
ENDBRANCH  15  19
BRANCH  16  24
HETATM   24  O   UNL     1     -12.847  12.614  71.315  1.00  0.00    -0.355 OA 
HETATM   25  C   UNL     1     -13.659  13.234  72.305  1.00  0.00    -0.605 C  
ENDBRANCH  16  24
ENDBRANCH  10  13
ENDBRANCH   8   9
ENDBRANCH   7   8
ENDBRANCH   2   3
TORSDOF 7
ENDMDL
MODEL      117
REMARK 921   NORMALIZED FREE ENERGY PREDICTED BY IDOCK:   -4.84 KCAL/MOL
REMARK 922        TOTAL FREE ENERGY PREDICTED BY IDOCK:   -7.69 KCAL/MOL
REMARK 923 INTER-LIGAND FREE ENERGY PREDICTED BY IDOCK:   -6.56 KCAL/MOL
REMARK 924 INTRA-LIGAND FREE ENERGY PREDICTED BY IDOCK:   -1.13 KCAL/MOL
REMARK 927      BINDING AFFINITY PREDICTED BY RF-SCORE:    0.00 PKD
ROOT
HETATM    1  C   UNL     1     -10.177  16.640  65.964  1.00  0.00    -0.366 C  
HETATM    2  C   UNL     1     -10.830  15.263  66.035  1.00  0.00    -0.330 C  
ENDROOT
BRANCH   2   3
HETATM    3  N   UNL     1     -10.782  14.688  67.384  1.00  0.00    -0.276 NA 
HETATM    4  C   UNL     1     -10.790  15.708  68.436  1.00  0.00    -0.290 C  
HETATM    5  C   UNL     1     -11.154  14.905  69.665  1.00  0.00    -0.298 C  
HETATM    6  C   UNL     1     -12.207  13.935  69.156  1.00  0.00    -0.305 C  
HETATM    7  C   UNL     1     -11.929  13.785  67.650  1.00  0.00    -0.356 C  
BRANCH   7   8
HETATM    8  C   UNL     1     -11.591  12.328  67.261  1.00  0.00    -0.357 C  
BRANCH   8   9
HETATM    9  N   UNL     1     -11.588  11.399  68.385  1.00  0.00    -0.304 N  
HETATM   10  C   UNL     1     -10.416  10.963  68.978  1.00  0.00    -0.219 C  
HETATM   11  H   UNL     1     -12.480  11.058  68.746  1.00  0.00     0.000 HD 
HETATM   12  O   UNL     1      -9.310  11.320  68.594  1.00  0.00    -0.180 OA 
BRANCH  10  13
HETATM   13  C   UNL     1     -10.567   9.986  70.098  1.00  0.00    -0.350 A  
HETATM   14  C   UNL     1      -9.426   9.238  70.462  1.00  0.00    -0.317 A  
HETATM   15  C   UNL     1      -9.452   8.394  71.579  1.00  0.00    -0.203 A  
HETATM   16  C   UNL     1     -11.734   9.864  70.876  1.00  0.00    -0.364 A  
HETATM   17  C   UNL     1     -10.601   8.276  72.351  1.00  0.00    -0.408 A  
HETATM   18  C   UNL     1     -11.729   9.020  72.002  1.00  0.00    -0.417 A  
BRANCH  15  19
HETATM   19  S   UNL     1      -8.027   7.392  71.952  1.00  0.00    -0.092 S  
HETATM   20  O   UNL     1      -8.114   7.054  73.358  1.00  0.00    -0.099 OA 
HETATM   21  O   UNL     1      -6.870   8.092  71.429  1.00  0.00    -0.049 OA 
BRANCH  19  22
HETATM   22  C   UNL     1      -8.269   5.907  70.998  1.00  0.00    -0.122 C  
HETATM   23  C   UNL     1      -8.838   4.791  71.858  1.00  0.00    -0.137 C  
ENDBRANCH  19  22
ENDBRANCH  15  19
BRANCH  16  24
HETATM   24  O   UNL     1     -12.918  10.536  70.733  1.00  0.00    -0.370 OA 
HETATM   25  C   UNL     1     -13.258  11.471  71.750  1.00  0.00    -0.351 C  
ENDBRANCH  16  24
ENDBRANCH  10  13
ENDBRANCH   8   9
ENDBRANCH   7   8
ENDBRANCH   2   3
TORSDOF 7
ENDMDL
MODEL      118
REMARK 921   NORMALIZED FREE ENERGY PREDICTED BY IDOCK:   -4.83 KCAL/MOL
REMARK 922        TOTAL FREE ENERGY PREDICTED BY IDOCK:   -7.67 KCAL/MOL
REMARK 923 INTER-LIGAND FREE ENERGY PREDICTED BY IDOCK:   -6.66 KCAL/MOL
REMARK 924 INTRA-LIGAND FREE ENERGY PREDICTED BY IDOCK:   -1.01 KCAL/MOL
REMARK 927      BINDING AFFINITY PREDICTED BY RF-SCORE:    0.00 PKD
ROOT
HETATM    1  C   UNL     1     -10.013  10.851  63.695  1.00  0.00    -0.415 C  
HETATM    2  C   UNL     1     -10.073  11.212  65.175  1.00  0.00    -0.281 C  
ENDROOT
BRANCH   2   3
HETATM    3  N   UNL     1     -10.524  12.591  65.398  1.00  0.00    -0.276 NA 
HETATM    4  C   UNL     1     -10.700  13.339  64.150  1.00  0.00    -0.326 C  
HETATM    5  C   UNL     1     -11.537  14.519  64.592  1.00  0.00    -0.413 C  
HETATM    6  C   UNL     1     -12.516  13.908  65.579  1.00  0.00    -0.541 C  
HETATM    7  C   UNL     1     -11.819  12.647  66.120  1.00  0.00    -0.418 C  
BRANCH   7   8
HETATM    8  C   UNL     1     -11.600  12.711  67.648  1.00  0.00    -0.357 C  
BRANCH   8   9
HETATM    9  N   UNL     1     -11.620  11.410  68.307  1.00  0.00    -0.303 N  
HETATM   10  C   UNL     1     -10.480  10.838  68.842  1.00  0.00    -0.205 C  
HETATM   11  H   UNL     1     -12.504  10.905  68.375  1.00  0.00     0.000 HD 
HETATM   12  O   UNL     1      -9.383  11.379  68.791  1.00  0.00    -0.179 OA 
BRANCH  10  13
HETATM   13  C   UNL     1     -10.646   9.486  69.458  1.00  0.00    -0.238 A  
HETATM   14  C   UNL     1     -10.034   8.397  68.800  1.00  0.00    -0.197 A  
HETATM   15  C   UNL     1     -10.039   7.121  69.377  1.00  0.00    -0.176 A  
HETATM   16  C   UNL     1     -11.267   9.266  70.702  1.00  0.00    -0.276 A  
HETATM   17  C   UNL     1     -10.646   6.902  70.607  1.00  0.00    -0.248 A  
HETATM   18  C   UNL     1     -11.244   7.977  71.266  1.00  0.00    -0.287 A  
BRANCH  15  19
HETATM   19  S   UNL     1      -9.343   5.751  68.477  1.00  0.00    -0.124 S  
HETATM   20  O   UNL     1     -10.062   4.567  68.902  1.00  0.00    -0.117 OA 
HETATM   21  O   UNL     1      -7.903   5.836  68.624  1.00  0.00    -0.095 OA 
BRANCH  19  22
HETATM   22  C   UNL     1      -9.759   6.083  66.776  1.00  0.00    -0.153 C  
HETATM   23  C   UNL     1     -10.767   5.075  66.252  1.00  0.00    -0.262 C  
ENDBRANCH  19  22
ENDBRANCH  15  19
BRANCH  16  24
HETATM   24  O   UNL     1     -11.861  10.185  71.524  1.00  0.00    -0.362 OA 
HETATM   25  C   UNL     1     -13.282  10.165  71.598  1.00  0.00    -0.418 C  
ENDBRANCH  16  24
ENDBRANCH  10  13
ENDBRANCH   8   9
ENDBRANCH   7   8
ENDBRANCH   2   3
TORSDOF 7
ENDMDL
MODEL      119
REMARK 921   NORMALIZED FREE ENERGY PREDICTED BY IDOCK:   -4.82 KCAL/MOL
REMARK 922        TOTAL FREE ENERGY PREDICTED BY IDOCK:   -7.66 KCAL/MOL
REMARK 923 INTER-LIGAND FREE ENERGY PREDICTED BY IDOCK:   -6.82 KCAL/MOL
REMARK 924 INTRA-LIGAND FREE ENERGY PREDICTED BY IDOCK:   -0.84 KCAL/MOL
REMARK 927      BINDING AFFINITY PREDICTED BY RF-SCORE:    0.00 PKD
ROOT
HETATM    1  C   UNL     1     -12.053  14.261  64.490  1.00  0.00    -0.499 C  
HETATM    2  C   UNL     1     -10.752  13.716  65.070  1.00  0.00    -0.367 C  
ENDROOT
BRANCH   2   3
HETATM    3  N   UNL     1     -10.793  13.606  66.533  1.00  0.00    -0.282 NA 
HETATM    4  C   UNL     1     -11.880  14.386  67.130  1.00  0.00    -0.410 C  
HETATM    5  C   UNL     1     -11.977  13.798  68.521  1.00  0.00    -0.402 C  
HETATM    6  C   UNL     1     -11.777  12.310  68.291  1.00  0.00    -0.392 C  
HETATM    7  C   UNL     1     -10.971  12.203  66.984  1.00  0.00    -0.271 C  
BRANCH   7   8
HETATM    8  C   UNL     1      -9.606  11.511  67.196  1.00  0.00    -0.177 C  
BRANCH   8   9
HETATM    9  N   UNL     1      -9.677  10.283  67.979  1.00  0.00    -0.148 N  
HETATM   10  C   UNL     1     -10.009   9.065  67.412  1.00  0.00    -0.209 C  
HETATM   11  H   UNL     1      -9.475  10.323  68.979  1.00  0.00     0.000 HD 
HETATM   12  O   UNL     1     -10.273   8.941  66.224  1.00  0.00    -0.284 OA 
BRANCH  10  13
HETATM   13  C   UNL     1     -10.074   7.899  68.344  1.00  0.00    -0.218 A  
HETATM   14  C   UNL     1     -10.768   8.081  69.561  1.00  0.00    -0.185 A  
HETATM   15  C   UNL     1     -10.979   7.004  70.430  1.00  0.00    -0.268 A  
HETATM   16  C   UNL     1      -9.593   6.616  68.024  1.00  0.00    -0.123 A  
HETATM   17  C   UNL     1     -10.510   5.736  70.113  1.00  0.00    -0.348 A  
HETATM   18  C   UNL     1      -9.833   5.547  68.908  1.00  0.00    -0.213 A  
BRANCH  15  19
HETATM   19  S   UNL     1     -11.773   7.289  71.999  1.00  0.00    -0.300 S  
HETATM   20  O   UNL     1     -10.911   8.185  72.743  1.00  0.00    -0.353 OA 
HETATM   21  O   UNL     1     -12.129   5.990  72.534  1.00  0.00    -0.230 OA 
BRANCH  19  22
HETATM   22  C   UNL     1     -13.270   8.162  71.585  1.00  0.00    -0.332 C  
HETATM   23  C   UNL     1     -13.188   9.619  72.004  1.00  0.00    -0.546 C  
ENDBRANCH  19  22
ENDBRANCH  15  19
BRANCH  16  24
HETATM   24  O   UNL     1      -8.954   6.215  66.882  1.00  0.00    -0.115 OA 
HETATM   25  C   UNL     1      -9.375   4.986  66.301  1.00  0.00    -0.149 C  
ENDBRANCH  16  24
ENDBRANCH  10  13
ENDBRANCH   8   9
ENDBRANCH   7   8
ENDBRANCH   2   3
TORSDOF 7
ENDMDL
MODEL      120
REMARK 921   NORMALIZED FREE ENERGY PREDICTED BY IDOCK:   -4.82 KCAL/MOL
REMARK 922        TOTAL FREE ENERGY PREDICTED BY IDOCK:   -7.66 KCAL/MOL
REMARK 923 INTER-LIGAND FREE ENERGY PREDICTED BY IDOCK:   -6.95 KCAL/MOL
REMARK 924 INTRA-LIGAND FREE ENERGY PREDICTED BY IDOCK:   -0.70 KCAL/MOL
REMARK 927      BINDING AFFINITY PREDICTED BY RF-SCORE:    0.00 PKD
ROOT
HETATM    1  C   UNL     1     -10.968  10.997  67.870  1.00  0.00    -0.317 C  
HETATM    2  C   UNL     1      -9.497  11.314  67.625  1.00  0.00    -0.167 C  
ENDROOT
BRANCH   2   3
HETATM    3  N   UNL     1      -9.059  10.934  66.276  1.00  0.00    -0.171 NA 
HETATM    4  C   UNL     1      -8.635   9.534  66.191  1.00  0.00    -0.131 C  
HETATM    5  C   UNL     1      -8.644   9.281  64.699  1.00  0.00    -0.209 C  
HETATM    6  C   UNL     1      -9.884  10.018  64.223  1.00  0.00    -0.152 C  
HETATM    7  C   UNL     1     -10.129  11.123  65.266  1.00  0.00    -0.276 C  
BRANCH   7   8
HETATM    8  C   UNL     1     -10.063  12.536  64.644  1.00  0.00    -0.233 C  
BRANCH   8   9
HETATM    9  N   UNL     1      -9.783  13.596  65.606  1.00  0.00    -0.494 N  
HETATM   10  C   UNL     1     -10.786  14.370  66.162  1.00  0.00    -0.309 C  
HETATM   11  H   UNL     1      -8.816  13.773  65.878  1.00  0.00     0.000 HD 
HETATM   12  O   UNL     1     -11.967  14.223  65.878  1.00  0.00    -0.375 OA 
BRANCH  10  13
HETATM   13  C   UNL     1     -10.347  15.440  67.109  1.00  0.00    -0.271 A  
HETATM   14  C   UNL     1      -9.384  16.361  66.641  1.00  0.00    -0.282 A  
HETATM   15  C   UNL     1      -9.013  17.463  67.421  1.00  0.00    -0.231 A  
HETATM   16  C   UNL     1     -10.923  15.645  68.377  1.00  0.00    -0.308 A  
HETATM   17  C   UNL     1      -9.584  17.671  68.670  1.00  0.00    -0.307 A  
HETATM   18  C   UNL     1     -10.543  16.769  69.134  1.00  0.00    -0.343 A  
BRANCH  15  19
HETATM   19  S   UNL     1      -7.726  18.550  66.843  1.00  0.00    -0.234 S  
HETATM   20  O   UNL     1      -7.341  18.076  65.529  1.00  0.00    -0.539 OA 
HETATM   21  O   UNL     1      -6.749  18.653  67.909  1.00  0.00    -0.210 OA 
BRANCH  19  22
HETATM   22  C   UNL     1      -8.532  20.129  66.658  1.00  0.00    -0.282 C  
HETATM   23  C   UNL     1      -9.871  19.982  65.957  1.00  0.00    -0.512 C  
ENDBRANCH  19  22
ENDBRANCH  15  19
BRANCH  16  24
HETATM   24  O   UNL     1     -11.905  14.913  68.986  1.00  0.00    -0.302 OA 
HETATM   25  C   UNL     1     -11.764  14.676  70.382  1.00  0.00    -0.295 C  
ENDBRANCH  16  24
ENDBRANCH  10  13
ENDBRANCH   8   9
ENDBRANCH   7   8
ENDBRANCH   2   3
TORSDOF 7
ENDMDL
MODEL      121
REMARK 921   NORMALIZED FREE ENERGY PREDICTED BY IDOCK:   -4.80 KCAL/MOL
REMARK 922        TOTAL FREE ENERGY PREDICTED BY IDOCK:   -7.63 KCAL/MOL
REMARK 923 INTER-LIGAND FREE ENERGY PREDICTED BY IDOCK:   -6.69 KCAL/MOL
REMARK 924 INTRA-LIGAND FREE ENERGY PREDICTED BY IDOCK:   -0.95 KCAL/MOL
REMARK 927      BINDING AFFINITY PREDICTED BY RF-SCORE:    0.00 PKD
ROOT
HETATM    1  C   UNL     1      -7.152  14.565  67.471  1.00  0.00    -0.199 C  
HETATM    2  C   UNL     1      -8.080  15.594  68.109  1.00  0.00    -0.136 C  
ENDROOT
BRANCH   2   3
HETATM    3  N   UNL     1      -9.368  15.695  67.412  1.00  0.00    -0.208 NA 
HETATM    4  C   UNL     1      -9.275  16.435  66.151  1.00  0.00    -0.330 C  
HETATM    5  C   UNL     1     -10.559  16.050  65.451  1.00  0.00    -0.428 C  
HETATM    6  C   UNL     1     -10.710  14.574  65.775  1.00  0.00    -0.320 C  
HETATM    7  C   UNL     1      -9.936  14.363  67.088  1.00  0.00    -0.253 C  
BRANCH   7   8
HETATM    8  C   UNL     1     -10.848  13.856  68.228  1.00  0.00    -0.249 C  
BRANCH   8   9
HETATM    9  N   UNL     1     -10.632  12.458  68.586  1.00  0.00    -0.251 N  
HETATM   10  C   UNL     1     -11.310  11.425  67.964  1.00  0.00    -0.303 C  
HETATM   11  H   UNL     1      -9.958  12.236  69.318  1.00  0.00     0.000 HD 
HETATM   12  O   UNL     1     -12.138  11.614  67.084  1.00  0.00    -0.575 OA 
BRANCH  10  13
HETATM   13  C   UNL     1     -11.008  10.047  68.457  1.00  0.00    -0.255 A  
HETATM   14  C   UNL     1     -11.281   9.772  69.815  1.00  0.00    -0.242 A  
HETATM   15  C   UNL     1     -11.143   8.475  70.323  1.00  0.00    -0.214 A  
HETATM   16  C   UNL     1     -10.589   8.993  67.623  1.00  0.00    -0.231 A  
HETATM   17  C   UNL     1     -10.734   7.432  69.500  1.00  0.00    -0.233 A  
HETATM   18  C   UNL     1     -10.473   7.695  68.155  1.00  0.00    -0.233 A  
BRANCH  15  19
HETATM   19  S   UNL     1     -11.401   8.183  72.061  1.00  0.00    -0.343 S  
HETATM   20  O   UNL     1     -10.170   8.551  72.731  1.00  0.00    -0.256 OA 
HETATM   21  O   UNL     1     -11.943   6.844  72.189  1.00  0.00    -0.294 OA 
BRANCH  19  22
HETATM   22  C   UNL     1     -12.664   9.352  72.522  1.00  0.00    -0.192 C  
HETATM   23  C   UNL     1     -14.051   8.764  72.330  1.00  0.00    -0.511 C  
ENDBRANCH  19  22
ENDBRANCH  15  19
BRANCH  16  24
HETATM   24  O   UNL     1     -10.332   9.031  66.279  1.00  0.00    -0.247 OA 
HETATM   25  C   UNL     1      -8.990   9.292  65.884  1.00  0.00    -0.184 C  
ENDBRANCH  16  24
ENDBRANCH  10  13
ENDBRANCH   8   9
ENDBRANCH   7   8
ENDBRANCH   2   3
TORSDOF 7
ENDMDL
MODEL      122
REMARK 921   NORMALIZED FREE ENERGY PREDICTED BY IDOCK:   -4.78 KCAL/MOL
REMARK 922        TOTAL FREE ENERGY PREDICTED BY IDOCK:   -7.60 KCAL/MOL
REMARK 923 INTER-LIGAND FREE ENERGY PREDICTED BY IDOCK:   -6.62 KCAL/MOL
REMARK 924 INTRA-LIGAND FREE ENERGY PREDICTED BY IDOCK:   -0.97 KCAL/MOL
REMARK 927      BINDING AFFINITY PREDICTED BY RF-SCORE:    0.00 PKD
ROOT
HETATM    1  C   UNL     1     -10.736   7.248  68.164  1.00  0.00    -0.191 C  
HETATM    2  C   UNL     1     -10.181   8.448  67.403  1.00  0.00    -0.260 C  
ENDROOT
BRANCH   2   3
HETATM    3  N   UNL     1      -8.948   8.128  66.674  1.00  0.00    -0.144 NA 
HETATM    4  C   UNL     1      -8.976   6.793  66.071  1.00  0.00    -0.106 C  
HETATM    5  C   UNL     1      -7.844   6.864  65.070  1.00  0.00    -0.121 C  
HETATM    6  C   UNL     1      -7.970   8.263  64.492  1.00  0.00    -0.146 C  
HETATM    7  C   UNL     1      -8.681   9.091  65.577  1.00  0.00    -0.181 C  
BRANCH   7   8
HETATM    8  C   UNL     1      -7.815  10.271  66.071  1.00  0.00    -0.133 C  
BRANCH   8   9
HETATM    9  N   UNL     1      -8.395  11.584  65.812  1.00  0.00    -0.376 N  
HETATM   10  C   UNL     1      -9.053  12.305  66.792  1.00  0.00    -0.211 C  
HETATM   11  H   UNL     1      -8.312  11.984  64.877  1.00  0.00     0.000 HD 
HETATM   12  O   UNL     1      -9.200  11.887  67.933  1.00  0.00    -0.174 OA 
BRANCH  10  13
HETATM   13  C   UNL     1      -9.624  13.621  66.372  1.00  0.00    -0.280 A  
HETATM   14  C   UNL     1      -8.961  14.785  66.819  1.00  0.00    -0.292 A  
HETATM   15  C   UNL     1      -9.359  16.050  66.370  1.00  0.00    -0.298 A  
HETATM   16  C   UNL     1     -10.697  13.755  65.471  1.00  0.00    -0.302 A  
HETATM   17  C   UNL     1     -10.414  16.184  65.475  1.00  0.00    -0.407 A  
HETATM   18  C   UNL     1     -11.066  15.037  65.023  1.00  0.00    -0.421 A  
BRANCH  15  19
HETATM   19  S   UNL     1      -8.565  17.502  67.027  1.00  0.00    -0.243 S  
HETATM   20  O   UNL     1      -8.103  18.273  65.891  1.00  0.00    -0.504 OA 
HETATM   21  O   UNL     1      -7.635  17.051  68.044  1.00  0.00    -0.173 OA 
BRANCH  19  22
HETATM   22  C   UNL     1      -9.880  18.403  67.823  1.00  0.00    -0.319 C  
HETATM   23  C   UNL     1     -10.291  19.612  67.000  1.00  0.00    -0.581 C  
ENDBRANCH  19  22
ENDBRANCH  15  19
BRANCH  16  24
HETATM   24  O   UNL     1     -11.428  12.763  64.876  1.00  0.00    -0.302 OA 
HETATM   25  C   UNL     1     -11.259  12.585  63.474  1.00  0.00    -0.462 C  
ENDBRANCH  16  24
ENDBRANCH  10  13
ENDBRANCH   8   9
ENDBRANCH   7   8
ENDBRANCH   2   3
TORSDOF 7
ENDMDL
MODEL      123
REMARK 921   NORMALIZED FREE ENERGY PREDICTED BY IDOCK:   -4.77 KCAL/MOL
REMARK 922        TOTAL FREE ENERGY PREDICTED BY IDOCK:   -7.60 KCAL/MOL
REMARK 923 INTER-LIGAND FREE ENERGY PREDICTED BY IDOCK:   -6.58 KCAL/MOL
REMARK 924 INTRA-LIGAND FREE ENERGY PREDICTED BY IDOCK:   -1.02 KCAL/MOL
REMARK 927      BINDING AFFINITY PREDICTED BY RF-SCORE:    0.00 PKD
ROOT
HETATM    1  C   UNL     1      -6.741   8.353  68.289  1.00  0.00    -0.065 C  
HETATM    2  C   UNL     1      -7.181   9.767  67.926  1.00  0.00    -0.084 C  
ENDROOT
BRANCH   2   3
HETATM    3  N   UNL     1      -7.495   9.907  66.498  1.00  0.00    -0.098 NA 
HETATM    4  C   UNL     1      -6.297  10.050  65.666  1.00  0.00    -0.094 C  
HETATM    5  C   UNL     1      -6.827   9.757  64.280  1.00  0.00    -0.120 C  
HETATM    6  C   UNL     1      -7.798   8.612  64.507  1.00  0.00    -0.132 C  
HETATM    7  C   UNL     1      -8.248   8.742  65.973  1.00  0.00    -0.118 C  
BRANCH   7   8
HETATM    8  C   UNL     1      -9.772   8.963  66.098  1.00  0.00    -0.268 C  
BRANCH   8   9
HETATM    9  N   UNL     1     -10.139  10.221  66.738  1.00  0.00    -0.208 N  
HETATM   10  C   UNL     1     -10.619  11.302  66.019  1.00  0.00    -0.258 C  
HETATM   11  H   UNL     1     -10.039  10.308  67.750  1.00  0.00     0.000 HD 
HETATM   12  O   UNL     1     -10.757  11.276  64.803  1.00  0.00    -0.310 OA 
BRANCH  10  13
HETATM   13  C   UNL     1     -10.924  12.535  66.805  1.00  0.00    -0.304 A  
HETATM   14  C   UNL     1     -10.514  13.770  66.256  1.00  0.00    -0.291 A  
HETATM   15  C   UNL     1     -10.870  14.977  66.869  1.00  0.00    -0.315 A  
HETATM   16  C   UNL     1     -11.692  12.540  67.985  1.00  0.00    -0.355 A  
HETATM   17  C   UNL     1     -11.633  14.984  68.030  1.00  0.00    -0.356 A  
HETATM   18  C   UNL     1     -12.049  13.768  68.572  1.00  0.00    -0.327 A  
BRANCH  15  19
HETATM   19  S   UNL     1     -10.255  16.511  66.204  1.00  0.00    -0.352 S  
HETATM   20  O   UNL     1     -10.626  17.549  67.144  1.00  0.00    -0.330 OA 
HETATM   21  O   UNL     1     -10.686  16.575  64.821  1.00  0.00    -0.719 OA 
BRANCH  19  22
HETATM   22  C   UNL     1      -8.483  16.328  66.237  1.00  0.00    -0.334 C  
HETATM   23  C   UNL     1      -7.807  17.616  66.673  1.00  0.00    -0.283 C  
ENDBRANCH  19  22
ENDBRANCH  15  19
BRANCH  16  24
HETATM   24  O   UNL     1     -12.235  11.469  68.642  1.00  0.00    -0.492 OA 
HETATM   25  C   UNL     1     -12.001  11.383  70.043  1.00  0.00    -0.363 C  
ENDBRANCH  16  24
ENDBRANCH  10  13
ENDBRANCH   8   9
ENDBRANCH   7   8
ENDBRANCH   2   3
TORSDOF 7
ENDMDL
MODEL      124
REMARK 921   NORMALIZED FREE ENERGY PREDICTED BY IDOCK:   -4.75 KCAL/MOL
REMARK 922        TOTAL FREE ENERGY PREDICTED BY IDOCK:   -7.57 KCAL/MOL
REMARK 923 INTER-LIGAND FREE ENERGY PREDICTED BY IDOCK:   -6.88 KCAL/MOL
REMARK 924 INTRA-LIGAND FREE ENERGY PREDICTED BY IDOCK:   -0.69 KCAL/MOL
REMARK 927      BINDING AFFINITY PREDICTED BY RF-SCORE:    0.00 PKD
ROOT
HETATM    1  C   UNL     1      -9.246  16.431  67.378  1.00  0.00    -0.213 C  
HETATM    2  C   UNL     1      -9.514  15.093  66.696  1.00  0.00    -0.263 C  
ENDROOT
BRANCH   2   3
HETATM    3  N   UNL     1     -10.904  14.964  66.243  1.00  0.00    -0.325 NA 
HETATM    4  C   UNL     1     -11.079  15.337  64.836  1.00  0.00    -0.424 C  
HETATM    5  C   UNL     1     -12.428  14.739  64.506  1.00  0.00    -0.272 C  
HETATM    6  C   UNL     1     -12.409  13.402  65.227  1.00  0.00    -0.513 C  
HETATM    7  C   UNL     1     -11.414  13.578  66.387  1.00  0.00    -0.331 C  
BRANCH   7   8
HETATM    8  C   UNL     1     -12.081  13.372  67.765  1.00  0.00    -0.259 C  
BRANCH   8   9
HETATM    9  N   UNL     1     -11.721  12.119  68.419  1.00  0.00    -0.318 N  
HETATM   10  C   UNL     1     -11.817  11.950  69.789  1.00  0.00    -0.340 C  
HETATM   11  H   UNL     1     -11.388  11.342  67.848  1.00  0.00     0.000 HD 
HETATM   12  O   UNL     1     -12.199  12.837  70.539  1.00  0.00    -0.368 OA 
BRANCH  10  13
HETATM   13  C   UNL     1     -11.382  10.622  70.322  1.00  0.00    -0.401 A  
HETATM   14  C   UNL     1     -10.087  10.179  69.975  1.00  0.00    -0.241 A  
HETATM   15  C   UNL     1      -9.560   9.008  70.533  1.00  0.00    -0.219 A  
HETATM   16  C   UNL     1     -12.138   9.862  71.233  1.00  0.00    -0.394 A  
HETATM   17  C   UNL     1     -10.302   8.259  71.437  1.00  0.00    -0.270 A  
HETATM   18  C   UNL     1     -11.579   8.697  71.791  1.00  0.00    -0.403 A  
BRANCH  15  19
HETATM   19  S   UNL     1      -7.963   8.427  70.001  1.00  0.00    -0.113 S  
HETATM   20  O   UNL     1      -7.823   8.813  68.611  1.00  0.00    -0.099 OA 
HETATM   21  O   UNL     1      -7.866   7.036  70.397  1.00  0.00    -0.103 OA 
BRANCH  19  22
HETATM   22  C   UNL     1      -6.804   9.374  70.968  1.00  0.00    -0.067 C  
HETATM   23  C   UNL     1      -6.450  10.679  70.276  1.00  0.00    -0.138 C  
ENDBRANCH  19  22
ENDBRANCH  15  19
BRANCH  16  24
HETATM   24  O   UNL     1     -13.377  10.141  71.743  1.00  0.00    -0.399 OA 
HETATM   25  C   UNL     1     -14.094   9.062  72.331  1.00  0.00    -0.404 C  
ENDBRANCH  16  24
ENDBRANCH  10  13
ENDBRANCH   8   9
ENDBRANCH   7   8
ENDBRANCH   2   3
TORSDOF 7
ENDMDL
MODEL      125
REMARK 921   NORMALIZED FREE ENERGY PREDICTED BY IDOCK:   -4.75 KCAL/MOL
REMARK 922        TOTAL FREE ENERGY PREDICTED BY IDOCK:   -7.57 KCAL/MOL
REMARK 923 INTER-LIGAND FREE ENERGY PREDICTED BY IDOCK:   -6.91 KCAL/MOL
REMARK 924 INTRA-LIGAND FREE ENERGY PREDICTED BY IDOCK:   -0.66 KCAL/MOL
REMARK 927      BINDING AFFINITY PREDICTED BY RF-SCORE:    0.00 PKD
ROOT
HETATM    1  C   UNL     1     -12.353  13.697  64.071  1.00  0.00    -0.382 C  
HETATM    2  C   UNL     1     -12.416  13.876  65.584  1.00  0.00    -0.505 C  
ENDROOT
BRANCH   2   3
HETATM    3  N   UNL     1     -11.211  14.516  66.124  1.00  0.00    -0.334 NA 
HETATM    4  C   UNL     1     -10.523  15.353  65.138  1.00  0.00    -0.411 C  
HETATM    5  C   UNL     1      -9.615  16.198  66.004  1.00  0.00    -0.381 C  
HETATM    6  C   UNL     1     -10.477  16.519  67.212  1.00  0.00    -0.304 C  
HETATM    7  C   UNL     1     -11.511  15.383  67.290  1.00  0.00    -0.165 C  
BRANCH   7   8
HETATM    8  C   UNL     1     -11.409  14.591  68.613  1.00  0.00    -0.276 C  
BRANCH   8   9
HETATM    9  N   UNL     1     -11.257  13.151  68.433  1.00  0.00    -0.254 N  
HETATM   10  C   UNL     1     -10.017  12.550  68.316  1.00  0.00    -0.229 C  
HETATM   11  H   UNL     1     -12.094  12.568  68.392  1.00  0.00     0.000 HD 
HETATM   12  O   UNL     1      -8.970  13.184  68.346  1.00  0.00    -0.187 OA 
BRANCH  10  13
HETATM   13  C   UNL     1     -10.017  11.071  68.104  1.00  0.00    -0.190 A  
HETATM   14  C   UNL     1     -10.382  10.260  69.201  1.00  0.00    -0.241 A  
HETATM   15  C   UNL     1     -10.527   8.876  69.049  1.00  0.00    -0.214 A  
HETATM   16  C   UNL     1      -9.794  10.461  66.855  1.00  0.00    -0.191 A  
HETATM   17  C   UNL     1     -10.313   8.273  67.816  1.00  0.00    -0.296 A  
HETATM   18  C   UNL     1      -9.961   9.069  66.726  1.00  0.00    -0.332 A  
BRANCH  15  19
HETATM   19  S   UNL     1     -10.894   7.873  70.474  1.00  0.00    -0.242 S  
HETATM   20  O   UNL     1     -12.043   8.475  71.120  1.00  0.00    -0.288 OA 
HETATM   21  O   UNL     1      -9.649   7.692  71.196  1.00  0.00    -0.159 OA 
BRANCH  19  22
HETATM   22  C   UNL     1     -11.388   6.302  69.794  1.00  0.00    -0.436 C  
HETATM   23  C   UNL     1     -10.339   5.237  70.058  1.00  0.00    -0.365 C  
ENDBRANCH  19  22
ENDBRANCH  15  19
BRANCH  16  24
HETATM   24  O   UNL     1      -9.493  11.063  65.663  1.00  0.00    -0.200 OA 
HETATM   25  C   UNL     1     -10.284  10.702  64.537  1.00  0.00    -0.329 C  
ENDBRANCH  16  24
ENDBRANCH  10  13
ENDBRANCH   8   9
ENDBRANCH   7   8
ENDBRANCH   2   3
TORSDOF 7
ENDMDL
MODEL      126
REMARK 921   NORMALIZED FREE ENERGY PREDICTED BY IDOCK:   -4.73 KCAL/MOL
REMARK 922        TOTAL FREE ENERGY PREDICTED BY IDOCK:   -7.54 KCAL/MOL
REMARK 923 INTER-LIGAND FREE ENERGY PREDICTED BY IDOCK:   -6.55 KCAL/MOL
REMARK 924 INTRA-LIGAND FREE ENERGY PREDICTED BY IDOCK:   -0.98 KCAL/MOL
REMARK 927      BINDING AFFINITY PREDICTED BY RF-SCORE:    0.00 PKD
ROOT
HETATM    1  C   UNL     1     -12.700  13.765  65.340  1.00  0.00    -0.513 C  
HETATM    2  C   UNL     1     -11.701  12.855  66.046  1.00  0.00    -0.404 C  
ENDROOT
BRANCH   2   3
HETATM    3  N   UNL     1     -11.288  13.384  67.352  1.00  0.00    -0.295 NA 
HETATM    4  C   UNL     1     -12.006  14.606  67.722  1.00  0.00    -0.268 C  
HETATM    5  C   UNL     1     -11.736  14.705  69.208  1.00  0.00    -0.348 C  
HETATM    6  C   UNL     1     -11.831  13.266  69.682  1.00  0.00    -0.391 C  
HETATM    7  C   UNL     1     -11.507  12.406  68.447  1.00  0.00    -0.310 C  
BRANCH   7   8
HETATM    8  C   UNL     1     -10.258  11.523  68.662  1.00  0.00    -0.208 C  
BRANCH   8   9
HETATM    9  N   UNL     1     -10.386  10.570  69.758  1.00  0.00    -0.397 N  
HETATM   10  C   UNL     1     -10.265   9.205  69.566  1.00  0.00    -0.203 C  
HETATM   11  H   UNL     1     -10.569  10.921  70.698  1.00  0.00     0.000 HD 
HETATM   12  O   UNL     1     -10.054   8.709  68.467  1.00  0.00    -0.180 OA 
BRANCH  10  13
HETATM   13  C   UNL     1     -10.451   8.349  70.777  1.00  0.00    -0.230 A  
HETATM   14  C   UNL     1      -9.527   7.299  70.975  1.00  0.00    -0.158 A  
HETATM   15  C   UNL     1      -9.559   6.532  72.145  1.00  0.00    -0.148 A  
HETATM   16  C   UNL     1     -11.410   8.606  71.775  1.00  0.00    -0.323 A  
HETATM   17  C   UNL     1     -10.501   6.787  73.134  1.00  0.00    -0.296 A  
HETATM   18  C   UNL     1     -11.410   7.829  72.949  1.00  0.00    -0.406 A  
BRANCH  15  19
HETATM   19  S   UNL     1      -8.443   5.155  72.319  1.00  0.00    -0.126 S  
HETATM   20  O   UNL     1      -8.270   4.938  73.742  1.00  0.00    -0.105 OA 
HETATM   21  O   UNL     1      -7.301   5.426  71.468  1.00  0.00    -0.079 OA 
BRANCH  19  22
HETATM   22  C   UNL     1      -9.338   3.771  71.643  1.00  0.00    -0.131 C  
HETATM   23  C   UNL     1      -9.268   3.762  70.126  1.00  0.00    -0.218 C  
ENDBRANCH  19  22
ENDBRANCH  15  19
BRANCH  16  24
HETATM   24  O   UNL     1     -12.348   9.601  71.808  1.00  0.00    -0.368 OA 
HETATM   25  C   UNL     1     -13.706   9.206  71.963  1.00  0.00    -0.448 C  
ENDBRANCH  16  24
ENDBRANCH  10  13
ENDBRANCH   8   9
ENDBRANCH   7   8
ENDBRANCH   2   3
TORSDOF 7
ENDMDL
MODEL      127
REMARK 921   NORMALIZED FREE ENERGY PREDICTED BY IDOCK:   -4.72 KCAL/MOL
REMARK 922        TOTAL FREE ENERGY PREDICTED BY IDOCK:   -7.53 KCAL/MOL
REMARK 923 INTER-LIGAND FREE ENERGY PREDICTED BY IDOCK:   -6.22 KCAL/MOL
REMARK 924 INTRA-LIGAND FREE ENERGY PREDICTED BY IDOCK:   -1.30 KCAL/MOL
REMARK 927      BINDING AFFINITY PREDICTED BY RF-SCORE:    0.00 PKD
ROOT
HETATM    1  C   UNL     1     -11.544  12.407  66.562  1.00  0.00    -0.447 C  
HETATM    2  C   UNL     1     -11.248  11.040  67.169  1.00  0.00    -0.217 C  
ENDROOT
BRANCH   2   3
HETATM    3  N   UNL     1     -10.945  11.117  68.603  1.00  0.00    -0.202 NA 
HETATM    4  C   UNL     1     -12.144  11.033  69.441  1.00  0.00    -0.318 C  
HETATM    5  C   UNL     1     -11.567  10.715  70.803  1.00  0.00    -0.388 C  
HETATM    6  C   UNL     1     -10.450   9.734  70.495  1.00  0.00    -0.366 C  
HETATM    7  C   UNL     1     -10.034  10.032  69.043  1.00  0.00    -0.196 C  
BRANCH   7   8
HETATM    8  C   UNL     1      -8.556  10.469  68.937  1.00  0.00    -0.153 C  
BRANCH   8   9
HETATM    9  N   UNL     1      -8.357  11.912  69.012  1.00  0.00    -0.362 N  
HETATM   10  C   UNL     1      -8.001  12.665  67.908  1.00  0.00    -0.156 C  
HETATM   11  H   UNL     1      -8.484  12.382  69.909  1.00  0.00     0.000 HD 
HETATM   12  O   UNL     1      -7.822  12.172  66.802  1.00  0.00    -0.109 OA 
BRANCH  10  13
HETATM   13  C   UNL     1      -7.800  14.128  68.142  1.00  0.00    -0.142 A  
HETATM   14  C   UNL     1      -8.678  15.015  67.482  1.00  0.00    -0.194 A  
HETATM   15  C   UNL     1      -8.635  16.389  67.745  1.00  0.00    -0.168 A  
HETATM   16  C   UNL     1      -6.875  14.650  69.066  1.00  0.00    -0.111 A  
HETATM   17  C   UNL     1      -7.727  16.907  68.661  1.00  0.00    -0.235 A  
HETATM   18  C   UNL     1      -6.863  16.034  69.323  1.00  0.00    -0.201 A  
BRANCH  15  19
HETATM   19  S   UNL     1      -9.690  17.490  66.825  1.00  0.00    -0.308 S  
HETATM   20  O   UNL     1     -10.846  17.752  67.659  1.00  0.00    -0.363 OA 
HETATM   21  O   UNL     1      -9.846  16.918  65.502  1.00  0.00    -0.559 OA 
BRANCH  19  22
HETATM   22  C   UNL     1      -8.744  18.994  66.684  1.00  0.00    -0.310 C  
HETATM   23  C   UNL     1      -9.537  20.188  67.186  1.00  0.00    -0.554 C  
ENDBRANCH  19  22
ENDBRANCH  15  19
BRANCH  16  24
HETATM   24  O   UNL     1      -5.985  13.966  69.848  1.00  0.00    -0.118 OA 
HETATM   25  C   UNL     1      -6.115  14.113  71.257  1.00  0.00    -0.048 C  
ENDBRANCH  16  24
ENDBRANCH  10  13
ENDBRANCH   8   9
ENDBRANCH   7   8
ENDBRANCH   2   3
TORSDOF 7
ENDMDL
MODEL      128
REMARK 921   NORMALIZED FREE ENERGY PREDICTED BY IDOCK:   -4.72 KCAL/MOL
REMARK 922        TOTAL FREE ENERGY PREDICTED BY IDOCK:   -7.51 KCAL/MOL
REMARK 923 INTER-LIGAND FREE ENERGY PREDICTED BY IDOCK:   -6.59 KCAL/MOL
REMARK 924 INTRA-LIGAND FREE ENERGY PREDICTED BY IDOCK:   -0.92 KCAL/MOL
REMARK 927      BINDING AFFINITY PREDICTED BY RF-SCORE:    0.00 PKD
ROOT
HETATM    1  C   UNL     1     -13.286  15.236  71.150  1.00  0.00    -0.568 C  
HETATM    2  C   UNL     1     -12.580  13.978  70.658  1.00  0.00    -0.344 C  
ENDROOT
BRANCH   2   3
HETATM    3  N   UNL     1     -12.211  14.060  69.239  1.00  0.00    -0.330 NA 
HETATM    4  C   UNL     1     -11.644  15.362  68.875  1.00  0.00    -0.354 C  
HETATM    5  C   UNL     1     -10.981  15.068  67.548  1.00  0.00    -0.307 C  
HETATM    6  C   UNL     1     -10.367  13.694  67.755  1.00  0.00    -0.241 C  
HETATM    7  C   UNL     1     -11.210  13.033  68.860  1.00  0.00    -0.278 C  
BRANCH   7   8
HETATM    8  C   UNL     1     -11.899  11.739  68.373  1.00  0.00    -0.282 C  
BRANCH   8   9
HETATM    9  N   UNL     1     -11.841  10.639  69.329  1.00  0.00    -0.469 N  
HETATM   10  C   UNL     1     -10.745   9.799  69.421  1.00  0.00    -0.228 C  
HETATM   11  H   UNL     1     -12.635  10.484  69.951  1.00  0.00     0.000 HD 
HETATM   12  O   UNL     1      -9.761   9.917  68.704  1.00  0.00    -0.150 OA 
BRANCH  10  13
HETATM   13  C   UNL     1     -10.841   8.696  70.425  1.00  0.00    -0.250 A  
HETATM   14  C   UNL     1      -9.985   7.587  70.250  1.00  0.00    -0.192 A  
HETATM   15  C   UNL     1      -9.927   6.572  71.213  1.00  0.00    -0.181 A  
HETATM   16  C   UNL     1     -11.641   8.760  71.581  1.00  0.00    -0.320 A  
HETATM   17  C   UNL     1     -10.710   6.636  72.358  1.00  0.00    -0.252 A  
HETATM   18  C   UNL     1     -11.551   7.734  72.541  1.00  0.00    -0.422 A  
BRANCH  15  19
HETATM   19  S   UNL     1      -8.908   5.141  70.915  1.00  0.00    -0.137 S  
HETATM   20  O   UNL     1      -7.673   5.353  71.642  1.00  0.00    -0.100 OA 
HETATM   21  O   UNL     1      -8.897   4.922  69.482  1.00  0.00    -0.088 OA 
BRANCH  19  22
HETATM   22  C   UNL     1      -9.793   3.801  71.687  1.00  0.00    -0.170 C  
HETATM   23  C   UNL     1      -9.439   2.470  71.045  1.00  0.00    -0.222 C  
ENDBRANCH  19  22
ENDBRANCH  15  19
BRANCH  16  24
HETATM   24  O   UNL     1     -12.486   9.765  71.969  1.00  0.00    -0.367 OA 
HETATM   25  C   UNL     1     -13.875   9.460  72.015  1.00  0.00    -0.340 C  
ENDBRANCH  16  24
ENDBRANCH  10  13
ENDBRANCH   8   9
ENDBRANCH   7   8
ENDBRANCH   2   3
TORSDOF 7
ENDMDL
MODEL      129
REMARK 921   NORMALIZED FREE ENERGY PREDICTED BY IDOCK:   -4.71 KCAL/MOL
REMARK 922        TOTAL FREE ENERGY PREDICTED BY IDOCK:   -7.51 KCAL/MOL
REMARK 923 INTER-LIGAND FREE ENERGY PREDICTED BY IDOCK:   -6.66 KCAL/MOL
REMARK 924 INTRA-LIGAND FREE ENERGY PREDICTED BY IDOCK:   -0.84 KCAL/MOL
REMARK 927      BINDING AFFINITY PREDICTED BY RF-SCORE:    0.00 PKD
ROOT
HETATM    1  C   UNL     1     -11.911  13.128  63.544  1.00  0.00    -0.580 C  
HETATM    2  C   UNL     1     -11.384  13.370  64.954  1.00  0.00    -0.328 C  
ENDROOT
BRANCH   2   3
HETATM    3  N   UNL     1     -10.837  12.153  65.565  1.00  0.00    -0.274 NA 
HETATM    4  C   UNL     1     -10.848  11.006  64.652  1.00  0.00    -0.178 C  
HETATM    5  C   UNL     1      -9.893  10.045  65.325  1.00  0.00    -0.388 C  
HETATM    6  C   UNL     1      -8.784  10.949  65.837  1.00  0.00    -0.190 C  
HETATM    7  C   UNL     1      -9.434  12.333  66.013  1.00  0.00    -0.189 C  
BRANCH   7   8
HETATM    8  C   UNL     1      -9.377  12.822  67.477  1.00  0.00    -0.189 C  
BRANCH   8   9
HETATM    9  N   UNL     1      -8.569  14.021  67.672  1.00  0.00    -0.175 N  
HETATM   10  C   UNL     1      -9.030  15.111  68.389  1.00  0.00    -0.183 C  
HETATM   11  H   UNL     1      -7.633  14.056  67.268  1.00  0.00     0.000 HD 
HETATM   12  O   UNL     1     -10.143  15.146  68.895  1.00  0.00    -0.221 OA 
BRANCH  10  13
HETATM   13  C   UNL     1      -8.104  16.281  68.479  1.00  0.00    -0.193 A  
HETATM   14  C   UNL     1      -8.445  17.434  67.739  1.00  0.00    -0.223 A  
HETATM   15  C   UNL     1      -7.698  18.611  67.866  1.00  0.00    -0.256 A  
HETATM   16  C   UNL     1      -6.994  16.333  69.342  1.00  0.00    -0.212 A  
HETATM   17  C   UNL     1      -6.606  18.667  68.723  1.00  0.00    -0.281 A  
HETATM   18  C   UNL     1      -6.269  17.534  69.464  1.00  0.00    -0.246 A  
BRANCH  15  19
HETATM   19  S   UNL     1      -8.098  20.016  66.847  1.00  0.00    -0.328 S  
HETATM   20  O   UNL     1      -7.840  19.622  65.477  1.00  0.00    -0.398 OA 
HETATM   21  O   UNL     1      -7.426  21.163  67.427  1.00  0.00    -0.406 OA 
BRANCH  19  22
HETATM   22  C   UNL     1      -9.855  20.225  67.053  1.00  0.00    -0.467 C  
HETATM   23  C   UNL     1     -10.607  19.795  65.805  1.00  0.00    -0.522 C  
ENDBRANCH  19  22
ENDBRANCH  15  19
BRANCH  16  24
HETATM   24  O   UNL     1      -6.532  15.358  70.184  1.00  0.00    -0.143 OA 
HETATM   25  C   UNL     1      -5.478  14.533  69.702  1.00  0.00    -0.093 C  
ENDBRANCH  16  24
ENDBRANCH  10  13
ENDBRANCH   8   9
ENDBRANCH   7   8
ENDBRANCH   2   3
TORSDOF 7
ENDMDL
MODEL      130
REMARK 921   NORMALIZED FREE ENERGY PREDICTED BY IDOCK:   -4.69 KCAL/MOL
REMARK 922        TOTAL FREE ENERGY PREDICTED BY IDOCK:   -7.48 KCAL/MOL
REMARK 923 INTER-LIGAND FREE ENERGY PREDICTED BY IDOCK:   -6.42 KCAL/MOL
REMARK 924 INTRA-LIGAND FREE ENERGY PREDICTED BY IDOCK:   -1.06 KCAL/MOL
REMARK 927      BINDING AFFINITY PREDICTED BY RF-SCORE:    0.00 PKD
ROOT
HETATM    1  C   UNL     1      -8.214  18.898  66.593  1.00  0.00    -0.295 C  
HETATM    2  C   UNL     1      -9.653  18.496  66.896  1.00  0.00    -0.307 C  
ENDROOT
BRANCH   2   3
HETATM    3  N   UNL     1      -9.737  17.250  67.667  1.00  0.00    -0.266 NA 
HETATM    4  C   UNL     1     -10.465  17.411  68.928  1.00  0.00    -0.312 C  
HETATM    5  C   UNL     1     -10.775  15.981  69.311  1.00  0.00    -0.275 C  
HETATM    6  C   UNL     1     -11.132  15.330  67.986  1.00  0.00    -0.312 C  
HETATM    7  C   UNL     1     -10.417  16.169  66.912  1.00  0.00    -0.300 C  
BRANCH   7   8
HETATM    8  C   UNL     1      -9.401  15.334  66.101  1.00  0.00    -0.325 C  
BRANCH   8   9
HETATM    9  N   UNL     1      -9.639  13.896  66.150  1.00  0.00    -0.434 N  
HETATM   10  C   UNL     1      -8.936  13.061  67.001  1.00  0.00    -0.225 C  
HETATM   11  H   UNL     1     -10.348  13.492  65.537  1.00  0.00     0.000 HD 
HETATM   12  O   UNL     1      -8.067  13.470  67.758  1.00  0.00    -0.147 OA 
BRANCH  10  13
HETATM   13  C   UNL     1      -9.266  11.606  66.918  1.00  0.00    -0.187 A  
HETATM   14  C   UNL     1      -9.395  10.902  68.136  1.00  0.00    -0.165 A  
HETATM   15  C   UNL     1      -9.821   9.568  68.148  1.00  0.00    -0.155 A  
HETATM   16  C   UNL     1      -9.568  10.941  65.715  1.00  0.00    -0.216 A  
HETATM   17  C   UNL     1     -10.126   8.912  66.962  1.00  0.00    -0.331 A  
HETATM   18  C   UNL     1     -10.010   9.605  65.756  1.00  0.00    -0.342 A  
BRANCH  15  19
HETATM   19  S   UNL     1      -9.880   8.682  69.691  1.00  0.00    -0.191 S  
HETATM   20  O   UNL     1      -8.506   8.476  70.104  1.00  0.00    -0.118 OA 
HETATM   21  O   UNL     1     -10.772   7.556  69.499  1.00  0.00    -0.237 OA 
BRANCH  19  22
HETATM   22  C   UNL     1     -10.645   9.823  70.827  1.00  0.00    -0.301 C  
HETATM   23  C   UNL     1     -12.109  10.037  70.485  1.00  0.00    -0.338 C  
ENDBRANCH  19  22
ENDBRANCH  15  19
BRANCH  16  24
HETATM   24  O   UNL     1      -9.566  11.450  64.445  1.00  0.00    -0.230 OA 
HETATM   25  C   UNL     1     -10.812  11.486  63.759  1.00  0.00    -0.416 C  
ENDBRANCH  16  24
ENDBRANCH  10  13
ENDBRANCH   8   9
ENDBRANCH   7   8
ENDBRANCH   2   3
TORSDOF 7
ENDMDL
MODEL      131
REMARK 921   NORMALIZED FREE ENERGY PREDICTED BY IDOCK:   -4.66 KCAL/MOL
REMARK 922        TOTAL FREE ENERGY PREDICTED BY IDOCK:   -7.44 KCAL/MOL
REMARK 923 INTER-LIGAND FREE ENERGY PREDICTED BY IDOCK:   -6.37 KCAL/MOL
REMARK 924 INTRA-LIGAND FREE ENERGY PREDICTED BY IDOCK:   -1.07 KCAL/MOL
REMARK 927      BINDING AFFINITY PREDICTED BY RF-SCORE:    0.00 PKD
ROOT
HETATM    1  C   UNL     1     -12.526   8.606  71.838  1.00  0.00    -0.412 C  
HETATM    2  C   UNL     1     -12.387  10.124  71.779  1.00  0.00    -0.310 C  
ENDROOT
BRANCH   2   3
HETATM    3  N   UNL     1     -11.464  10.562  70.726  1.00  0.00    -0.331 NA 
HETATM    4  C   UNL     1     -10.610   9.478  70.233  1.00  0.00    -0.266 C  
HETATM    5  C   UNL     1     -10.084  10.043  68.932  1.00  0.00    -0.200 C  
HETATM    6  C   UNL     1     -11.289  10.760  68.346  1.00  0.00    -0.367 C  
HETATM    7  C   UNL     1     -12.178  11.117  69.550  1.00  0.00    -0.277 C  
BRANCH   7   8
HETATM    8  C   UNL     1     -12.382  12.642  69.693  1.00  0.00     0.015 C  
BRANCH   8   9
HETATM    9  N   UNL     1     -11.519  13.441  68.829  1.00  0.00    -0.282 N  
HETATM   10  C   UNL     1     -10.869  14.575  69.284  1.00  0.00    -0.252 C  
HETATM   11  H   UNL     1     -11.390  13.153  67.859  1.00  0.00     0.000 HD 
HETATM   12  O   UNL     1     -10.982  14.986  70.431  1.00  0.00    -0.246 OA 
BRANCH  10  13
HETATM   13  C   UNL     1     -10.044  15.310  68.278  1.00  0.00    -0.225 A  
HETATM   14  C   UNL     1      -9.485  16.544  68.677  1.00  0.00    -0.243 A  
HETATM   15  C   UNL     1      -8.601  17.232  67.838  1.00  0.00    -0.223 A  
HETATM   16  C   UNL     1      -9.701  14.787  67.017  1.00  0.00    -0.237 A  
HETATM   17  C   UNL     1      -8.257  16.715  66.595  1.00  0.00    -0.301 A  
HETATM   18  C   UNL     1      -8.798  15.492  66.199  1.00  0.00    -0.273 A  
BRANCH  15  19
HETATM   19  S   UNL     1      -7.991  18.831  68.332  1.00  0.00    -0.344 S  
HETATM   20  O   UNL     1      -7.700  19.559  67.114  1.00  0.00    -0.246 OA 
HETATM   21  O   UNL     1      -6.957  18.601  69.323  1.00  0.00    -0.272 OA 
BRANCH  19  22
HETATM   22  C   UNL     1      -9.381  19.606  69.134  1.00  0.00    -0.153 C  
HETATM   23  C   UNL     1     -10.319  20.234  68.118  1.00  0.00    -0.357 C  
ENDBRANCH  19  22
ENDBRANCH  15  19
BRANCH  16  24
HETATM   24  O   UNL     1     -10.080  13.592  66.467  1.00  0.00    -0.272 OA 
HETATM   25  C   UNL     1     -11.040  13.638  65.417  1.00  0.00    -0.298 C  
ENDBRANCH  16  24
ENDBRANCH  10  13
ENDBRANCH   8   9
ENDBRANCH   7   8
ENDBRANCH   2   3
TORSDOF 7
ENDMDL
MODEL      132
REMARK 921   NORMALIZED FREE ENERGY PREDICTED BY IDOCK:   -4.65 KCAL/MOL
REMARK 922        TOTAL FREE ENERGY PREDICTED BY IDOCK:   -7.42 KCAL/MOL
REMARK 923 INTER-LIGAND FREE ENERGY PREDICTED BY IDOCK:   -6.24 KCAL/MOL
REMARK 924 INTRA-LIGAND FREE ENERGY PREDICTED BY IDOCK:   -1.18 KCAL/MOL
REMARK 927      BINDING AFFINITY PREDICTED BY RF-SCORE:    0.00 PKD
ROOT
HETATM    1  C   UNL     1      -8.818   7.005  66.093  1.00  0.00    -0.165 C  
HETATM    2  C   UNL     1      -9.019   8.448  65.642  1.00  0.00    -0.134 C  
ENDROOT
BRANCH   2   3
HETATM    3  N   UNL     1      -8.574   9.417  66.650  1.00  0.00    -0.129 NA 
HETATM    4  C   UNL     1      -7.308   9.038  67.282  1.00  0.00    -0.084 C  
HETATM    5  C   UNL     1      -6.866  10.332  67.928  1.00  0.00    -0.074 C  
HETATM    6  C   UNL     1      -7.233  11.386  66.897  1.00  0.00    -0.144 C  
HETATM    7  C   UNL     1      -8.381  10.772  66.077  1.00  0.00    -0.163 C  
BRANCH   7   8
HETATM    8  C   UNL     1      -9.678  11.607  66.174  1.00  0.00    -0.229 C  
BRANCH   8   9
HETATM    9  N   UNL     1     -10.526  11.257  67.307  1.00  0.00    -0.204 N  
HETATM   10  C   UNL     1     -10.452  11.924  68.517  1.00  0.00    -0.224 C  
HETATM   11  H   UNL     1     -11.198  10.495  67.204  1.00  0.00     0.000 HD 
HETATM   12  O   UNL     1      -9.666  12.840  68.718  1.00  0.00    -0.087 OA 
BRANCH  10  13
HETATM   13  C   UNL     1     -11.361  11.434  69.598  1.00  0.00    -0.347 A  
HETATM   14  C   UNL     1     -11.205  10.094  70.016  1.00  0.00    -0.361 A  
HETATM   15  C   UNL     1     -11.932   9.597  71.105  1.00  0.00    -0.367 A  
HETATM   16  C   UNL     1     -12.265  12.260  70.291  1.00  0.00    -0.262 A  
HETATM   17  C   UNL     1     -12.820  10.413  71.794  1.00  0.00    -0.561 A  
HETATM   18  C   UNL     1     -12.972  11.740  71.392  1.00  0.00    -0.408 A  
BRANCH  15  19
HETATM   19  S   UNL     1     -11.783   7.878  71.544  1.00  0.00    -0.294 S  
HETATM   20  O   UNL     1     -13.009   7.233  71.119  1.00  0.00    -0.346 OA 
HETATM   21  O   UNL     1     -11.364   7.831  72.932  1.00  0.00    -0.387 OA 
BRANCH  19  22
HETATM   22  C   UNL     1     -10.448   7.276  70.529  1.00  0.00    -0.217 C  
HETATM   23  C   UNL     1     -10.966   6.378  69.419  1.00  0.00    -0.421 C  
ENDBRANCH  19  22
ENDBRANCH  15  19
BRANCH  16  24
HETATM   24  O   UNL     1     -12.520  13.590  70.088  1.00  0.00    -0.290 OA 
HETATM   25  C   UNL     1     -12.914  14.354  71.222  1.00  0.00    -0.344 C  
ENDBRANCH  16  24
ENDBRANCH  10  13
ENDBRANCH   8   9
ENDBRANCH   7   8
ENDBRANCH   2   3
TORSDOF 7
ENDMDL
MODEL      133
REMARK 921   NORMALIZED FREE ENERGY PREDICTED BY IDOCK:   -4.65 KCAL/MOL
REMARK 922        TOTAL FREE ENERGY PREDICTED BY IDOCK:   -7.42 KCAL/MOL
REMARK 923 INTER-LIGAND FREE ENERGY PREDICTED BY IDOCK:   -6.43 KCAL/MOL
REMARK 924 INTRA-LIGAND FREE ENERGY PREDICTED BY IDOCK:   -0.99 KCAL/MOL
REMARK 927      BINDING AFFINITY PREDICTED BY RF-SCORE:    0.00 PKD
ROOT
HETATM    1  C   UNL     1      -7.632   7.474  65.165  1.00  0.00    -0.096 C  
HETATM    2  C   UNL     1      -7.852   8.705  66.039  1.00  0.00    -0.102 C  
ENDROOT
BRANCH   2   3
HETATM    3  N   UNL     1      -8.252   9.882  65.259  1.00  0.00    -0.138 NA 
HETATM    4  C   UNL     1      -8.813   9.532  63.951  1.00  0.00    -0.210 C  
HETATM    5  C   UNL     1      -9.510  10.811  63.543  1.00  0.00    -0.331 C  
HETATM    6  C   UNL     1     -10.133  11.304  64.838  1.00  0.00    -0.333 C  
HETATM    7  C   UNL     1      -9.273  10.698  65.961  1.00  0.00    -0.182 C  
BRANCH   7   8
HETATM    8  C   UNL     1      -8.609  11.785  66.837  1.00  0.00    -0.177 C  
BRANCH   8   9
HETATM    9  N   UNL     1      -9.160  13.121  66.646  1.00  0.00    -0.374 N  
HETATM   10  C   UNL     1      -8.453  14.264  66.974  1.00  0.00    -0.166 C  
HETATM   11  H   UNL     1     -10.099  13.217  66.257  1.00  0.00     0.000 HD 
HETATM   12  O   UNL     1      -7.327  14.229  67.453  1.00  0.00    -0.181 OA 
BRANCH  10  13
HETATM   13  C   UNL     1      -9.158  15.563  66.753  1.00  0.00    -0.282 A  
HETATM   14  C   UNL     1      -8.706  16.677  67.494  1.00  0.00    -0.198 A  
HETATM   15  C   UNL     1      -9.231  17.953  67.255  1.00  0.00    -0.254 A  
HETATM   16  C   UNL     1     -10.150  15.757  65.774  1.00  0.00    -0.371 A  
HETATM   17  C   UNL     1     -10.206  18.148  66.285  1.00  0.00    -0.401 A  
HETATM   18  C   UNL     1     -10.649  17.052  65.543  1.00  0.00    -0.184 A  
BRANCH  15  19
HETATM   19  S   UNL     1      -8.709  19.319  68.273  1.00  0.00    -0.346 S  
HETATM   20  O   UNL     1      -7.572  18.853  69.041  1.00  0.00    -0.314 OA 
HETATM   21  O   UNL     1      -9.893  19.828  68.936  1.00  0.00    -0.410 OA 
BRANCH  19  22
HETATM   22  C   UNL     1      -8.140  20.544  67.111  1.00  0.00    -0.302 C  
HETATM   23  C   UNL     1      -6.672  20.865  67.329  1.00  0.00    -0.414 C  
ENDBRANCH  19  22
ENDBRANCH  15  19
BRANCH  16  24
HETATM   24  O   UNL     1     -10.679  14.833  64.914  1.00  0.00    -0.401 OA 
HETATM   25  C   UNL     1     -11.915  15.161  64.291  1.00  0.00    -0.262 C  
ENDBRANCH  16  24
ENDBRANCH  10  13
ENDBRANCH   8   9
ENDBRANCH   7   8
ENDBRANCH   2   3
TORSDOF 7
ENDMDL
MODEL      134
REMARK 921   NORMALIZED FREE ENERGY PREDICTED BY IDOCK:   -4.65 KCAL/MOL
REMARK 922        TOTAL FREE ENERGY PREDICTED BY IDOCK:   -7.42 KCAL/MOL
REMARK 923 INTER-LIGAND FREE ENERGY PREDICTED BY IDOCK:   -6.45 KCAL/MOL
REMARK 924 INTRA-LIGAND FREE ENERGY PREDICTED BY IDOCK:   -0.97 KCAL/MOL
REMARK 927      BINDING AFFINITY PREDICTED BY RF-SCORE:    0.00 PKD
ROOT
HETATM    1  C   UNL     1     -10.421  18.203  66.135  1.00  0.00    -0.377 C  
HETATM    2  C   UNL     1      -9.833  16.813  66.355  1.00  0.00    -0.297 C  
ENDROOT
BRANCH   2   3
HETATM    3  N   UNL     1     -10.782  15.744  66.024  1.00  0.00    -0.323 NA 
HETATM    4  C   UNL     1     -11.358  15.891  64.685  1.00  0.00    -0.322 C  
HETATM    5  C   UNL     1     -11.935  14.517  64.425  1.00  0.00    -0.467 C  
HETATM    6  C   UNL     1     -10.891  13.579  65.005  1.00  0.00    -0.348 C  
HETATM    7  C   UNL     1     -10.154  14.401  66.078  1.00  0.00    -0.322 C  
BRANCH   7   8
HETATM    8  C   UNL     1     -10.292  13.779  67.486  1.00  0.00    -0.241 C  
BRANCH   8   9
HETATM    9  N   UNL     1     -10.432  12.327  67.484  1.00  0.00    -0.211 N  
HETATM   10  C   UNL     1      -9.444  11.491  67.973  1.00  0.00    -0.181 C  
HETATM   11  H   UNL     1     -11.287  11.915  67.109  1.00  0.00     0.000 HD 
HETATM   12  O   UNL     1      -8.389  11.912  68.428  1.00  0.00    -0.159 OA 
BRANCH  10  13
HETATM   13  C   UNL     1      -9.714  10.024  67.876  1.00  0.00    -0.168 A  
HETATM   14  C   UNL     1      -9.753   9.293  69.083  1.00  0.00    -0.164 A  
HETATM   15  C   UNL     1     -10.121   7.942  69.088  1.00  0.00    -0.197 A  
HETATM   16  C   UNL     1     -10.044   9.368  66.675  1.00  0.00    -0.262 A  
HETATM   17  C   UNL     1     -10.453   7.295  67.905  1.00  0.00    -0.267 A  
HETATM   18  C   UNL     1     -10.425   8.014  66.710  1.00  0.00    -0.319 A  
BRANCH  15  19
HETATM   19  S   UNL     1     -10.067   7.026  70.615  1.00  0.00    -0.190 S  
HETATM   20  O   UNL     1      -8.762   6.400  70.677  1.00  0.00    -0.141 OA 
HETATM   21  O   UNL     1     -11.276   6.228  70.671  1.00  0.00    -0.300 OA 
BRANCH  19  22
HETATM   22  C   UNL     1     -10.154   8.275  71.883  1.00  0.00    -0.245 C  
HETATM   23  C   UNL     1     -11.065   7.841  73.018  1.00  0.00    -0.419 C  
ENDBRANCH  19  22
ENDBRANCH  15  19
BRANCH  16  24
HETATM   24  O   UNL     1     -10.124   9.901  65.417  1.00  0.00    -0.313 OA 
HETATM   25  C   UNL     1      -8.911  10.010  64.681  1.00  0.00    -0.214 C  
ENDBRANCH  16  24
ENDBRANCH  10  13
ENDBRANCH   8   9
ENDBRANCH   7   8
ENDBRANCH   2   3
TORSDOF 7
ENDMDL
MODEL      135
REMARK 921   NORMALIZED FREE ENERGY PREDICTED BY IDOCK:   -4.65 KCAL/MOL
REMARK 922        TOTAL FREE ENERGY PREDICTED BY IDOCK:   -7.42 KCAL/MOL
REMARK 923 INTER-LIGAND FREE ENERGY PREDICTED BY IDOCK:   -6.42 KCAL/MOL
REMARK 924 INTRA-LIGAND FREE ENERGY PREDICTED BY IDOCK:   -0.99 KCAL/MOL
REMARK 927      BINDING AFFINITY PREDICTED BY RF-SCORE:    0.00 PKD
ROOT
HETATM    1  C   UNL     1      -8.408   4.881  68.952  1.00  0.00    -0.082 C  
HETATM    2  C   UNL     1      -8.068   5.469  67.587  1.00  0.00    -0.101 C  
ENDROOT
BRANCH   2   3
HETATM    3  N   UNL     1      -8.212   6.930  67.554  1.00  0.00    -0.115 NA 
HETATM    4  C   UNL     1      -6.960   7.616  67.223  1.00  0.00    -0.084 C  
HETATM    5  C   UNL     1      -7.437   9.000  66.845  1.00  0.00    -0.090 C  
HETATM    6  C   UNL     1      -8.710   8.734  66.060  1.00  0.00    -0.193 C  
HETATM    7  C   UNL     1      -9.221   7.371  66.560  1.00  0.00    -0.165 C  
BRANCH   7   8
HETATM    8  C   UNL     1     -10.623   7.474  67.200  1.00  0.00    -0.345 C  
BRANCH   8   9
HETATM    9  N   UNL     1     -10.975   8.816  67.650  1.00  0.00    -0.473 N  
HETATM   10  C   UNL     1     -10.661   9.275  68.916  1.00  0.00    -0.199 C  
HETATM   11  H   UNL     1     -11.469   9.437  67.009  1.00  0.00     0.000 HD 
HETATM   12  O   UNL     1     -10.078   8.585  69.742  1.00  0.00    -0.188 OA 
BRANCH  10  13
HETATM   13  C   UNL     1     -11.113  10.660  69.248  1.00  0.00    -0.306 A  
HETATM   14  C   UNL     1     -10.984  11.641  68.240  1.00  0.00    -0.273 A  
HETATM   15  C   UNL     1     -11.497  12.930  68.429  1.00  0.00    -0.312 A  
HETATM   16  C   UNL     1     -11.760  11.003  70.450  1.00  0.00    -0.343 A  
HETATM   17  C   UNL     1     -12.142  13.269  69.611  1.00  0.00    -0.331 A  
HETATM   18  C   UNL     1     -12.281  12.302  70.607  1.00  0.00    -0.378 A  
BRANCH  15  19
HETATM   19  S   UNL     1     -11.233  14.168  67.177  1.00  0.00    -0.331 S  
HETATM   20  O   UNL     1     -12.398  14.143  66.315  1.00  0.00    -0.456 OA 
HETATM   21  O   UNL     1      -9.906  13.946  66.636  1.00  0.00    -0.267 OA 
BRANCH  19  22
HETATM   22  C   UNL     1     -11.229  15.709  68.073  1.00  0.00    -0.339 C  
HETATM   23  C   UNL     1     -10.148  16.641  67.553  1.00  0.00    -0.273 C  
ENDBRANCH  19  22
ENDBRANCH  15  19
BRANCH  16  24
HETATM   24  O   UNL     1     -12.039  10.196  71.519  1.00  0.00    -0.377 OA 
HETATM   25  C   UNL     1     -13.371   9.706  71.631  1.00  0.00    -0.402 C  
ENDBRANCH  16  24
ENDBRANCH  10  13
ENDBRANCH   8   9
ENDBRANCH   7   8
ENDBRANCH   2   3
TORSDOF 7
ENDMDL
MODEL      136
REMARK 921   NORMALIZED FREE ENERGY PREDICTED BY IDOCK:   -4.64 KCAL/MOL
REMARK 922        TOTAL FREE ENERGY PREDICTED BY IDOCK:   -7.40 KCAL/MOL
REMARK 923 INTER-LIGAND FREE ENERGY PREDICTED BY IDOCK:   -6.41 KCAL/MOL
REMARK 924 INTRA-LIGAND FREE ENERGY PREDICTED BY IDOCK:   -0.99 KCAL/MOL
REMARK 927      BINDING AFFINITY PREDICTED BY RF-SCORE:    0.00 PKD
ROOT
HETATM    1  C   UNL     1     -12.162  12.099  63.516  1.00  0.00    -0.670 C  
HETATM    2  C   UNL     1     -12.587  12.718  64.843  1.00  0.00    -0.470 C  
ENDROOT
BRANCH   2   3
HETATM    3  N   UNL     1     -11.465  13.338  65.558  1.00  0.00    -0.306 NA 
HETATM    4  C   UNL     1     -10.574  14.091  64.671  1.00  0.00    -0.395 C  
HETATM    5  C   UNL     1      -9.791  14.945  65.644  1.00  0.00    -0.372 C  
HETATM    6  C   UNL     1     -10.834  15.367  66.664  1.00  0.00    -0.302 C  
HETATM    7  C   UNL     1     -11.922  14.279  66.610  1.00  0.00    -0.430 C  
BRANCH   7   8
HETATM    8  C   UNL     1     -12.092  13.557  67.965  1.00  0.00    -0.262 C  
BRANCH   8   9
HETATM    9  N   UNL     1     -11.355  12.302  68.067  1.00  0.00    -0.270 N  
HETATM   10  C   UNL     1     -11.828  11.227  68.797  1.00  0.00    -0.329 C  
HETATM   11  H   UNL     1     -10.460  12.215  67.584  1.00  0.00     0.000 HD 
HETATM   12  O   UNL     1     -12.887  11.259  69.410  1.00  0.00    -0.083 OA 
BRANCH  10  13
HETATM   13  C   UNL     1     -10.950  10.018  68.838  1.00  0.00    -0.244 A  
HETATM   14  C   UNL     1     -10.346   9.617  67.626  1.00  0.00    -0.290 A  
HETATM   15  C   UNL     1      -9.415   8.572  67.604  1.00  0.00    -0.145 A  
HETATM   16  C   UNL     1     -10.602   9.345  70.024  1.00  0.00    -0.235 A  
HETATM   17  C   UNL     1      -9.066   7.910  68.775  1.00  0.00    -0.140 A  
HETATM   18  C   UNL     1      -9.652   8.308  69.977  1.00  0.00    -0.168 A  
BRANCH  15  19
HETATM   19  S   UNL     1      -8.746   8.028  66.046  1.00  0.00    -0.158 S  
HETATM   20  O   UNL     1      -9.223   8.958  65.042  1.00  0.00    -0.130 OA 
HETATM   21  O   UNL     1      -9.029   6.610  65.936  1.00  0.00    -0.147 OA 
BRANCH  19  22
HETATM   22  C   UNL     1      -6.986   8.242  66.221  1.00  0.00    -0.066 C  
HETATM   23  C   UNL     1      -6.624   9.711  66.362  1.00  0.00    -0.071 C  
ENDBRANCH  19  22
ENDBRANCH  15  19
BRANCH  16  24
HETATM   24  O   UNL     1     -11.021   9.611  71.300  1.00  0.00    -0.349 OA 
HETATM   25  C   UNL     1     -11.445   8.504  72.087  1.00  0.00    -0.376 C  
ENDBRANCH  16  24
ENDBRANCH  10  13
ENDBRANCH   8   9
ENDBRANCH   7   8
ENDBRANCH   2   3
TORSDOF 7
ENDMDL
MODEL      137
REMARK 921   NORMALIZED FREE ENERGY PREDICTED BY IDOCK:   -4.61 KCAL/MOL
REMARK 922        TOTAL FREE ENERGY PREDICTED BY IDOCK:   -7.36 KCAL/MOL
REMARK 923 INTER-LIGAND FREE ENERGY PREDICTED BY IDOCK:   -6.90 KCAL/MOL
REMARK 924 INTRA-LIGAND FREE ENERGY PREDICTED BY IDOCK:   -0.46 KCAL/MOL
REMARK 927      BINDING AFFINITY PREDICTED BY RF-SCORE:    0.00 PKD
ROOT
HETATM    1  C   UNL     1     -11.400  11.043  66.949  1.00  0.00    -0.112 C  
HETATM    2  C   UNL     1     -10.540   9.919  67.517  1.00  0.00    -0.275 C  
ENDROOT
BRANCH   2   3
HETATM    3  N   UNL     1     -10.267  10.090  68.949  1.00  0.00    -0.183 NA 
HETATM    4  C   UNL     1     -11.145   9.278  69.795  1.00  0.00    -0.150 C  
HETATM    5  C   UNL     1     -10.424   9.294  71.124  1.00  0.00    -0.401 C  
HETATM    6  C   UNL     1      -8.961   9.173  70.734  1.00  0.00    -0.296 C  
HETATM    7  C   UNL     1      -8.872   9.727  69.301  1.00  0.00    -0.169 C  
BRANCH   7   8
HETATM    8  C   UNL     1      -7.938  10.954  69.207  1.00  0.00    -0.070 C  
BRANCH   8   9
HETATM    9  N   UNL     1      -8.541  12.111  68.555  1.00  0.00    -0.309 N  
HETATM   10  C   UNL     1      -8.042  12.636  67.377  1.00  0.00    -0.182 C  
HETATM   11  H   UNL     1      -9.358  12.548  68.983  1.00  0.00     0.000 HD 
HETATM   12  O   UNL     1      -7.061  12.173  66.810  1.00  0.00    -0.053 OA 
BRANCH  10  13
HETATM   13  C   UNL     1      -8.743  13.844  66.843  1.00  0.00    -0.177 A  
HETATM   14  C   UNL     1      -9.926  13.629  66.102  1.00  0.00    -0.314 A  
HETATM   15  C   UNL     1     -10.706  14.711  65.675  1.00  0.00    -0.332 A  
HETATM   16  C   UNL     1      -8.357  15.165  67.138  1.00  0.00    -0.219 A  
HETATM   17  C   UNL     1     -10.330  16.015  65.970  1.00  0.00    -0.366 A  
HETATM   18  C   UNL     1      -9.167  16.233  66.709  1.00  0.00    -0.253 A  
BRANCH  15  19
HETATM   19  S   UNL     1     -12.139  14.409  64.662  1.00  0.00    -0.469 S  
HETATM   20  O   UNL     1     -12.366  15.616  63.893  1.00  0.00    -0.673 OA 
HETATM   21  O   UNL     1     -13.170  13.882  65.534  1.00  0.00    -0.698 OA 
BRANCH  19  22
HETATM   22  C   UNL     1     -11.627  13.118  63.545  1.00  0.00    -0.338 C  
HETATM   23  C   UNL     1     -12.442  11.854  63.759  1.00  0.00    -0.537 C  
ENDBRANCH  19  22
ENDBRANCH  15  19
BRANCH  16  24
HETATM   24  O   UNL     1      -7.290  15.586  67.884  1.00  0.00    -0.121 OA 
HETATM   25  C   UNL     1      -7.407  15.483  69.298  1.00  0.00    -0.202 C  
ENDBRANCH  16  24
ENDBRANCH  10  13
ENDBRANCH   8   9
ENDBRANCH   7   8
ENDBRANCH   2   3
TORSDOF 7
ENDMDL
MODEL      138
REMARK 921   NORMALIZED FREE ENERGY PREDICTED BY IDOCK:   -4.60 KCAL/MOL
REMARK 922        TOTAL FREE ENERGY PREDICTED BY IDOCK:   -7.35 KCAL/MOL
REMARK 923 INTER-LIGAND FREE ENERGY PREDICTED BY IDOCK:   -6.73 KCAL/MOL
REMARK 924 INTRA-LIGAND FREE ENERGY PREDICTED BY IDOCK:   -0.62 KCAL/MOL
REMARK 927      BINDING AFFINITY PREDICTED BY RF-SCORE:    0.00 PKD
ROOT
HETATM    1  C   UNL     1      -7.737   6.625  64.101  1.00  0.00    -0.109 C  
HETATM    2  C   UNL     1      -8.189   7.122  65.471  1.00  0.00    -0.139 C  
ENDROOT
BRANCH   2   3
HETATM    3  N   UNL     1      -8.317   8.584  65.522  1.00  0.00    -0.147 NA 
HETATM    4  C   UNL     1      -8.601   9.175  64.212  1.00  0.00    -0.175 C  
HETATM    5  C   UNL     1      -9.091  10.559  64.578  1.00  0.00    -0.251 C  
HETATM    6  C   UNL     1      -9.944  10.317  65.812  1.00  0.00    -0.337 C  
HETATM    7  C   UNL     1      -9.401   9.019  66.436  1.00  0.00    -0.206 C  
BRANCH   7   8
HETATM    8  C   UNL     1      -8.865   9.241  67.868  1.00  0.00    -0.124 C  
BRANCH   8   9
HETATM    9  N   UNL     1      -9.717  10.087  68.697  1.00  0.00    -0.154 N  
HETATM   10  C   UNL     1     -10.647   9.560  69.575  1.00  0.00    -0.221 C  
HETATM   11  H   UNL     1      -9.623  11.101  68.627  1.00  0.00     0.000 HD 
HETATM   12  O   UNL     1     -10.823   8.357  69.707  1.00  0.00    -0.238 OA 
BRANCH  10  13
HETATM   13  C   UNL     1     -11.471  10.549  70.336  1.00  0.00    -0.427 A  
HETATM   14  C   UNL     1     -11.371  11.904  69.952  1.00  0.00    -0.175 A  
HETATM   15  C   UNL     1     -12.200  12.873  70.531  1.00  0.00    -0.314 A  
HETATM   16  C   UNL     1     -12.415  10.189  71.316  1.00  0.00    -0.406 A  
HETATM   17  C   UNL     1     -13.137  12.519  71.494  1.00  0.00    -0.373 A  
HETATM   18  C   UNL     1     -13.247  11.180  71.870  1.00  0.00    -0.488 A  
BRANCH  15  19
HETATM   19  S   UNL     1     -11.982  14.585  70.094  1.00  0.00    -0.335 S  
HETATM   20  O   UNL     1     -12.343  14.707  68.696  1.00  0.00    -0.154 OA 
HETATM   21  O   UNL     1     -10.664  14.975  70.555  1.00  0.00    -0.188 OA 
BRANCH  19  22
HETATM   22  C   UNL     1     -13.200  15.448  71.067  1.00  0.00    -0.496 C  
HETATM   23  C   UNL     1     -12.578  16.051  72.315  1.00  0.00    -0.505 C  
ENDBRANCH  19  22
ENDBRANCH  15  19
BRANCH  16  24
HETATM   24  O   UNL     1     -12.711   8.938  71.784  1.00  0.00    -0.323 OA 
HETATM   25  C   UNL     1     -14.088   8.600  71.904  1.00  0.00    -0.443 C  
ENDBRANCH  16  24
ENDBRANCH  10  13
ENDBRANCH   8   9
ENDBRANCH   7   8
ENDBRANCH   2   3
TORSDOF 7
ENDMDL
MODEL      139
REMARK 921   NORMALIZED FREE ENERGY PREDICTED BY IDOCK:   -4.60 KCAL/MOL
REMARK 922        TOTAL FREE ENERGY PREDICTED BY IDOCK:   -7.35 KCAL/MOL
REMARK 923 INTER-LIGAND FREE ENERGY PREDICTED BY IDOCK:   -6.31 KCAL/MOL
REMARK 924 INTRA-LIGAND FREE ENERGY PREDICTED BY IDOCK:   -1.04 KCAL/MOL
REMARK 927      BINDING AFFINITY PREDICTED BY RF-SCORE:    0.00 PKD
ROOT
HETATM    1  C   UNL     1     -12.276  12.332  63.599  1.00  0.00    -0.665 C  
HETATM    2  C   UNL     1     -12.620  12.776  65.017  1.00  0.00    -0.468 C  
ENDROOT
BRANCH   2   3
HETATM    3  N   UNL     1     -11.490  13.432  65.688  1.00  0.00    -0.311 NA 
HETATM    4  C   UNL     1     -10.710  14.282  64.785  1.00  0.00    -0.416 C  
HETATM    5  C   UNL     1      -9.915  15.137  65.747  1.00  0.00    -0.375 C  
HETATM    6  C   UNL     1     -10.910  15.441  66.854  1.00  0.00    -0.313 C  
HETATM    7  C   UNL     1     -11.930  14.290  66.815  1.00  0.00    -0.436 C  
BRANCH   7   8
HETATM    8  C   UNL     1     -11.962  13.494  68.139  1.00  0.00    -0.341 C  
BRANCH   8   9
HETATM    9  N   UNL     1     -10.950  12.448  68.229  1.00  0.00    -0.223 N  
HETATM   10  C   UNL     1     -11.209  11.220  68.811  1.00  0.00    -0.250 C  
HETATM   11  H   UNL     1     -10.020  12.628  67.849  1.00  0.00     0.000 HD 
HETATM   12  O   UNL     1     -12.296  10.935  69.296  1.00  0.00    -0.395 OA 
BRANCH  10  13
HETATM   13  C   UNL     1     -10.066  10.258  68.860  1.00  0.00    -0.216 A  
HETATM   14  C   UNL     1     -10.379   8.887  68.979  1.00  0.00    -0.226 A  
HETATM   15  C   UNL     1      -9.373   7.916  68.908  1.00  0.00    -0.150 A  
HETATM   16  C   UNL     1      -8.722  10.633  68.675  1.00  0.00    -0.148 A  
HETATM   17  C   UNL     1      -8.047   8.283  68.719  1.00  0.00    -0.115 A  
HETATM   18  C   UNL     1      -7.732   9.636  68.592  1.00  0.00    -0.080 A  
BRANCH  15  19
HETATM   19  S   UNL     1      -9.791   6.203  69.158  1.00  0.00    -0.152 S  
HETATM   20  O   UNL     1     -11.237   6.135  69.231  1.00  0.00    -0.387 OA 
HETATM   21  O   UNL     1      -8.971   5.723  70.252  1.00  0.00    -0.138 OA 
BRANCH  19  22
HETATM   22  C   UNL     1      -9.265   5.396  67.659  1.00  0.00    -0.112 C  
HETATM   23  C   UNL     1     -10.436   4.736  66.952  1.00  0.00    -0.140 C  
ENDBRANCH  19  22
ENDBRANCH  15  19
BRANCH  16  24
HETATM   24  O   UNL     1      -8.215  11.890  68.481  1.00  0.00    -0.154 OA 
HETATM   25  C   UNL     1      -6.893  12.134  68.948  1.00  0.00    -0.100 C  
ENDBRANCH  16  24
ENDBRANCH  10  13
ENDBRANCH   8   9
ENDBRANCH   7   8
ENDBRANCH   2   3
TORSDOF 7
ENDMDL
MODEL      140
REMARK 921   NORMALIZED FREE ENERGY PREDICTED BY IDOCK:   -4.59 KCAL/MOL
REMARK 922        TOTAL FREE ENERGY PREDICTED BY IDOCK:   -7.33 KCAL/MOL
REMARK 923 INTER-LIGAND FREE ENERGY PREDICTED BY IDOCK:   -6.47 KCAL/MOL
REMARK 924 INTRA-LIGAND FREE ENERGY PREDICTED BY IDOCK:   -0.87 KCAL/MOL
REMARK 927      BINDING AFFINITY PREDICTED BY RF-SCORE:    0.00 PKD
ROOT
HETATM    1  C   UNL     1      -9.998  19.702  68.232  1.00  0.00    -0.543 C  
HETATM    2  C   UNL     1     -10.782  18.404  68.067  1.00  0.00    -0.249 C  
ENDROOT
BRANCH   2   3
HETATM    3  N   UNL     1     -10.066  17.416  67.253  1.00  0.00    -0.300 NA 
HETATM    4  C   UNL     1      -8.862  17.965  66.622  1.00  0.00    -0.268 C  
HETATM    5  C   UNL     1      -8.108  16.718  66.218  1.00  0.00    -0.365 C  
HETATM    6  C   UNL     1      -8.323  15.778  67.391  1.00  0.00    -0.189 C  
HETATM    7  C   UNL     1      -9.636  16.240  68.049  1.00  0.00    -0.224 C  
BRANCH   7   8
HETATM    8  C   UNL     1     -10.716  15.135  68.035  1.00  0.00    -0.264 C  
BRANCH   8   9
HETATM    9  N   UNL     1     -10.255  13.847  68.542  1.00  0.00    -0.239 N  
HETATM   10  C   UNL     1     -11.001  12.690  68.400  1.00  0.00    -0.257 C  
HETATM   11  H   UNL     1      -9.353  13.797  69.015  1.00  0.00     0.000 HD 
HETATM   12  O   UNL     1     -12.095  12.673  67.852  1.00  0.00    -0.334 OA 
BRANCH  10  13
HETATM   13  C   UNL     1     -10.417  11.451  68.997  1.00  0.00    -0.196 A  
HETATM   14  C   UNL     1     -11.222  10.728  69.904  1.00  0.00    -0.371 A  
HETATM   15  C   UNL     1     -10.797   9.494  70.411  1.00  0.00    -0.282 A  
HETATM   16  C   UNL     1      -9.174  10.911  68.615  1.00  0.00    -0.187 A  
HETATM   17  C   UNL     1      -9.573   8.957  70.031  1.00  0.00    -0.190 A  
HETATM   18  C   UNL     1      -8.777   9.662  69.127  1.00  0.00    -0.151 A  
BRANCH  15  19
HETATM   19  S   UNL     1     -11.793   8.657  71.626  1.00  0.00    -0.349 S  
HETATM   20  O   UNL     1     -12.932   9.513  71.891  1.00  0.00    -0.362 OA 
HETATM   21  O   UNL     1     -10.903   8.255  72.698  1.00  0.00    -0.345 OA 
BRANCH  19  22
HETATM   22  C   UNL     1     -12.371   7.193  70.791  1.00  0.00    -0.229 C  
HETATM   23  C   UNL     1     -11.362   6.063  70.904  1.00  0.00    -0.299 C  
ENDBRANCH  19  22
ENDBRANCH  15  19
BRANCH  16  24
HETATM   24  O   UNL     1      -8.276  11.415  67.714  1.00  0.00    -0.118 OA 
HETATM   25  C   UNL     1      -8.242  10.809  66.426  1.00  0.00    -0.155 C  
ENDBRANCH  16  24
ENDBRANCH  10  13
ENDBRANCH   8   9
ENDBRANCH   7   8
ENDBRANCH   2   3
TORSDOF 7
ENDMDL
MODEL      141
REMARK 921   NORMALIZED FREE ENERGY PREDICTED BY IDOCK:   -4.57 KCAL/MOL
REMARK 922        TOTAL FREE ENERGY PREDICTED BY IDOCK:   -7.31 KCAL/MOL
REMARK 923 INTER-LIGAND FREE ENERGY PREDICTED BY IDOCK:   -6.80 KCAL/MOL
REMARK 924 INTRA-LIGAND FREE ENERGY PREDICTED BY IDOCK:   -0.50 KCAL/MOL
REMARK 927      BINDING AFFINITY PREDICTED BY RF-SCORE:    0.00 PKD
ROOT
HETATM    1  C   UNL     1     -11.618  14.420  67.565  1.00  0.00    -0.398 C  
HETATM    2  C   UNL     1     -12.141  13.001  67.364  1.00  0.00    -0.233 C  
ENDROOT
BRANCH   2   3
HETATM    3  N   UNL     1     -11.928  12.515  65.996  1.00  0.00    -0.561 NA 
HETATM    4  C   UNL     1     -12.324  13.492  64.978  1.00  0.00    -0.428 C  
HETATM    5  C   UNL     1     -11.644  12.962  63.735  1.00  0.00    -0.538 C  
HETATM    6  C   UNL     1     -10.294  12.487  64.245  1.00  0.00    -0.396 C  
HETATM    7  C   UNL     1     -10.508  12.173  65.736  1.00  0.00    -0.253 C  
BRANCH   7   8
HETATM    8  C   UNL     1     -10.224  10.691  66.067  1.00  0.00    -0.247 C  
BRANCH   8   9
HETATM    9  N   UNL     1     -10.714  10.268  67.374  1.00  0.00    -0.275 N  
HETATM   10  C   UNL     1      -9.864   9.833  68.374  1.00  0.00    -0.152 C  
HETATM   11  H   UNL     1     -11.718  10.296  67.557  1.00  0.00     0.000 HD 
HETATM   12  O   UNL     1      -8.651   9.765  68.227  1.00  0.00    -0.117 OA 
BRANCH  10  13
HETATM   13  C   UNL     1     -10.511   9.401  69.650  1.00  0.00    -0.236 A  
HETATM   14  C   UNL     1     -10.105   8.164  70.195  1.00  0.00    -0.194 A  
HETATM   15  C   UNL     1     -10.572   7.748  71.448  1.00  0.00    -0.213 A  
HETATM   16  C   UNL     1     -11.400  10.207  70.386  1.00  0.00    -0.326 A  
HETATM   17  C   UNL     1     -11.445   8.544  72.178  1.00  0.00    -0.446 A  
HETATM   18  C   UNL     1     -11.843   9.773  71.649  1.00  0.00    -0.429 A  
BRANCH  15  19
HETATM   19  S   UNL     1     -10.116   6.139  72.062  1.00  0.00    -0.182 S  
HETATM   20  O   UNL     1     -10.776   5.168  71.212  1.00  0.00    -0.179 OA 
HETATM   21  O   UNL     1     -10.349   6.151  73.492  1.00  0.00    -0.213 OA 
BRANCH  19  22
HETATM   22  C   UNL     1      -8.360   6.038  71.775  1.00  0.00    -0.119 C  
HETATM   23  C   UNL     1      -8.062   5.454  70.405  1.00  0.00    -0.101 C  
ENDBRANCH  19  22
ENDBRANCH  15  19
BRANCH  16  24
HETATM   24  O   UNL     1     -11.868  11.454  70.070  1.00  0.00    -0.305 OA 
HETATM   25  C   UNL     1     -12.635  12.129  71.061  1.00  0.00    -0.263 C  
ENDBRANCH  16  24
ENDBRANCH  10  13
ENDBRANCH   8   9
ENDBRANCH   7   8
ENDBRANCH   2   3
TORSDOF 7
ENDMDL
MODEL      142
REMARK 921   NORMALIZED FREE ENERGY PREDICTED BY IDOCK:   -4.57 KCAL/MOL
REMARK 922        TOTAL FREE ENERGY PREDICTED BY IDOCK:   -7.31 KCAL/MOL
REMARK 923 INTER-LIGAND FREE ENERGY PREDICTED BY IDOCK:   -6.16 KCAL/MOL
REMARK 924 INTRA-LIGAND FREE ENERGY PREDICTED BY IDOCK:   -1.15 KCAL/MOL
REMARK 927      BINDING AFFINITY PREDICTED BY RF-SCORE:    0.00 PKD
ROOT
HETATM    1  C   UNL     1      -9.575   7.162  66.435  1.00  0.00    -0.161 C  
HETATM    2  C   UNL     1     -10.609   6.146  66.910  1.00  0.00    -0.312 C  
ENDROOT
BRANCH   2   3
HETATM    3  N   UNL     1     -10.006   5.044  67.669  1.00  0.00    -0.164 NA 
HETATM    4  C   UNL     1      -9.564   3.941  66.812  1.00  0.00    -0.198 C  
HETATM    5  C   UNL     1      -8.639   3.169  67.726  1.00  0.00    -0.118 C  
HETATM    6  C   UNL     1      -7.893   4.258  68.477  1.00  0.00    -0.074 C  
HETATM    7  C   UNL     1      -8.823   5.484  68.449  1.00  0.00    -0.107 C  
BRANCH   7   8
HETATM    8  C   UNL     1      -9.232   5.938  69.868  1.00  0.00    -0.146 C  
BRANCH   8   9
HETATM    9  N   UNL     1      -9.686   7.322  69.942  1.00  0.00    -0.174 N  
HETATM   10  C   UNL     1     -11.016   7.652  70.132  1.00  0.00    -0.246 C  
HETATM   11  H   UNL     1      -9.000   8.072  69.851  1.00  0.00     0.000 HD 
HETATM   12  O   UNL     1     -11.896   6.809  70.241  1.00  0.00    -0.364 OA 
BRANCH  10  13
HETATM   13  C   UNL     1     -11.338   9.111  70.154  1.00  0.00    -0.164 A  
HETATM   14  C   UNL     1     -11.036   9.857  68.994  1.00  0.00    -0.184 A  
HETATM   15  C   UNL     1     -11.419  11.200  68.890  1.00  0.00    -0.295 A  
HETATM   16  C   UNL     1     -12.025   9.743  71.208  1.00  0.00    -0.386 A  
HETATM   17  C   UNL     1     -12.102  11.824  69.926  1.00  0.00    -0.359 A  
HETATM   18  C   UNL     1     -12.411  11.090  71.071  1.00  0.00    -0.512 A  
BRANCH  15  19
HETATM   19  S   UNL     1     -10.938  12.138  67.454  1.00  0.00    -0.276 S  
HETATM   20  O   UNL     1     -10.044  13.180  67.919  1.00  0.00    -0.220 OA 
HETATM   21  O   UNL     1     -12.155  12.470  66.739  1.00  0.00    -0.546 OA 
BRANCH  19  22
HETATM   22  C   UNL     1      -9.999  10.988  66.469  1.00  0.00    -0.212 C  
HETATM   23  C   UNL     1      -8.515  11.304  66.525  1.00  0.00    -0.171 C  
ENDBRANCH  19  22
ENDBRANCH  15  19
BRANCH  16  24
HETATM   24  O   UNL     1     -12.461   9.192  72.382  1.00  0.00    -0.352 OA 
HETATM   25  C   UNL     1     -13.806   8.730  72.420  1.00  0.00    -0.416 C  
ENDBRANCH  16  24
ENDBRANCH  10  13
ENDBRANCH   8   9
ENDBRANCH   7   8
ENDBRANCH   2   3
TORSDOF 7
ENDMDL
MODEL      143
REMARK 921   NORMALIZED FREE ENERGY PREDICTED BY IDOCK:   -4.56 KCAL/MOL
REMARK 922        TOTAL FREE ENERGY PREDICTED BY IDOCK:   -7.29 KCAL/MOL
REMARK 923 INTER-LIGAND FREE ENERGY PREDICTED BY IDOCK:   -6.27 KCAL/MOL
REMARK 924 INTRA-LIGAND FREE ENERGY PREDICTED BY IDOCK:   -1.02 KCAL/MOL
REMARK 927      BINDING AFFINITY PREDICTED BY RF-SCORE:    0.00 PKD
ROOT
HETATM    1  C   UNL     1     -12.126  15.411  69.602  1.00  0.00    -0.354 C  
HETATM    2  C   UNL     1     -11.522  15.469  68.203  1.00  0.00    -0.326 C  
ENDROOT
BRANCH   2   3
HETATM    3  N   UNL     1     -11.385  14.140  67.595  1.00  0.00    -0.303 NA 
HETATM    4  C   UNL     1     -12.288  13.940  66.458  1.00  0.00    -0.404 C  
HETATM    5  C   UNL     1     -11.687  12.733  65.773  1.00  0.00    -0.449 C  
HETATM    6  C   UNL     1     -10.191  12.975  65.877  1.00  0.00    -0.298 C  
HETATM    7  C   UNL     1     -10.009  13.888  67.102  1.00  0.00    -0.239 C  
BRANCH   7   8
HETATM    8  C   UNL     1      -9.139  13.229  68.196  1.00  0.00    -0.207 C  
BRANCH   8   9
HETATM    9  N   UNL     1      -9.768  12.084  68.846  1.00  0.00    -0.417 N  
HETATM   10  C   UNL     1      -9.172  10.836  68.876  1.00  0.00    -0.173 C  
HETATM   11  H   UNL     1     -10.676  12.208  69.294  1.00  0.00     0.000 HD 
HETATM   12  O   UNL     1      -8.089  10.608  68.355  1.00  0.00    -0.111 OA 
BRANCH  10  13
HETATM   13  C   UNL     1      -9.948   9.750  69.550  1.00  0.00    -0.230 A  
HETATM   14  C   UNL     1      -9.373   8.461  69.568  1.00  0.00    -0.158 A  
HETATM   15  C   UNL     1      -9.977   7.420  70.285  1.00  0.00    -0.188 A  
HETATM   16  C   UNL     1     -11.143   9.971  70.260  1.00  0.00    -0.318 A  
HETATM   17  C   UNL     1     -11.154   7.637  70.991  1.00  0.00    -0.273 A  
HETATM   18  C   UNL     1     -11.721   8.911  70.985  1.00  0.00    -0.340 A  
BRANCH  15  19
HETATM   19  S   UNL     1      -9.279   5.784  70.208  1.00  0.00    -0.154 S  
HETATM   20  O   UNL     1     -10.182   4.912  70.932  1.00  0.00    -0.227 OA 
HETATM   21  O   UNL     1      -7.888   5.899  70.600  1.00  0.00    -0.100 OA 
BRANCH  19  22
HETATM   22  C   UNL     1      -9.347   5.356  68.479  1.00  0.00    -0.118 C  
HETATM   23  C   UNL     1      -9.549   3.862  68.293  1.00  0.00    -0.178 C  
ENDBRANCH  19  22
ENDBRANCH  15  19
BRANCH  16  24
HETATM   24  O   UNL     1     -11.827  11.146  70.419  1.00  0.00    -0.329 OA 
HETATM   25  C   UNL     1     -12.675  11.253  71.556  1.00  0.00    -0.376 C  
ENDBRANCH  16  24
ENDBRANCH  10  13
ENDBRANCH   8   9
ENDBRANCH   7   8
ENDBRANCH   2   3
TORSDOF 7
ENDMDL
MODEL      144
REMARK 921   NORMALIZED FREE ENERGY PREDICTED BY IDOCK:   -4.54 KCAL/MOL
REMARK 922        TOTAL FREE ENERGY PREDICTED BY IDOCK:   -7.26 KCAL/MOL
REMARK 923 INTER-LIGAND FREE ENERGY PREDICTED BY IDOCK:   -6.29 KCAL/MOL
REMARK 924 INTRA-LIGAND FREE ENERGY PREDICTED BY IDOCK:   -0.97 KCAL/MOL
REMARK 927      BINDING AFFINITY PREDICTED BY RF-SCORE:    0.00 PKD
ROOT
HETATM    1  C   UNL     1     -11.002   6.081  69.543  1.00  0.00    -0.467 C  
HETATM    2  C   UNL     1     -11.014   6.360  68.044  1.00  0.00    -0.311 C  
ENDROOT
BRANCH   2   3
HETATM    3  N   UNL     1      -9.665   6.376  67.466  1.00  0.00    -0.118 NA 
HETATM    4  C   UNL     1      -9.402   5.216  66.609  1.00  0.00    -0.137 C  
HETATM    5  C   UNL     1      -8.181   5.656  65.832  1.00  0.00    -0.119 C  
HETATM    6  C   UNL     1      -8.458   7.120  65.536  1.00  0.00    -0.114 C  
HETATM    7  C   UNL     1      -9.422   7.585  66.641  1.00  0.00    -0.191 C  
BRANCH   7   8
HETATM    8  C   UNL     1      -8.826   8.728  67.493  1.00  0.00    -0.134 C  
BRANCH   8   9
HETATM    9  N   UNL     1      -9.365  10.046  67.180  1.00  0.00    -0.148 N  
HETATM   10  C   UNL     1     -10.447  10.580  67.858  1.00  0.00    -0.210 C  
HETATM   11  H   UNL     1      -8.929  10.594  66.437  1.00  0.00     0.000 HD 
HETATM   12  O   UNL     1     -11.026   9.980  68.753  1.00  0.00    -0.224 OA 
BRANCH  10  13
HETATM   13  C   UNL     1     -10.909  11.927  67.406  1.00  0.00    -0.289 A  
HETATM   14  C   UNL     1     -10.814  12.987  68.334  1.00  0.00    -0.280 A  
HETATM   15  C   UNL     1     -11.110  14.301  67.950  1.00  0.00    -0.278 A  
HETATM   16  C   UNL     1     -11.313  12.213  66.089  1.00  0.00    -0.361 A  
HETATM   17  C   UNL     1     -11.504  14.586  66.649  1.00  0.00    -0.373 A  
HETATM   18  C   UNL     1     -11.590  13.545  65.725  1.00  0.00    -0.351 A  
BRANCH  15  19
HETATM   19  S   UNL     1     -11.074  15.598  69.170  1.00  0.00    -0.310 S  
HETATM   20  O   UNL     1     -11.347  16.836  68.467  1.00  0.00    -0.268 OA 
HETATM   21  O   UNL     1      -9.849  15.432  69.927  1.00  0.00    -0.270 OA 
BRANCH  19  22
HETATM   22  C   UNL     1     -12.454  15.240  70.238  1.00  0.00    -0.363 C  
HETATM   23  C   UNL     1     -12.092  15.468  71.695  1.00  0.00    -0.471 C  
ENDBRANCH  19  22
ENDBRANCH  15  19
BRANCH  16  24
HETATM   24  O   UNL     1     -11.413  11.352  65.030  1.00  0.00    -0.108 OA 
HETATM   25  C   UNL     1     -10.726  11.710  63.837  1.00  0.00    -0.398 C  
ENDBRANCH  16  24
ENDBRANCH  10  13
ENDBRANCH   8   9
ENDBRANCH   7   8
ENDBRANCH   2   3
TORSDOF 7
ENDMDL
MODEL      145
REMARK 921   NORMALIZED FREE ENERGY PREDICTED BY IDOCK:   -4.53 KCAL/MOL
REMARK 922        TOTAL FREE ENERGY PREDICTED BY IDOCK:   -7.25 KCAL/MOL
REMARK 923 INTER-LIGAND FREE ENERGY PREDICTED BY IDOCK:   -6.20 KCAL/MOL
REMARK 924 INTRA-LIGAND FREE ENERGY PREDICTED BY IDOCK:   -1.05 KCAL/MOL
REMARK 927      BINDING AFFINITY PREDICTED BY RF-SCORE:    0.00 PKD
ROOT
HETATM    1  C   UNL     1     -11.001  16.141  69.531  1.00  0.00    -0.341 C  
HETATM    2  C   UNL     1     -10.756  16.130  68.026  1.00  0.00    -0.321 C  
ENDROOT
BRANCH   2   3
HETATM    3  N   UNL     1      -9.696  15.191  67.637  1.00  0.00    -0.211 NA 
HETATM    4  C   UNL     1      -8.370  15.814  67.607  1.00  0.00    -0.157 C  
HETATM    5  C   UNL     1      -7.447  14.615  67.605  1.00  0.00    -0.205 C  
HETATM    6  C   UNL     1      -8.117  13.652  68.571  1.00  0.00    -0.118 C  
HETATM    7  C   UNL     1      -9.608  14.033  68.560  1.00  0.00    -0.201 C  
BRANCH   7   8
HETATM    8  C   UNL     1     -10.504  12.870  68.079  1.00  0.00    -0.230 C  
BRANCH   8   9
HETATM    9  N   UNL     1     -10.884  11.937  69.134  1.00  0.00    -0.372 N  
HETATM   10  C   UNL     1     -10.453  10.622  69.145  1.00  0.00    -0.222 C  
HETATM   11  H   UNL     1     -11.487  12.265  69.889  1.00  0.00     0.000 HD 
HETATM   12  O   UNL     1      -9.736  10.155  68.271  1.00  0.00    -0.139 OA 
BRANCH  10  13
HETATM   13  C   UNL     1     -10.949   9.775  70.272  1.00  0.00    -0.352 A  
HETATM   14  C   UNL     1     -10.117   8.718  70.702  1.00  0.00    -0.248 A  
HETATM   15  C   UNL     1     -10.452   7.958  71.828  1.00  0.00    -0.221 A  
HETATM   16  C   UNL     1     -12.127  10.046  70.993  1.00  0.00    -0.373 A  
HETATM   17  C   UNL     1     -11.611   8.228  72.545  1.00  0.00    -0.454 A  
HETATM   18  C   UNL     1     -12.433   9.276  72.131  1.00  0.00    -0.421 A  
BRANCH  15  19
HETATM   19  S   UNL     1      -9.430   6.573  72.285  1.00  0.00    -0.142 S  
HETATM   20  O   UNL     1      -9.124   6.729  73.693  1.00  0.00    -0.132 OA 
HETATM   21  O   UNL     1      -8.369   6.488  71.301  1.00  0.00    -0.123 OA 
BRANCH  19  22
HETATM   22  C   UNL     1     -10.494   5.156  72.093  1.00  0.00    -0.220 C  
HETATM   23  C   UNL     1     -10.923   4.606  73.443  1.00  0.00    -0.395 C  
ENDBRANCH  19  22
ENDBRANCH  15  19
BRANCH  16  24
HETATM   24  O   UNL     1     -13.033  11.050  70.783  1.00  0.00    -0.286 OA 
HETATM   25  C   UNL     1     -13.170  12.025  71.811  1.00  0.00    -0.317 C  
ENDBRANCH  16  24
ENDBRANCH  10  13
ENDBRANCH   8   9
ENDBRANCH   7   8
ENDBRANCH   2   3
TORSDOF 7
ENDMDL
MODEL      146
REMARK 921   NORMALIZED FREE ENERGY PREDICTED BY IDOCK:   -4.52 KCAL/MOL
REMARK 922        TOTAL FREE ENERGY PREDICTED BY IDOCK:   -7.24 KCAL/MOL
REMARK 923 INTER-LIGAND FREE ENERGY PREDICTED BY IDOCK:   -6.26 KCAL/MOL
REMARK 924 INTRA-LIGAND FREE ENERGY PREDICTED BY IDOCK:   -0.98 KCAL/MOL
REMARK 927      BINDING AFFINITY PREDICTED BY RF-SCORE:    0.00 PKD
ROOT
HETATM    1  C   UNL     1     -12.597  12.702  63.336  1.00  0.00    -0.369 C  
HETATM    2  C   UNL     1     -11.124  12.321  63.219  1.00  0.00    -0.319 C  
ENDROOT
BRANCH   2   3
HETATM    3  N   UNL     1     -10.341  12.745  64.386  1.00  0.00    -0.368 NA 
HETATM    4  C   UNL     1     -10.632  14.121  64.795  1.00  0.00    -0.418 C  
HETATM    5  C   UNL     1     -10.060  14.174  66.194  1.00  0.00    -0.324 C  
HETATM    6  C   UNL     1     -10.429  12.821  66.779  1.00  0.00    -0.253 C  
HETATM    7  C   UNL     1     -10.588  11.883  65.569  1.00  0.00    -0.269 C  
BRANCH   7   8
HETATM    8  C   UNL     1      -9.592  10.702  65.613  1.00  0.00    -0.218 C  
BRANCH   8   9
HETATM    9  N   UNL     1      -9.948   9.660  66.569  1.00  0.00    -0.230 N  
HETATM   10  C   UNL     1      -9.065   9.217  67.538  1.00  0.00    -0.124 C  
HETATM   11  H   UNL     1     -10.878   9.244  66.522  1.00  0.00     0.000 HD 
HETATM   12  O   UNL     1      -7.931   9.661  67.651  1.00  0.00    -0.105 OA 
BRANCH  10  13
HETATM   13  C   UNL     1      -9.557   8.121  68.427  1.00  0.00    -0.155 A  
HETATM   14  C   UNL     1     -10.428   8.483  69.479  1.00  0.00    -0.222 A  
HETATM   15  C   UNL     1     -11.029   7.503  70.278  1.00  0.00    -0.250 A  
HETATM   16  C   UNL     1      -9.299   6.756  68.201  1.00  0.00    -0.122 A  
HETATM   17  C   UNL     1     -10.780   6.155  70.052  1.00  0.00    -0.370 A  
HETATM   18  C   UNL     1      -9.928   5.790  69.009  1.00  0.00    -0.222 A  
BRANCH  15  19
HETATM   19  S   UNL     1     -12.044   7.998  71.654  1.00  0.00    -0.316 S  
HETATM   20  O   UNL     1     -13.346   7.395  71.448  1.00  0.00    -0.370 OA 
HETATM   21  O   UNL     1     -11.906   9.435  71.787  1.00  0.00    -0.367 OA 
BRANCH  19  22
HETATM   22  C   UNL     1     -11.283   7.223  73.067  1.00  0.00    -0.264 C  
HETATM   23  C   UNL     1      -9.866   7.732  73.273  1.00  0.00    -0.362 C  
ENDBRANCH  19  22
ENDBRANCH  15  19
BRANCH  16  24
HETATM   24  O   UNL     1      -8.541   6.193  67.210  1.00  0.00    -0.105 OA 
HETATM   25  C   UNL     1      -9.229   5.724  66.056  1.00  0.00    -0.141 C  
ENDBRANCH  16  24
ENDBRANCH  10  13
ENDBRANCH   8   9
ENDBRANCH   7   8
ENDBRANCH   2   3
TORSDOF 7
ENDMDL
MODEL      147
REMARK 921   NORMALIZED FREE ENERGY PREDICTED BY IDOCK:   -4.48 KCAL/MOL
REMARK 922        TOTAL FREE ENERGY PREDICTED BY IDOCK:   -7.18 KCAL/MOL
REMARK 923 INTER-LIGAND FREE ENERGY PREDICTED BY IDOCK:   -6.33 KCAL/MOL
REMARK 924 INTRA-LIGAND FREE ENERGY PREDICTED BY IDOCK:   -0.85 KCAL/MOL
REMARK 927      BINDING AFFINITY PREDICTED BY RF-SCORE:    0.00 PKD
ROOT
HETATM    1  C   UNL     1      -6.940  20.168  65.481  1.00  0.00    -0.332 C  
HETATM    2  C   UNL     1      -6.992  19.726  66.940  1.00  0.00    -0.209 C  
ENDROOT
BRANCH   2   3
HETATM    3  N   UNL     1      -8.339  19.314  67.353  1.00  0.00    -0.283 NA 
HETATM    4  C   UNL     1      -9.342  20.361  67.143  1.00  0.00    -0.403 C  
HETATM    5  C   UNL     1     -10.641  19.591  67.231  1.00  0.00    -0.610 C  
HETATM    6  C   UNL     1     -10.332  18.293  66.505  1.00  0.00    -0.410 C  
HETATM    7  C   UNL     1      -8.808  18.114  66.617  1.00  0.00    -0.275 C  
BRANCH   7   8
HETATM    8  C   UNL     1      -8.426  16.818  67.368  1.00  0.00    -0.189 C  
BRANCH   8   9
HETATM    9  N   UNL     1      -8.907  15.598  66.729  1.00  0.00    -0.247 N  
HETATM   10  C   UNL     1      -9.735  14.702  67.382  1.00  0.00    -0.218 C  
HETATM   11  H   UNL     1      -8.623  15.399  65.770  1.00  0.00     0.000 HD 
HETATM   12  O   UNL     1     -10.110  14.869  68.535  1.00  0.00    -0.220 OA 
BRANCH  10  13
HETATM   13  C   UNL     1     -10.121  13.480  66.613  1.00  0.00    -0.277 A  
HETATM   14  C   UNL     1      -9.266  12.360  66.708  1.00  0.00    -0.212 A  
HETATM   15  C   UNL     1      -9.620  11.140  66.119  1.00  0.00    -0.210 A  
HETATM   16  C   UNL     1     -11.334  13.350  65.911  1.00  0.00    -0.309 A  
HETATM   17  C   UNL     1     -10.820  11.008  65.431  1.00  0.00    -0.168 A  
HETATM   18  C   UNL     1     -11.674  12.108  65.342  1.00  0.00    -0.379 A  
BRANCH  15  19
HETATM   19  S   UNL     1      -8.476   9.777  66.174  1.00  0.00    -0.125 S  
HETATM   20  O   UNL     1      -8.845   8.880  65.098  1.00  0.00    -0.195 OA 
HETATM   21  O   UNL     1      -8.439   9.311  67.547  1.00  0.00    -0.115 OA 
BRANCH  19  22
HETATM   22  C   UNL     1      -6.899  10.508  65.782  1.00  0.00    -0.127 C  
HETATM   23  C   UNL     1      -5.883   9.446  65.398  1.00  0.00    -0.058 C  
ENDBRANCH  19  22
ENDBRANCH  15  19
BRANCH  16  24
HETATM   24  O   UNL     1     -12.322  14.284  65.752  1.00  0.00    -0.426 OA 
HETATM   25  C   UNL     1     -12.282  15.074  64.570  1.00  0.00    -0.331 C  
ENDBRANCH  16  24
ENDBRANCH  10  13
ENDBRANCH   8   9
ENDBRANCH   7   8
ENDBRANCH   2   3
TORSDOF 7
ENDMDL
MODEL      148
REMARK 921   NORMALIZED FREE ENERGY PREDICTED BY IDOCK:   -4.45 KCAL/MOL
REMARK 922        TOTAL FREE ENERGY PREDICTED BY IDOCK:   -7.14 KCAL/MOL
REMARK 923 INTER-LIGAND FREE ENERGY PREDICTED BY IDOCK:   -6.23 KCAL/MOL
REMARK 924 INTRA-LIGAND FREE ENERGY PREDICTED BY IDOCK:   -0.91 KCAL/MOL
REMARK 927      BINDING AFFINITY PREDICTED BY RF-SCORE:    0.00 PKD
ROOT
HETATM    1  C   UNL     1     -11.043  15.238  70.169  1.00  0.00    -0.312 C  
HETATM    2  C   UNL     1     -11.740  15.798  68.933  1.00  0.00    -0.394 C  
ENDROOT
BRANCH   2   3
HETATM    3  N   UNL     1     -10.813  16.500  68.037  1.00  0.00    -0.344 NA 
HETATM    4  C   UNL     1     -10.299  17.745  68.616  1.00  0.00    -0.350 C  
HETATM    5  C   UNL     1      -9.104  18.042  67.738  1.00  0.00    -0.262 C  
HETATM    6  C   UNL     1      -8.484  16.675  67.508  1.00  0.00    -0.199 C  
HETATM    7  C   UNL     1      -9.635  15.669  67.686  1.00  0.00    -0.220 C  
BRANCH   7   8
HETATM    8  C   UNL     1      -9.897  14.849  66.404  1.00  0.00    -0.274 C  
BRANCH   8   9
HETATM    9  N   UNL     1     -10.151  13.433  66.645  1.00  0.00    -0.269 N  
HETATM   10  C   UNL     1      -9.154  12.564  67.052  1.00  0.00    -0.213 C  
HETATM   11  H   UNL     1     -11.096  13.071  66.510  1.00  0.00     0.000 HD 
HETATM   12  O   UNL     1      -7.997  12.922  67.225  1.00  0.00    -0.174 OA 
BRANCH  10  13
HETATM   13  C   UNL     1      -9.555  11.135  67.229  1.00  0.00    -0.182 A  
HETATM   14  C   UNL     1     -10.094  10.766  68.480  1.00  0.00    -0.187 A  
HETATM   15  C   UNL     1     -10.607   9.479  68.685  1.00  0.00    -0.210 A  
HETATM   16  C   UNL     1      -9.535  10.184  66.191  1.00  0.00    -0.188 A  
HETATM   17  C   UNL     1     -10.594   8.541  67.661  1.00  0.00    -0.268 A  
HETATM   18  C   UNL     1     -10.071   8.903  66.419  1.00  0.00    -0.333 A  
BRANCH  15  19
HETATM   19  S   UNL     1     -11.191   9.017  70.303  1.00  0.00    -0.159 S  
HETATM   20  O   UNL     1     -10.265   9.592  71.258  1.00  0.00    -0.296 OA 
HETATM   21  O   UNL     1     -11.432   7.588  70.273  1.00  0.00    -0.248 OA 
BRANCH  19  22
HETATM   22  C   UNL     1     -12.757   9.853  70.463  1.00  0.00    -0.064 C  
HETATM   23  C   UNL     1     -12.869  10.554  71.805  1.00  0.00    -0.559 C  
ENDBRANCH  19  22
ENDBRANCH  15  19
BRANCH  16  24
HETATM   24  O   UNL     1      -9.115  10.353  64.900  1.00  0.00    -0.179 OA 
HETATM   25  C   UNL     1     -10.084  10.795  63.956  1.00  0.00    -0.345 C  
ENDBRANCH  16  24
ENDBRANCH  10  13
ENDBRANCH   8   9
ENDBRANCH   7   8
ENDBRANCH   2   3
TORSDOF 7
ENDMDL
MODEL      149
REMARK 921   NORMALIZED FREE ENERGY PREDICTED BY IDOCK:   -4.45 KCAL/MOL
REMARK 922        TOTAL FREE ENERGY PREDICTED BY IDOCK:   -7.13 KCAL/MOL
REMARK 923 INTER-LIGAND FREE ENERGY PREDICTED BY IDOCK:   -5.93 KCAL/MOL
REMARK 924 INTRA-LIGAND FREE ENERGY PREDICTED BY IDOCK:   -1.20 KCAL/MOL
REMARK 927      BINDING AFFINITY PREDICTED BY RF-SCORE:    0.00 PKD
ROOT
HETATM    1  C   UNL     1     -11.438  16.312  69.054  1.00  0.00    -0.268 C  
HETATM    2  C   UNL     1     -10.290  17.311  68.948  1.00  0.00    -0.352 C  
ENDROOT
BRANCH   2   3
HETATM    3  N   UNL     1      -9.246  16.868  68.017  1.00  0.00    -0.230 NA 
HETATM    4  C   UNL     1      -9.157  17.711  66.822  1.00  0.00    -0.260 C  
HETATM    5  C   UNL     1      -7.804  17.337  66.259  1.00  0.00    -0.344 C  
HETATM    6  C   UNL     1      -6.932  17.199  67.495  1.00  0.00    -0.172 C  
HETATM    7  C   UNL     1      -7.901  16.865  68.643  1.00  0.00    -0.244 C  
BRANCH   7   8
HETATM    8  C   UNL     1      -7.591  15.495  69.287  1.00  0.00    -0.221 C  
BRANCH   8   9
HETATM    9  N   UNL     1      -8.501  14.429  68.883  1.00  0.00    -0.300 N  
HETATM   10  C   UNL     1      -8.094  13.378  68.081  1.00  0.00    -0.155 C  
HETATM   11  H   UNL     1      -9.470  14.459  69.203  1.00  0.00     0.000 HD 
HETATM   12  O   UNL     1      -6.953  13.278  67.652  1.00  0.00    -0.135 OA 
BRANCH  10  13
HETATM   13  C   UNL     1      -9.144  12.376  67.722  1.00  0.00    -0.193 A  
HETATM   14  C   UNL     1      -8.929  11.041  68.126  1.00  0.00    -0.152 A  
HETATM   15  C   UNL     1      -9.919  10.069  67.937  1.00  0.00    -0.154 A  
HETATM   16  C   UNL     1     -10.370  12.713  67.119  1.00  0.00    -0.231 A  
HETATM   17  C   UNL     1     -11.133  10.401  67.348  1.00  0.00    -0.297 A  
HETATM   18  C   UNL     1     -11.355  11.721  66.955  1.00  0.00    -0.386 A  
BRANCH  15  19
HETATM   19  S   UNL     1      -9.578   8.376  68.371  1.00  0.00    -0.150 S  
HETATM   20  O   UNL     1     -10.615   7.968  69.297  1.00  0.00    -0.222 OA 
HETATM   21  O   UNL     1      -8.180   8.310  68.748  1.00  0.00    -0.114 OA 
BRANCH  19  22
HETATM   22  C   UNL     1      -9.797   7.477  66.848  1.00  0.00    -0.226 C  
HETATM   23  C   UNL     1     -10.918   6.460  66.969  1.00  0.00    -0.463 C  
ENDBRANCH  19  22
ENDBRANCH  15  19
BRANCH  16  24
HETATM   24  O   UNL     1     -10.800  13.947  66.711  1.00  0.00    -0.283 OA 
HETATM   25  C   UNL     1     -10.404  14.375  65.413  1.00  0.00    -0.378 C  
ENDBRANCH  16  24
ENDBRANCH  10  13
ENDBRANCH   8   9
ENDBRANCH   7   8
ENDBRANCH   2   3
TORSDOF 7
ENDMDL
MODEL      150
REMARK 921   NORMALIZED FREE ENERGY PREDICTED BY IDOCK:   -4.44 KCAL/MOL
REMARK 922        TOTAL FREE ENERGY PREDICTED BY IDOCK:   -7.13 KCAL/MOL
REMARK 923 INTER-LIGAND FREE ENERGY PREDICTED BY IDOCK:   -6.05 KCAL/MOL
REMARK 924 INTRA-LIGAND FREE ENERGY PREDICTED BY IDOCK:   -1.08 KCAL/MOL
REMARK 927      BINDING AFFINITY PREDICTED BY RF-SCORE:    0.00 PKD
ROOT
HETATM    1  C   UNL     1     -12.197  13.816  63.862  1.00  0.00    -0.402 C  
HETATM    2  C   UNL     1     -12.521  12.334  63.705  1.00  0.00    -0.541 C  
ENDROOT
BRANCH   2   3
HETATM    3  N   UNL     1     -11.496  11.470  64.302  1.00  0.00    -0.252 NA 
HETATM    4  C   UNL     1     -10.383  11.196  63.390  1.00  0.00    -0.360 C  
HETATM    5  C   UNL     1      -9.314  10.677  64.327  1.00  0.00    -0.298 C  
HETATM    6  C   UNL     1      -9.455  11.565  65.551  1.00  0.00    -0.234 C  
HETATM    7  C   UNL     1     -10.911  12.061  65.531  1.00  0.00    -0.298 C  
BRANCH   7   8
HETATM    8  C   UNL     1     -11.695  11.619  66.787  1.00  0.00    -0.014 C  
BRANCH   8   9
HETATM    9  N   UNL     1     -10.955  10.716  67.662  1.00  0.00    -0.292 N  
HETATM   10  C   UNL     1     -11.082  10.757  69.039  1.00  0.00    -0.253 C  
HETATM   11  H   UNL     1     -10.324  10.032  67.245  1.00  0.00     0.000 HD 
HETATM   12  O   UNL     1     -11.811  11.555  69.612  1.00  0.00    -0.299 OA 
BRANCH  10  13
HETATM   13  C   UNL     1     -10.237   9.793  69.809  1.00  0.00    -0.271 A  
HETATM   14  C   UNL     1     -10.903   8.749  70.486  1.00  0.00    -0.268 A  
HETATM   15  C   UNL     1     -10.177   7.736  71.125  1.00  0.00    -0.195 A  
HETATM   16  C   UNL     1      -8.830   9.803  69.792  1.00  0.00    -0.224 A  
HETATM   17  C   UNL     1      -8.788   7.740  71.106  1.00  0.00    -0.143 A  
HETATM   18  C   UNL     1      -8.125   8.764  70.430  1.00  0.00    -0.118 A  
BRANCH  15  19
HETATM   19  S   UNL     1     -11.047   6.488  72.051  1.00  0.00    -0.272 S  
HETATM   20  O   UNL     1     -10.454   5.215  71.691  1.00  0.00    -0.210 OA 
HETATM   21  O   UNL     1     -12.463   6.727  71.857  1.00  0.00    -0.346 OA 
BRANCH  19  22
HETATM   22  C   UNL     1     -10.642   6.836  73.751  1.00  0.00    -0.295 C  
HETATM   23  C   UNL     1     -10.035   5.621  74.430  1.00  0.00    -0.262 C  
ENDBRANCH  19  22
ENDBRANCH  15  19
BRANCH  16  24
HETATM   24  O   UNL     1      -7.999  10.681  69.151  1.00  0.00    -0.129 OA 
HETATM   25  C   UNL     1      -7.122  10.143  68.168  1.00  0.00    -0.079 C  
ENDBRANCH  16  24
ENDBRANCH  10  13
ENDBRANCH   8   9
ENDBRANCH   7   8
ENDBRANCH   2   3
TORSDOF 7
ENDMDL
MODEL      151
REMARK 921   NORMALIZED FREE ENERGY PREDICTED BY IDOCK:   -4.42 KCAL/MOL
REMARK 922        TOTAL FREE ENERGY PREDICTED BY IDOCK:   -7.09 KCAL/MOL
REMARK 923 INTER-LIGAND FREE ENERGY PREDICTED BY IDOCK:   -5.93 KCAL/MOL
REMARK 924 INTRA-LIGAND FREE ENERGY PREDICTED BY IDOCK:   -1.16 KCAL/MOL
REMARK 927      BINDING AFFINITY PREDICTED BY RF-SCORE:    0.00 PKD
ROOT
HETATM    1  C   UNL     1      -9.790   4.441  66.136  1.00  0.00    -0.243 C  
HETATM    2  C   UNL     1      -8.953   5.456  65.366  1.00  0.00    -0.124 C  
ENDROOT
BRANCH   2   3
HETATM    3  N   UNL     1      -8.299   6.429  66.249  1.00  0.00    -0.118 NA 
HETATM    4  C   UNL     1      -7.203   5.844  67.025  1.00  0.00    -0.075 C  
HETATM    5  C   UNL     1      -6.452   7.068  67.503  1.00  0.00    -0.054 C  
HETATM    6  C   UNL     1      -6.489   7.997  66.302  1.00  0.00    -0.047 C  
HETATM    7  C   UNL     1      -7.732   7.575  65.497  1.00  0.00    -0.103 C  
BRANCH   7   8
HETATM    8  C   UNL     1      -8.761   8.721  65.370  1.00  0.00    -0.183 C  
BRANCH   8   9
HETATM    9  N   UNL     1      -9.596   8.903  66.552  1.00  0.00    -0.211 N  
HETATM   10  C   UNL     1      -9.624  10.092  67.258  1.00  0.00    -0.159 C  
HETATM   11  H   UNL     1     -10.180   8.128  66.867  1.00  0.00     0.000 HD 
HETATM   12  O   UNL     1      -8.946  11.062  66.946  1.00  0.00    -0.152 OA 
BRANCH  10  13
HETATM   13  C   UNL     1     -10.504  10.122  68.467  1.00  0.00    -0.221 A  
HETATM   14  C   UNL     1     -10.133   9.303  69.556  1.00  0.00    -0.205 A  
HETATM   15  C   UNL     1     -10.833   9.366  70.767  1.00  0.00    -0.305 A  
HETATM   16  C   UNL     1     -11.594  10.999  68.617  1.00  0.00    -0.316 A  
HETATM   17  C   UNL     1     -11.906  10.236  70.920  1.00  0.00    -0.473 A  
HETATM   18  C   UNL     1     -12.271  11.054  69.850  1.00  0.00    -0.408 A  
BRANCH  15  19
HETATM   19  S   UNL     1     -10.401   8.252  72.087  1.00  0.00    -0.328 S  
HETATM   20  O   UNL     1     -11.601   8.058  72.876  1.00  0.00    -0.397 OA 
HETATM   21  O   UNL     1      -9.190   8.767  72.695  1.00  0.00    -0.327 OA 
BRANCH  19  22
HETATM   22  C   UNL     1     -10.014   6.720  71.263  1.00  0.00    -0.176 C  
HETATM   23  C   UNL     1     -11.257   6.099  70.650  1.00  0.00    -0.387 C  
ENDBRANCH  19  22
ENDBRANCH  15  19
BRANCH  16  24
HETATM   24  O   UNL     1     -12.075  11.910  67.716  1.00  0.00    -0.564 OA 
HETATM   25  C   UNL     1     -11.868  13.286  68.013  1.00  0.00    -0.355 C  
ENDBRANCH  16  24
ENDBRANCH  10  13
ENDBRANCH   8   9
ENDBRANCH   7   8
ENDBRANCH   2   3
TORSDOF 7
ENDMDL
MODEL      152
REMARK 921   NORMALIZED FREE ENERGY PREDICTED BY IDOCK:   -4.41 KCAL/MOL
REMARK 922        TOTAL FREE ENERGY PREDICTED BY IDOCK:   -7.09 KCAL/MOL
REMARK 923 INTER-LIGAND FREE ENERGY PREDICTED BY IDOCK:   -5.99 KCAL/MOL
REMARK 924 INTRA-LIGAND FREE ENERGY PREDICTED BY IDOCK:   -1.10 KCAL/MOL
REMARK 927      BINDING AFFINITY PREDICTED BY RF-SCORE:    0.00 PKD
ROOT
HETATM    1  C   UNL     1      -7.724   7.585  65.610  1.00  0.00    -0.100 C  
HETATM    2  C   UNL     1      -8.659   6.462  66.045  1.00  0.00    -0.147 C  
ENDROOT
BRANCH   2   3
HETATM    3  N   UNL     1      -8.048   5.581  67.048  1.00  0.00    -0.102 NA 
HETATM    4  C   UNL     1      -7.105   4.624  66.463  1.00  0.00    -0.075 C  
HETATM    5  C   UNL     1      -6.329   4.151  67.672  1.00  0.00    -0.037 C  
HETATM    6  C   UNL     1      -6.145   5.416  68.492  1.00  0.00    -0.026 C  
HETATM    7  C   UNL     1      -7.305   6.341  68.083  1.00  0.00    -0.089 C  
BRANCH   7   8
HETATM    8  C   UNL     1      -8.219   6.692  69.278  1.00  0.00    -0.124 C  
BRANCH   8   9
HETATM    9  N   UNL     1      -8.832   8.013  69.189  1.00  0.00    -0.144 N  
HETATM   10  C   UNL     1     -10.174   8.183  68.899  1.00  0.00    -0.210 C  
HETATM   11  H   UNL     1      -8.253   8.837  69.346  1.00  0.00     0.000 HD 
HETATM   12  O   UNL     1     -10.930   7.244  68.690  1.00  0.00    -0.116 OA 
BRANCH  10  13
HETATM   13  C   UNL     1     -10.656   9.596  68.809  1.00  0.00    -0.242 A  
HETATM   14  C   UNL     1     -10.685  10.188  67.528  1.00  0.00    -0.347 A  
HETATM   15  C   UNL     1     -11.237  11.461  67.343  1.00  0.00    -0.305 A  
HETATM   16  C   UNL     1     -11.186  10.311  69.899  1.00  0.00    -0.299 A  
HETATM   17  C   UNL     1     -11.766  12.167  68.416  1.00  0.00    -0.388 A  
HETATM   18  C   UNL     1     -11.749  11.583  69.683  1.00  0.00    -0.419 A  
BRANCH  15  19
HETATM   19  S   UNL     1     -11.171  12.218  65.732  1.00  0.00    -0.350 S  
HETATM   20  O   UNL     1     -10.205  13.295  65.818  1.00  0.00    -0.284 OA 
HETATM   21  O   UNL     1     -12.539  12.481  65.331  1.00  0.00    -0.656 OA 
BRANCH  19  22
HETATM   22  C   UNL     1     -10.505  10.948  64.674  1.00  0.00    -0.314 C  
HETATM   23  C   UNL     1     -10.036  11.527  63.351  1.00  0.00    -0.454 C  
ENDBRANCH  19  22
ENDBRANCH  15  19
BRANCH  16  24
HETATM   24  O   UNL     1     -11.308   9.900  71.199  1.00  0.00    -0.357 OA 
HETATM   25  C   UNL     1     -12.620   9.609  71.666  1.00  0.00    -0.402 C  
ENDBRANCH  16  24
ENDBRANCH  10  13
ENDBRANCH   8   9
ENDBRANCH   7   8
ENDBRANCH   2   3
TORSDOF 7
ENDMDL
MODEL      153
REMARK 921   NORMALIZED FREE ENERGY PREDICTED BY IDOCK:   -4.41 KCAL/MOL
REMARK 922        TOTAL FREE ENERGY PREDICTED BY IDOCK:   -7.09 KCAL/MOL
REMARK 923 INTER-LIGAND FREE ENERGY PREDICTED BY IDOCK:   -6.35 KCAL/MOL
REMARK 924 INTRA-LIGAND FREE ENERGY PREDICTED BY IDOCK:   -0.74 KCAL/MOL
REMARK 927      BINDING AFFINITY PREDICTED BY RF-SCORE:    0.00 PKD
ROOT
HETATM    1  C   UNL     1     -12.532  13.773  66.431  1.00  0.00    -0.404 C  
HETATM    2  C   UNL     1     -11.181  13.322  65.886  1.00  0.00    -0.290 C  
ENDROOT
BRANCH   2   3
HETATM    3  N   UNL     1     -11.045  11.861  65.865  1.00  0.00    -0.312 NA 
HETATM    4  C   UNL     1     -10.222  11.384  64.750  1.00  0.00    -0.286 C  
HETATM    5  C   UNL     1      -9.890   9.970  65.172  1.00  0.00    -0.388 C  
HETATM    6  C   UNL     1      -9.638  10.095  66.665  1.00  0.00    -0.230 C  
HETATM    7  C   UNL     1     -10.430  11.338  67.109  1.00  0.00    -0.222 C  
BRANCH   7   8
HETATM    8  C   UNL     1     -11.509  10.996  68.161  1.00  0.00    -0.302 C  
BRANCH   8   9
HETATM    9  N   UNL     1     -11.386   9.657  68.725  1.00  0.00    -0.473 N  
HETATM   10  C   UNL     1     -11.234   9.441  70.083  1.00  0.00    -0.219 C  
HETATM   11  H   UNL     1     -11.414   8.853  68.098  1.00  0.00     0.000 HD 
HETATM   12  O   UNL     1     -11.183  10.354  70.896  1.00  0.00    -0.311 OA 
BRANCH  10  13
HETATM   13  C   UNL     1     -11.088   8.017  70.513  1.00  0.00    -0.251 A  
HETATM   14  C   UNL     1     -10.050   7.265  69.920  1.00  0.00    -0.196 A  
HETATM   15  C   UNL     1      -9.771   5.965  70.357  1.00  0.00    -0.174 A  
HETATM   16  C   UNL     1     -11.842   7.433  71.548  1.00  0.00    -0.297 A  
HETATM   17  C   UNL     1     -10.510   5.389  71.383  1.00  0.00    -0.294 A  
HETATM   18  C   UNL     1     -11.530   6.129  71.979  1.00  0.00    -0.366 A  
BRANCH  15  19
HETATM   19  S   UNL     1      -8.519   5.011  69.523  1.00  0.00    -0.088 S  
HETATM   20  O   UNL     1      -8.136   3.946  70.428  1.00  0.00    -0.053 OA 
HETATM   21  O   UNL     1      -7.534   5.951  69.025  1.00  0.00    -0.081 OA 
BRANCH  19  22
HETATM   22  C   UNL     1      -9.367   4.290  68.131  1.00  0.00    -0.152 C  
HETATM   23  C   UNL     1      -9.407   2.776  68.239  1.00  0.00    -0.258 C  
ENDBRANCH  19  22
ENDBRANCH  15  19
BRANCH  16  24
HETATM   24  O   UNL     1     -12.842   8.002  72.289  1.00  0.00    -0.273 OA 
HETATM   25  C   UNL     1     -14.159   7.946  71.752  1.00  0.00    -0.428 C  
ENDBRANCH  16  24
ENDBRANCH  10  13
ENDBRANCH   8   9
ENDBRANCH   7   8
ENDBRANCH   2   3
TORSDOF 7
ENDMDL
MODEL      154
REMARK 921   NORMALIZED FREE ENERGY PREDICTED BY IDOCK:   -4.40 KCAL/MOL
REMARK 922        TOTAL FREE ENERGY PREDICTED BY IDOCK:   -7.07 KCAL/MOL
REMARK 923 INTER-LIGAND FREE ENERGY PREDICTED BY IDOCK:   -6.14 KCAL/MOL
REMARK 924 INTRA-LIGAND FREE ENERGY PREDICTED BY IDOCK:   -0.93 KCAL/MOL
REMARK 927      BINDING AFFINITY PREDICTED BY RF-SCORE:    0.00 PKD
ROOT
HETATM    1  C   UNL     1     -10.155   5.405  69.795  1.00  0.00    -0.319 C  
HETATM    2  C   UNL     1     -11.350   6.313  69.522  1.00  0.00    -0.404 C  
ENDROOT
BRANCH   2   3
HETATM    3  N   UNL     1     -11.376   7.486  70.404  1.00  0.00    -0.263 NA 
HETATM    4  C   UNL     1     -12.369   7.367  71.475  1.00  0.00    -0.353 C  
HETATM    5  C   UNL     1     -11.928   8.439  72.448  1.00  0.00    -0.451 C  
HETATM    6  C   UNL     1     -10.413   8.335  72.426  1.00  0.00    -0.404 C  
HETATM    7  C   UNL     1     -10.065   7.725  71.057  1.00  0.00    -0.185 C  
BRANCH   7   8
HETATM    8  C   UNL     1      -9.185   8.667  70.205  1.00  0.00    -0.166 C  
BRANCH   8   9
HETATM    9  N   UNL     1      -9.926   9.733  69.540  1.00  0.00    -0.200 N  
HETATM   10  C   UNL     1      -9.297  10.840  68.997  1.00  0.00    -0.156 C  
HETATM   11  H   UNL     1     -10.941   9.660  69.471  1.00  0.00     0.000 HD 
HETATM   12  O   UNL     1      -8.085  11.001  69.048  1.00  0.00    -0.145 OA 
BRANCH  10  13
HETATM   13  C   UNL     1     -10.187  11.866  68.375  1.00  0.00    -0.205 A  
HETATM   14  C   UNL     1     -10.176  13.160  68.940  1.00  0.00    -0.021 A  
HETATM   15  C   UNL     1     -10.886  14.207  68.340  1.00  0.00    -0.254 A  
HETATM   16  C   UNL     1     -10.931  11.645  67.201  1.00  0.00    -0.280 A  
HETATM   17  C   UNL     1     -11.616  13.992  67.178  1.00  0.00    -0.397 A  
HETATM   18  C   UNL     1     -11.624  12.718  66.610  1.00  0.00    -0.430 A  
BRANCH  15  19
HETATM   19  S   UNL     1     -10.928  15.802  69.131  1.00  0.00    -0.290 S  
HETATM   20  O   UNL     1     -10.456  15.605  70.487  1.00  0.00    -0.290 OA 
HETATM   21  O   UNL     1     -12.240  16.365  68.879  1.00  0.00     0.112 OA 
BRANCH  19  22
HETATM   22  C   UNL     1      -9.718  16.766  68.248  1.00  0.00    -0.252 C  
HETATM   23  C   UNL     1     -10.385  17.745  67.297  1.00  0.00    -0.364 C  
ENDBRANCH  19  22
ENDBRANCH  15  19
BRANCH  16  24
HETATM   24  O   UNL     1     -11.028  10.494  66.467  1.00  0.00    -0.125 OA 
HETATM   25  C   UNL     1     -10.036  10.275  65.471  1.00  0.00    -0.296 C  
ENDBRANCH  16  24
ENDBRANCH  10  13
ENDBRANCH   8   9
ENDBRANCH   7   8
ENDBRANCH   2   3
TORSDOF 7
ENDMDL
MODEL      155
REMARK 921   NORMALIZED FREE ENERGY PREDICTED BY IDOCK:   -4.39 KCAL/MOL
REMARK 922        TOTAL FREE ENERGY PREDICTED BY IDOCK:   -7.06 KCAL/MOL
REMARK 923 INTER-LIGAND FREE ENERGY PREDICTED BY IDOCK:   -6.06 KCAL/MOL
REMARK 924 INTRA-LIGAND FREE ENERGY PREDICTED BY IDOCK:   -1.00 KCAL/MOL
REMARK 927      BINDING AFFINITY PREDICTED BY RF-SCORE:    0.00 PKD
ROOT
HETATM    1  C   UNL     1     -13.050  15.361  71.342  1.00  0.00    -0.563 C  
HETATM    2  C   UNL     1     -12.596  14.141  70.548  1.00  0.00    -0.342 C  
ENDROOT
BRANCH   2   3
HETATM    3  N   UNL     1     -12.038  14.500  69.239  1.00  0.00    -0.313 NA 
HETATM    4  C   UNL     1     -11.305  15.769  69.263  1.00  0.00    -0.350 C  
HETATM    5  C   UNL     1     -10.504  15.708  67.981  1.00  0.00    -0.263 C  
HETATM    6  C   UNL     1     -10.059  14.257  67.911  1.00  0.00    -0.233 C  
HETATM    7  C   UNL     1     -11.099  13.470  68.728  1.00  0.00    -0.264 C  
BRANCH   7   8
HETATM    8  C   UNL     1     -11.840  12.419  67.872  1.00  0.00    -0.308 C  
BRANCH   8   9
HETATM    9  N   UNL     1     -11.611  11.042  68.292  1.00  0.00    -0.301 N  
HETATM   10  C   UNL     1     -10.861  10.157  67.539  1.00  0.00    -0.290 C  
HETATM   11  H   UNL     1     -12.018  10.720  69.171  1.00  0.00     0.000 HD 
HETATM   12  O   UNL     1     -10.349  10.467  66.472  1.00  0.00    -0.234 OA 
BRANCH  10  13
HETATM   13  C   UNL     1     -10.738   8.768  68.079  1.00  0.00    -0.151 A  
HETATM   14  C   UNL     1     -10.339   7.757  67.179  1.00  0.00    -0.389 A  
HETATM   15  C   UNL     1     -10.083   6.457  67.633  1.00  0.00    -0.151 A  
HETATM   16  C   UNL     1     -10.880   8.446  69.442  1.00  0.00    -0.082 A  
HETATM   17  C   UNL     1     -10.216   6.138  68.978  1.00  0.00    -0.237 A  
HETATM   18  C   UNL     1     -10.601   7.136  69.874  1.00  0.00    -0.246 A  
BRANCH  15  19
HETATM   19  S   UNL     1      -9.676   5.184  66.456  1.00  0.00    -0.191 S  
HETATM   20  O   UNL     1     -10.917   4.801  65.812  1.00  0.00    -0.255 OA 
HETATM   21  O   UNL     1      -8.871   4.203  67.157  1.00  0.00    -0.108 OA 
BRANCH  19  22
HETATM   22  C   UNL     1      -8.648   6.005  65.254  1.00  0.00    -0.099 C  
HETATM   23  C   UNL     1      -7.195   6.023  65.697  1.00  0.00    -0.074 C  
ENDBRANCH  19  22
ENDBRANCH  15  19
BRANCH  16  24
HETATM   24  O   UNL     1     -11.196   9.281  70.479  1.00  0.00    -0.246 OA 
HETATM   25  C   UNL     1     -10.806   8.870  71.784  1.00  0.00    -0.365 C  
ENDBRANCH  16  24
ENDBRANCH  10  13
ENDBRANCH   8   9
ENDBRANCH   7   8
ENDBRANCH   2   3
TORSDOF 7
ENDMDL
MODEL      156
REMARK 921   NORMALIZED FREE ENERGY PREDICTED BY IDOCK:   -4.39 KCAL/MOL
REMARK 922        TOTAL FREE ENERGY PREDICTED BY IDOCK:   -7.06 KCAL/MOL
REMARK 923 INTER-LIGAND FREE ENERGY PREDICTED BY IDOCK:   -6.21 KCAL/MOL
REMARK 924 INTRA-LIGAND FREE ENERGY PREDICTED BY IDOCK:   -0.85 KCAL/MOL
REMARK 927      BINDING AFFINITY PREDICTED BY RF-SCORE:    0.00 PKD
ROOT
HETATM    1  C   UNL     1      -6.448  19.047  65.269  1.00  0.00    -0.301 C  
HETATM    2  C   UNL     1      -6.791  19.281  66.737  1.00  0.00    -0.198 C  
ENDROOT
BRANCH   2   3
HETATM    3  N   UNL     1      -8.208  19.031  67.028  1.00  0.00    -0.265 NA 
HETATM    4  C   UNL     1      -9.107  19.875  66.236  1.00  0.00    -0.360 C  
HETATM    5  C   UNL     1     -10.436  19.167  66.389  1.00  0.00    -0.548 C  
HETATM    6  C   UNL     1     -10.064  17.696  66.315  1.00  0.00    -0.344 C  
HETATM    7  C   UNL     1      -8.594  17.623  66.765  1.00  0.00    -0.255 C  
BRANCH   7   8
HETATM    8  C   UNL     1      -8.413  16.752  68.028  1.00  0.00    -0.205 C  
BRANCH   8   9
HETATM    9  N   UNL     1      -9.111  15.473  67.973  1.00  0.00    -0.181 N  
HETATM   10  C   UNL     1      -9.912  15.025  69.009  1.00  0.00    -0.246 C  
HETATM   11  H   UNL     1      -9.006  14.889  67.143  1.00  0.00     0.000 HD 
HETATM   12  O   UNL     1     -10.079  15.665  70.038  1.00  0.00    -0.293 OA 
BRANCH  10  13
HETATM   13  C   UNL     1     -10.538  13.680  68.826  1.00  0.00    -0.247 A  
HETATM   14  C   UNL     1      -9.766  12.691  68.179  1.00  0.00    -0.219 A  
HETATM   15  C   UNL     1     -10.232  11.374  68.079  1.00  0.00    -0.185 A  
HETATM   16  C   UNL     1     -11.788  13.322  69.364  1.00  0.00    -0.329 A  
HETATM   17  C   UNL     1     -11.464  11.017  68.614  1.00  0.00    -0.375 A  
HETATM   18  C   UNL     1     -12.227  11.988  69.263  1.00  0.00    -0.135 A  
BRANCH  15  19
HETATM   19  S   UNL     1      -9.278  10.175  67.173  1.00  0.00    -0.138 S  
HETATM   20  O   UNL     1      -8.124  10.875  66.646  1.00  0.00    -0.135 OA 
HETATM   21  O   UNL     1     -10.196   9.487  66.286  1.00  0.00    -0.271 OA 
BRANCH  19  22
HETATM   22  C   UNL     1      -8.721   9.024  68.414  1.00  0.00    -0.130 C  
HETATM   23  C   UNL     1      -8.124   9.752  69.607  1.00  0.00    -0.158 C  
ENDBRANCH  19  22
ENDBRANCH  15  19
BRANCH  16  24
HETATM   24  O   UNL     1     -12.658  14.105  70.073  1.00  0.00    -0.332 OA 
HETATM   25  C   UNL     1     -12.924  13.723  71.418  1.00  0.00    -0.355 C  
ENDBRANCH  16  24
ENDBRANCH  10  13
ENDBRANCH   8   9
ENDBRANCH   7   8
ENDBRANCH   2   3
TORSDOF 7
ENDMDL
MODEL      157
REMARK 921   NORMALIZED FREE ENERGY PREDICTED BY IDOCK:   -4.38 KCAL/MOL
REMARK 922        TOTAL FREE ENERGY PREDICTED BY IDOCK:   -7.04 KCAL/MOL
REMARK 923 INTER-LIGAND FREE ENERGY PREDICTED BY IDOCK:   -5.86 KCAL/MOL
REMARK 924 INTRA-LIGAND FREE ENERGY PREDICTED BY IDOCK:   -1.18 KCAL/MOL
REMARK 927      BINDING AFFINITY PREDICTED BY RF-SCORE:    0.00 PKD
ROOT
HETATM    1  C   UNL     1      -8.997   7.483  67.717  1.00  0.00    -0.131 C  
HETATM    2  C   UNL     1      -9.408   8.106  66.387  1.00  0.00    -0.210 C  
ENDROOT
BRANCH   2   3
HETATM    3  N   UNL     1      -8.344   8.026  65.378  1.00  0.00    -0.150 NA 
HETATM    4  C   UNL     1      -8.150   6.667  64.865  1.00  0.00    -0.115 C  
HETATM    5  C   UNL     1      -7.352   6.906  63.602  1.00  0.00    -0.077 C  
HETATM    6  C   UNL     1      -7.987   8.154  63.013  1.00  0.00    -0.154 C  
HETATM    7  C   UNL     1      -8.617   8.894  64.206  1.00  0.00    -0.109 C  
BRANCH   7   8
HETATM    8  C   UNL     1      -8.012  10.302  64.405  1.00  0.00    -0.135 C  
BRANCH   8   9
HETATM    9  N   UNL     1      -8.977  11.308  64.835  1.00  0.00    -0.381 N  
HETATM   10  C   UNL     1      -9.007  11.792  66.131  1.00  0.00    -0.145 C  
HETATM   11  H   UNL     1      -9.651  11.666  64.158  1.00  0.00     0.000 HD 
HETATM   12  O   UNL     1      -8.237  11.405  66.999  1.00  0.00    -0.146 OA 
BRANCH  10  13
HETATM   13  C   UNL     1     -10.071  12.797  66.435  1.00  0.00    -0.266 A  
HETATM   14  C   UNL     1      -9.773  13.781  67.402  1.00  0.00    -0.235 A  
HETATM   15  C   UNL     1     -10.668  14.829  67.654  1.00  0.00    -0.270 A  
HETATM   16  C   UNL     1     -11.287  12.884  65.731  1.00  0.00    -0.315 A  
HETATM   17  C   UNL     1     -11.866  14.920  66.956  1.00  0.00    -0.216 A  
HETATM   18  C   UNL     1     -12.161  13.956  65.992  1.00  0.00    -0.495 A  
BRANCH  15  19
HETATM   19  S   UNL     1     -10.305  15.997  68.948  1.00  0.00    -0.252 S  
HETATM   20  O   UNL     1      -9.023  15.615  69.505  1.00  0.00    -0.271 OA 
HETATM   21  O   UNL     1     -11.484  16.078  69.788  1.00  0.00    -0.318 OA 
BRANCH  19  22
HETATM   22  C   UNL     1     -10.108  17.551  68.098  1.00  0.00    -0.341 C  
HETATM   23  C   UNL     1      -8.955  17.493  67.111  1.00  0.00    -0.245 C  
ENDBRANCH  19  22
ENDBRANCH  15  19
BRANCH  16  24
HETATM   24  O   UNL     1     -11.738  12.076  64.722  1.00  0.00    -0.333 OA 
HETATM   25  C   UNL     1     -12.189  12.715  63.533  1.00  0.00    -0.547 C  
ENDBRANCH  16  24
ENDBRANCH  10  13
ENDBRANCH   8   9
ENDBRANCH   7   8
ENDBRANCH   2   3
TORSDOF 7
ENDMDL
MODEL      158
REMARK 921   NORMALIZED FREE ENERGY PREDICTED BY IDOCK:   -4.38 KCAL/MOL
REMARK 922        TOTAL FREE ENERGY PREDICTED BY IDOCK:   -7.03 KCAL/MOL
REMARK 923 INTER-LIGAND FREE ENERGY PREDICTED BY IDOCK:   -6.44 KCAL/MOL
REMARK 924 INTRA-LIGAND FREE ENERGY PREDICTED BY IDOCK:   -0.60 KCAL/MOL
REMARK 927      BINDING AFFINITY PREDICTED BY RF-SCORE:    0.00 PKD
ROOT
HETATM    1  C   UNL     1     -11.945  14.072  67.285  1.00  0.00    -0.448 C  
HETATM    2  C   UNL     1     -11.769  12.566  67.123  1.00  0.00    -0.355 C  
ENDROOT
BRANCH   2   3
HETATM    3  N   UNL     1     -11.884  12.136  65.724  1.00  0.00    -0.513 NA 
HETATM    4  C   UNL     1     -12.462  13.167  64.859  1.00  0.00    -0.433 C  
HETATM    5  C   UNL     1     -12.095  12.676  63.476  1.00  0.00    -0.648 C  
HETATM    6  C   UNL     1     -10.682  12.146  63.652  1.00  0.00    -0.518 C  
HETATM    7  C   UNL     1     -10.569  11.771  65.140  1.00  0.00    -0.283 C  
BRANCH   7   8
HETATM    8  C   UNL     1     -10.270  10.269  65.342  1.00  0.00    -0.242 C  
BRANCH   8   9
HETATM    9  N   UNL     1     -10.150   9.869  66.740  1.00  0.00    -0.218 N  
HETATM   10  C   UNL     1      -8.966   9.390  67.271  1.00  0.00    -0.130 C  
HETATM   11  H   UNL     1     -10.967   9.945  67.346  1.00  0.00     0.000 HD 
HETATM   12  O   UNL     1      -7.947   9.262  66.604  1.00  0.00    -0.106 OA 
BRANCH  10  13
HETATM   13  C   UNL     1      -9.001   8.989  68.710  1.00  0.00    -0.137 A  
HETATM   14  C   UNL     1      -9.747   7.836  69.041  1.00  0.00    -0.157 A  
HETATM   15  C   UNL     1      -9.729   7.325  70.345  1.00  0.00    -0.172 A  
HETATM   16  C   UNL     1      -8.245   9.619  69.715  1.00  0.00    -0.161 A  
HETATM   17  C   UNL     1      -8.978   7.943  71.337  1.00  0.00    -0.161 A  
HETATM   18  C   UNL     1      -8.232   9.076  71.014  1.00  0.00    -0.220 A  
BRANCH  15  19
HETATM   19  S   UNL     1     -10.757   5.928  70.750  1.00  0.00    -0.276 S  
HETATM   20  O   UNL     1     -10.545   4.941  69.710  1.00  0.00    -0.152 OA 
HETATM   21  O   UNL     1     -12.084   6.444  71.023  1.00  0.00    -0.300 OA 
BRANCH  19  22
HETATM   22  C   UNL     1     -10.069   5.301  72.270  1.00  0.00    -0.189 C  
HETATM   23  C   UNL     1     -11.093   5.339  73.391  1.00  0.00    -0.362 C  
ENDBRANCH  19  22
ENDBRANCH  15  19
BRANCH  16  24
HETATM   24  O   UNL     1      -7.415  10.701  69.594  1.00  0.00    -0.150 OA 
HETATM   25  C   UNL     1      -6.086  10.555  70.081  1.00  0.00    -0.105 C  
ENDBRANCH  16  24
ENDBRANCH  10  13
ENDBRANCH   8   9
ENDBRANCH   7   8
ENDBRANCH   2   3
TORSDOF 7
ENDMDL
MODEL      159
REMARK 921   NORMALIZED FREE ENERGY PREDICTED BY IDOCK:   -4.37 KCAL/MOL
REMARK 922        TOTAL FREE ENERGY PREDICTED BY IDOCK:   -7.03 KCAL/MOL
REMARK 923 INTER-LIGAND FREE ENERGY PREDICTED BY IDOCK:   -6.16 KCAL/MOL
REMARK 924 INTRA-LIGAND FREE ENERGY PREDICTED BY IDOCK:   -0.87 KCAL/MOL
REMARK 927      BINDING AFFINITY PREDICTED BY RF-SCORE:    0.00 PKD
ROOT
HETATM    1  C   UNL     1      -7.567  13.229  67.432  1.00  0.00    -0.137 C  
HETATM    2  C   UNL     1      -8.698  12.214  67.295  1.00  0.00    -0.182 C  
ENDROOT
BRANCH   2   3
HETATM    3  N   UNL     1     -10.005  12.853  67.101  1.00  0.00    -0.236 NA 
HETATM    4  C   UNL     1      -9.972  13.915  66.091  1.00  0.00    -0.310 C  
HETATM    5  C   UNL     1     -11.439  14.111  65.777  1.00  0.00    -0.327 C  
HETATM    6  C   UNL     1     -11.992  12.697  65.774  1.00  0.00    -0.503 C  
HETATM    7  C   UNL     1     -11.044  11.885  66.674  1.00  0.00    -0.310 C  
BRANCH   7   8
HETATM    8  C   UNL     1     -11.774  11.280  67.894  1.00  0.00    -0.214 C  
BRANCH   8   9
HETATM    9  N   UNL     1     -11.298   9.955  68.275  1.00  0.00    -0.530 N  
HETATM   10  C   UNL     1     -11.031   9.618  69.590  1.00  0.00    -0.229 C  
HETATM   11  H   UNL     1     -11.157   9.253  67.548  1.00  0.00     0.000 HD 
HETATM   12  O   UNL     1     -11.168  10.408  70.515  1.00  0.00    -0.312 OA 
BRANCH  10  13
HETATM   13  C   UNL     1     -10.518   8.234  69.826  1.00  0.00    -0.220 A  
HETATM   14  C   UNL     1     -10.109   7.911  71.138  1.00  0.00    -0.210 A  
HETATM   15  C   UNL     1      -9.734   6.603  71.468  1.00  0.00    -0.164 A  
HETATM   16  C   UNL     1     -10.536   7.218  68.852  1.00  0.00    -0.206 A  
HETATM   17  C   UNL     1      -9.756   5.598  70.509  1.00  0.00    -0.233 A  
HETATM   18  C   UNL     1     -10.169   5.908  69.213  1.00  0.00    -0.275 A  
BRANCH  15  19
HETATM   19  S   UNL     1      -9.132   6.252  73.107  1.00  0.00    -0.128 S  
HETATM   20  O   UNL     1      -9.716   7.246  73.985  1.00  0.00    -0.280 OA 
HETATM   21  O   UNL     1      -7.693   6.105  73.006  1.00  0.00    -0.100 OA 
BRANCH  19  22
HETATM   22  C   UNL     1      -9.836   4.664  73.505  1.00  0.00    -0.140 C  
HETATM   23  C   UNL     1     -11.353   4.703  73.427  1.00  0.00    -0.394 C  
ENDBRANCH  19  22
ENDBRANCH  15  19
BRANCH  16  24
HETATM   24  O   UNL     1     -10.949   7.304  67.550  1.00  0.00    -0.226 OA 
HETATM   25  C   UNL     1     -10.725   6.168  66.723  1.00  0.00    -0.299 C  
ENDBRANCH  16  24
ENDBRANCH  10  13
ENDBRANCH   8   9
ENDBRANCH   7   8
ENDBRANCH   2   3
TORSDOF 7
ENDMDL
MODEL      160
REMARK 921   NORMALIZED FREE ENERGY PREDICTED BY IDOCK:   -4.37 KCAL/MOL
REMARK 922        TOTAL FREE ENERGY PREDICTED BY IDOCK:   -7.03 KCAL/MOL
REMARK 923 INTER-LIGAND FREE ENERGY PREDICTED BY IDOCK:   -6.06 KCAL/MOL
REMARK 924 INTRA-LIGAND FREE ENERGY PREDICTED BY IDOCK:   -0.97 KCAL/MOL
REMARK 927      BINDING AFFINITY PREDICTED BY RF-SCORE:    0.00 PKD
ROOT
HETATM    1  C   UNL     1     -12.534  11.851  63.423  1.00  0.00    -0.582 C  
HETATM    2  C   UNL     1     -11.098  12.364  63.458  1.00  0.00    -0.458 C  
ENDROOT
BRANCH   2   3
HETATM    3  N   UNL     1     -10.826  13.189  64.641  1.00  0.00    -0.345 NA 
HETATM    4  C   UNL     1     -11.664  14.390  64.700  1.00  0.00    -0.430 C  
HETATM    5  C   UNL     1     -11.513  14.822  66.141  1.00  0.00    -0.311 C  
HETATM    6  C   UNL     1     -11.528  13.511  66.908  1.00  0.00    -0.374 C  
HETATM    7  C   UNL     1     -11.048  12.446  65.905  1.00  0.00    -0.313 C  
BRANCH   7   8
HETATM    8  C   UNL     1      -9.752  11.747  66.374  1.00  0.00    -0.214 C  
BRANCH   8   9
HETATM    9  N   UNL     1      -9.906  10.968  67.597  1.00  0.00    -0.171 N  
HETATM   10  C   UNL     1      -8.910  10.898  68.556  1.00  0.00    -0.153 C  
HETATM   11  H   UNL     1     -10.776  10.458  67.751  1.00  0.00     0.000 HD 
HETATM   12  O   UNL     1      -7.837  11.475  68.437  1.00  0.00    -0.122 OA 
BRANCH  10  13
HETATM   13  C   UNL     1      -9.196  10.035  69.742  1.00  0.00    -0.227 A  
HETATM   14  C   UNL     1      -8.135   9.248  70.240  1.00  0.00    -0.165 A  
HETATM   15  C   UNL     1      -8.286   8.509  71.420  1.00  0.00    -0.161 A  
HETATM   16  C   UNL     1     -10.412  10.059  70.450  1.00  0.00    -0.240 A  
HETATM   17  C   UNL     1      -9.484   8.536  72.123  1.00  0.00    -0.375 A  
HETATM   18  C   UNL     1     -10.533   9.319  71.641  1.00  0.00    -0.328 A  
BRANCH  15  19
HETATM   19  S   UNL     1      -6.961   7.452  71.966  1.00  0.00    -0.064 S  
HETATM   20  O   UNL     1      -5.943   8.319  72.527  1.00  0.00    -0.050 OA 
HETATM   21  O   UNL     1      -6.650   6.561  70.866  1.00  0.00    -0.050 OA 
BRANCH  19  22
HETATM   22  C   UNL     1      -7.676   6.494  73.287  1.00  0.00    -0.092 C  
HETATM   23  C   UNL     1      -8.373   5.256  72.751  1.00  0.00    -0.113 C  
ENDBRANCH  19  22
ENDBRANCH  15  19
BRANCH  16  24
HETATM   24  O   UNL     1     -11.535  10.793  70.176  1.00  0.00    -0.289 OA 
HETATM   25  C   UNL     1     -12.557  10.807  71.165  1.00  0.00    -0.428 C  
ENDBRANCH  16  24
ENDBRANCH  10  13
ENDBRANCH   8   9
ENDBRANCH   7   8
ENDBRANCH   2   3
TORSDOF 7
ENDMDL
MODEL      161
REMARK 921   NORMALIZED FREE ENERGY PREDICTED BY IDOCK:   -4.35 KCAL/MOL
REMARK 922        TOTAL FREE ENERGY PREDICTED BY IDOCK:   -6.99 KCAL/MOL
REMARK 923 INTER-LIGAND FREE ENERGY PREDICTED BY IDOCK:   -6.26 KCAL/MOL
REMARK 924 INTRA-LIGAND FREE ENERGY PREDICTED BY IDOCK:   -0.73 KCAL/MOL
REMARK 927      BINDING AFFINITY PREDICTED BY RF-SCORE:    0.00 PKD
ROOT
HETATM    1  C   UNL     1     -12.427  15.104  71.020  1.00  0.00    -0.419 C  
HETATM    2  C   UNL     1     -12.347  13.920  70.061  1.00  0.00    -0.316 C  
ENDROOT
BRANCH   2   3
HETATM    3  N   UNL     1     -11.957  14.323  68.704  1.00  0.00    -0.332 NA 
HETATM    4  C   UNL     1     -11.492  15.711  68.637  1.00  0.00    -0.375 C  
HETATM    5  C   UNL     1     -10.779  15.751  67.303  1.00  0.00    -0.313 C  
HETATM    6  C   UNL     1     -10.059  14.414  67.246  1.00  0.00    -0.251 C  
HETATM    7  C   UNL     1     -10.867  13.476  68.160  1.00  0.00    -0.254 C  
BRANCH   7   8
HETATM    8  C   UNL     1     -11.437  12.263  67.393  1.00  0.00    -0.352 C  
BRANCH   8   9
HETATM    9  N   UNL     1     -11.241  10.985  68.069  1.00  0.00    -0.286 N  
HETATM   10  C   UNL     1     -10.049  10.287  67.993  1.00  0.00    -0.162 C  
HETATM   11  H   UNL     1     -12.007  10.594  68.617  1.00  0.00     0.000 HD 
HETATM   12  O   UNL     1      -9.089  10.688  67.348  1.00  0.00    -0.139 OA 
BRANCH  10  13
HETATM   13  C   UNL     1     -10.004   8.977  68.711  1.00  0.00    -0.194 A  
HETATM   14  C   UNL     1     -10.839   8.830  69.841  1.00  0.00    -0.211 A  
HETATM   15  C   UNL     1     -10.947   7.596  70.493  1.00  0.00    -0.249 A  
HETATM   16  C   UNL     1      -9.277   7.861  68.255  1.00  0.00    -0.137 A  
HETATM   17  C   UNL     1     -10.234   6.492  70.041  1.00  0.00    -0.219 A  
HETATM   18  C   UNL     1      -9.415   6.628  68.920  1.00  0.00    -0.130 A  
BRANCH  15  19
HETATM   19  S   UNL     1     -11.932   7.471  71.971  1.00  0.00    -0.289 S  
HETATM   20  O   UNL     1     -11.199   8.154  73.018  1.00  0.00    -0.338 OA 
HETATM   21  O   UNL     1     -12.303   6.077  72.115  1.00  0.00    -0.254 OA 
BRANCH  19  22
HETATM   22  C   UNL     1     -13.400   8.412  71.604  1.00  0.00    -0.338 C  
HETATM   23  C   UNL     1     -13.377   9.759  72.307  1.00  0.00    -0.472 C  
ENDBRANCH  19  22
ENDBRANCH  15  19
BRANCH  16  24
HETATM   24  O   UNL     1      -8.465   7.774  67.157  1.00  0.00    -0.122 OA 
HETATM   25  C   UNL     1      -8.988   7.100  66.018  1.00  0.00    -0.111 C  
ENDBRANCH  16  24
ENDBRANCH  10  13
ENDBRANCH   8   9
ENDBRANCH   7   8
ENDBRANCH   2   3
TORSDOF 7
ENDMDL
MODEL      162
REMARK 921   NORMALIZED FREE ENERGY PREDICTED BY IDOCK:   -4.33 KCAL/MOL
REMARK 922        TOTAL FREE ENERGY PREDICTED BY IDOCK:   -6.98 KCAL/MOL
REMARK 923 INTER-LIGAND FREE ENERGY PREDICTED BY IDOCK:   -6.15 KCAL/MOL
REMARK 924 INTRA-LIGAND FREE ENERGY PREDICTED BY IDOCK:   -0.83 KCAL/MOL
REMARK 927      BINDING AFFINITY PREDICTED BY RF-SCORE:    0.00 PKD
ROOT
HETATM    1  C   UNL     1     -12.790   8.545  72.365  1.00  0.00    -0.373 C  
HETATM    2  C   UNL     1     -11.566   9.194  71.727  1.00  0.00    -0.387 C  
ENDROOT
BRANCH   2   3
HETATM    3  N   UNL     1     -10.484   8.233  71.486  1.00  0.00    -0.215 NA 
HETATM    4  C   UNL     1      -9.565   8.115  72.621  1.00  0.00    -0.282 C  
HETATM    5  C   UNL     1      -8.836   6.825  72.318  1.00  0.00    -0.135 C  
HETATM    6  C   UNL     1      -9.928   5.921  71.773  1.00  0.00    -0.200 C  
HETATM    7  C   UNL     1     -10.998   6.870  71.204  1.00  0.00    -0.251 C  
BRANCH   7   8
HETATM    8  C   UNL     1     -11.217   6.660  69.689  1.00  0.00    -0.340 C  
BRANCH   8   9
HETATM    9  N   UNL     1     -10.692   7.738  68.858  1.00  0.00    -0.387 N  
HETATM   10  C   UNL     1     -10.760   7.703  67.477  1.00  0.00    -0.209 C  
HETATM   11  H   UNL     1     -10.262   8.545  69.311  1.00  0.00     0.000 HD 
HETATM   12  O   UNL     1     -11.253   6.766  66.864  1.00  0.00    -0.375 OA 
BRANCH  10  13
HETATM   13  C   UNL     1     -10.152   8.863  66.756  1.00  0.00    -0.350 A  
HETATM   14  C   UNL     1     -10.601  10.153  67.114  1.00  0.00    -0.308 A  
HETATM   15  C   UNL     1      -9.995  11.295  66.576  1.00  0.00    -0.212 A  
HETATM   16  C   UNL     1      -9.088   8.745  65.843  1.00  0.00    -0.218 A  
HETATM   17  C   UNL     1      -8.941  11.180  65.678  1.00  0.00    -0.195 A  
HETATM   18  C   UNL     1      -8.487   9.909  65.328  1.00  0.00    -0.158 A  
BRANCH  15  19
HETATM   19  S   UNL     1     -10.649  12.903  66.974  1.00  0.00    -0.254 S  
HETATM   20  O   UNL     1      -9.652  13.566  67.790  1.00  0.00    -0.206 OA 
HETATM   21  O   UNL     1     -11.996  12.700  67.470  1.00  0.00    -0.382 OA 
BRANCH  19  22
HETATM   22  C   UNL     1     -10.744  13.743  65.405  1.00  0.00    -0.317 C  
HETATM   23  C   UNL     1      -9.704  14.846  65.311  1.00  0.00    -0.126 C  
ENDBRANCH  19  22
ENDBRANCH  15  19
BRANCH  16  24
HETATM   24  O   UNL     1      -8.469   7.603  65.412  1.00  0.00    -0.138 OA 
HETATM   25  C   UNL     1      -7.676   7.701  64.234  1.00  0.00    -0.131 C  
ENDBRANCH  16  24
ENDBRANCH  10  13
ENDBRANCH   8   9
ENDBRANCH   7   8
ENDBRANCH   2   3
TORSDOF 7
ENDMDL
MODEL      163
REMARK 921   NORMALIZED FREE ENERGY PREDICTED BY IDOCK:   -4.33 KCAL/MOL
REMARK 922        TOTAL FREE ENERGY PREDICTED BY IDOCK:   -6.98 KCAL/MOL
REMARK 923 INTER-LIGAND FREE ENERGY PREDICTED BY IDOCK:   -5.90 KCAL/MOL
REMARK 924 INTRA-LIGAND FREE ENERGY PREDICTED BY IDOCK:   -1.07 KCAL/MOL
REMARK 927      BINDING AFFINITY PREDICTED BY RF-SCORE:    0.00 PKD
ROOT
HETATM    1  C   UNL     1      -5.636   7.122  66.067  1.00  0.00    -0.031 C  
HETATM    2  C   UNL     1      -6.836   7.920  66.565  1.00  0.00    -0.070 C  
ENDROOT
BRANCH   2   3
HETATM    3  N   UNL     1      -7.229   8.983  65.632  1.00  0.00    -0.084 NA 
HETATM    4  C   UNL     1      -6.230   9.218  64.586  1.00  0.00    -0.072 C  
HETATM    5  C   UNL     1      -7.012  10.005  63.558  1.00  0.00    -0.131 C  
HETATM    6  C   UNL     1      -8.373   9.329  63.556  1.00  0.00    -0.185 C  
HETATM    7  C   UNL     1      -8.509   8.679  64.944  1.00  0.00    -0.161 C  
BRANCH   7   8
HETATM    8  C   UNL     1      -9.711   9.240  65.736  1.00  0.00    -0.269 C  
BRANCH   8   9
HETATM    9  N   UNL     1      -9.931  10.670  65.549  1.00  0.00    -0.256 N  
HETATM   10  C   UNL     1     -10.089  11.536  66.616  1.00  0.00    -0.210 C  
HETATM   11  H   UNL     1      -9.970  11.043  64.600  1.00  0.00     0.000 HD 
HETATM   12  O   UNL     1     -10.063  11.162  67.780  1.00  0.00    -0.174 OA 
BRANCH  10  13
HETATM   13  C   UNL     1     -10.339  12.969  66.271  1.00  0.00    -0.291 A  
HETATM   14  C   UNL     1     -10.072  13.931  67.270  1.00  0.00    -0.242 A  
HETATM   15  C   UNL     1     -10.163  15.299  66.987  1.00  0.00    -0.260 A  
HETATM   16  C   UNL     1     -10.705  13.410  64.986  1.00  0.00    -0.343 A  
HETATM   17  C   UNL     1     -10.518  15.736  65.717  1.00  0.00    -0.384 A  
HETATM   18  C   UNL     1     -10.774  14.791  64.723  1.00  0.00    -0.380 A  
BRANCH  15  19
HETATM   19  S   UNL     1      -9.914  16.482  68.294  1.00  0.00    -0.260 S  
HETATM   20  O   UNL     1     -10.958  17.478  68.157  1.00  0.00    -0.316 OA 
HETATM   21  O   UNL     1      -8.516  16.864  68.258  1.00  0.00    -0.213 OA 
BRANCH  19  22
HETATM   22  C   UNL     1     -10.210  15.557  69.789  1.00  0.00    -0.294 C  
HETATM   23  C   UNL     1     -11.512  15.981  70.446  1.00  0.00    -0.392 C  
ENDBRANCH  19  22
ENDBRANCH  15  19
BRANCH  16  24
HETATM   24  O   UNL     1     -10.947  12.654  63.870  1.00  0.00    -0.368 OA 
HETATM   25  C   UNL     1     -12.271  12.672  63.351  1.00  0.00    -0.517 C  
ENDBRANCH  16  24
ENDBRANCH  10  13
ENDBRANCH   8   9
ENDBRANCH   7   8
ENDBRANCH   2   3
TORSDOF 7
ENDMDL
MODEL      164
REMARK 921   NORMALIZED FREE ENERGY PREDICTED BY IDOCK:   -4.30 KCAL/MOL
REMARK 922        TOTAL FREE ENERGY PREDICTED BY IDOCK:   -6.92 KCAL/MOL
REMARK 923 INTER-LIGAND FREE ENERGY PREDICTED BY IDOCK:   -5.84 KCAL/MOL
REMARK 924 INTRA-LIGAND FREE ENERGY PREDICTED BY IDOCK:   -1.08 KCAL/MOL
REMARK 927      BINDING AFFINITY PREDICTED BY RF-SCORE:    0.00 PKD
ROOT
HETATM    1  C   UNL     1     -13.896   7.693  71.558  1.00  0.00    -0.466 C  
HETATM    2  C   UNL     1     -12.555   6.979  71.422  1.00  0.00    -0.386 C  
ENDROOT
BRANCH   2   3
HETATM    3  N   UNL     1     -11.425   7.914  71.363  1.00  0.00    -0.255 NA 
HETATM    4  C   UNL     1     -10.716   8.029  72.640  1.00  0.00    -0.358 C  
HETATM    5  C   UNL     1      -9.411   8.675  72.231  1.00  0.00    -0.322 C  
HETATM    6  C   UNL     1      -9.073   7.990  70.918  1.00  0.00    -0.161 C  
HETATM    7  C   UNL     1     -10.420   7.515  70.347  1.00  0.00    -0.223 C  
BRANCH   7   8
HETATM    8  C   UNL     1     -10.731   8.157  68.976  1.00  0.00    -0.080 C  
BRANCH   8   9
HETATM    9  N   UNL     1     -10.013   9.401  68.726  1.00  0.00    -0.173 N  
HETATM   10  C   UNL     1     -10.626  10.638  68.823  1.00  0.00    -0.206 C  
HETATM   11  H   UNL     1      -9.026   9.359  68.471  1.00  0.00     0.000 HD 
HETATM   12  O   UNL     1     -11.807  10.768  69.115  1.00  0.00    -0.303 OA 
BRANCH  10  13
HETATM   13  C   UNL     1      -9.773  11.824  68.507  1.00  0.00    -0.181 A  
HETATM   14  C   UNL     1     -10.433  13.049  68.266  1.00  0.00    -0.258 A  
HETATM   15  C   UNL     1      -9.703  14.230  68.086  1.00  0.00    -0.226 A  
HETATM   16  C   UNL     1      -8.367  11.810  68.556  1.00  0.00    -0.131 A  
HETATM   17  C   UNL     1      -8.315  14.219  68.139  1.00  0.00    -0.162 A  
HETATM   18  C   UNL     1      -7.657  13.013  68.386  1.00  0.00    -0.133 A  
BRANCH  15  19
HETATM   19  S   UNL     1     -10.563  15.738  67.689  1.00  0.00    -0.305 S  
HETATM   20  O   UNL     1     -11.674  15.839  68.614  1.00  0.00    -0.375 OA 
HETATM   21  O   UNL     1     -10.790  15.731  66.257  1.00  0.00    -0.306 OA 
BRANCH  19  22
HETATM   22  C   UNL     1      -9.393  17.027  68.070  1.00  0.00    -0.245 C  
HETATM   23  C   UNL     1     -10.091  18.248  68.643  1.00  0.00    -0.407 C  
ENDBRANCH  19  22
ENDBRANCH  15  19
BRANCH  16  24
HETATM   24  O   UNL     1      -7.542  10.752  68.831  1.00  0.00    -0.102 OA 
HETATM   25  C   UNL     1      -6.774  10.233  67.752  1.00  0.00    -0.073 C  
ENDBRANCH  16  24
ENDBRANCH  10  13
ENDBRANCH   8   9
ENDBRANCH   7   8
ENDBRANCH   2   3
TORSDOF 7
ENDMDL
MODEL      165
REMARK 921   NORMALIZED FREE ENERGY PREDICTED BY IDOCK:   -4.29 KCAL/MOL
REMARK 922        TOTAL FREE ENERGY PREDICTED BY IDOCK:   -6.91 KCAL/MOL
REMARK 923 INTER-LIGAND FREE ENERGY PREDICTED BY IDOCK:   -5.59 KCAL/MOL
REMARK 924 INTRA-LIGAND FREE ENERGY PREDICTED BY IDOCK:   -1.32 KCAL/MOL
REMARK 927      BINDING AFFINITY PREDICTED BY RF-SCORE:    0.00 PKD
ROOT
HETATM    1  C   UNL     1     -10.311  14.989  69.684  1.00  0.00    -0.201 C  
HETATM    2  C   UNL     1     -11.508  15.213  68.767  1.00  0.00    -0.319 C  
ENDROOT
BRANCH   2   3
HETATM    3  N   UNL     1     -11.122  15.790  67.473  1.00  0.00    -0.296 NA 
HETATM    4  C   UNL     1     -11.069  17.255  67.499  1.00  0.00     0.044 C  
HETATM    5  C   UNL     1     -10.274  17.573  66.252  1.00  0.00    -0.356 C  
HETATM    6  C   UNL     1      -9.201  16.499  66.232  1.00  0.00    -0.345 C  
HETATM    7  C   UNL     1      -9.789  15.318  67.024  1.00  0.00    -0.229 C  
BRANCH   7   8
HETATM    8  C   UNL     1      -9.913  14.042  66.163  1.00  0.00    -0.312 C  
BRANCH   8   9
HETATM    9  N   UNL     1      -9.357  12.847  66.787  1.00  0.00    -0.238 N  
HETATM   10  C   UNL     1     -10.156  11.883  67.376  1.00  0.00    -0.196 C  
HETATM   11  H   UNL     1      -8.345  12.717  66.788  1.00  0.00     0.000 HD 
HETATM   12  O   UNL     1     -11.375  11.974  67.421  1.00  0.00    -0.284 OA 
BRANCH  10  13
HETATM   13  C   UNL     1      -9.443  10.729  68.004  1.00  0.00    -0.166 A  
HETATM   14  C   UNL     1      -9.905  10.293  69.265  1.00  0.00    -0.244 A  
HETATM   15  C   UNL     1      -9.373   9.144  69.862  1.00  0.00    -0.186 A  
HETATM   16  C   UNL     1      -8.433   9.991  67.360  1.00  0.00    -0.121 A  
HETATM   17  C   UNL     1      -8.380   8.411  69.225  1.00  0.00    -0.121 A  
HETATM   18  C   UNL     1      -7.926   8.831  67.975  1.00  0.00    -0.106 A  
BRANCH  15  19
HETATM   19  S   UNL     1      -9.910   8.677  71.495  1.00  0.00    -0.300 S  
HETATM   20  O   UNL     1     -11.120   9.428  71.764  1.00  0.00    -0.370 OA 
HETATM   21  O   UNL     1      -8.758   8.791  72.367  1.00  0.00    -0.392 OA 
BRANCH  19  22
HETATM   22  C   UNL     1     -10.338   6.954  71.344  1.00  0.00    -0.201 C  
HETATM   23  C   UNL     1     -11.259   6.720  70.159  1.00  0.00    -0.387 C  
ENDBRANCH  19  22
ENDBRANCH  15  19
BRANCH  16  24
HETATM   24  O   UNL     1      -7.890  10.205  66.122  1.00  0.00    -0.107 OA 
HETATM   25  C   UNL     1      -8.438   9.464  65.038  1.00  0.00    -0.159 C  
ENDBRANCH  16  24
ENDBRANCH  10  13
ENDBRANCH   8   9
ENDBRANCH   7   8
ENDBRANCH   2   3
TORSDOF 7
ENDMDL
MODEL      166
REMARK 921   NORMALIZED FREE ENERGY PREDICTED BY IDOCK:   -4.29 KCAL/MOL
REMARK 922        TOTAL FREE ENERGY PREDICTED BY IDOCK:   -6.91 KCAL/MOL
REMARK 923 INTER-LIGAND FREE ENERGY PREDICTED BY IDOCK:   -5.77 KCAL/MOL
REMARK 924 INTRA-LIGAND FREE ENERGY PREDICTED BY IDOCK:   -1.14 KCAL/MOL
REMARK 927      BINDING AFFINITY PREDICTED BY RF-SCORE:    0.00 PKD
ROOT
HETATM    1  C   UNL     1     -11.412  15.481  68.228  1.00  0.00    -0.359 C  
HETATM    2  C   UNL     1     -11.233  15.382  66.717  1.00  0.00    -0.197 C  
ENDROOT
BRANCH   2   3
HETATM    3  N   UNL     1     -11.501  14.031  66.208  1.00  0.00    -0.339 NA 
HETATM    4  C   UNL     1     -12.777  13.937  65.493  1.00  0.00    -0.499 C  
HETATM    5  C   UNL     1     -12.630  12.636  64.735  1.00  0.00    -0.530 C  
HETATM    6  C   UNL     1     -11.184  12.657  64.272  1.00  0.00    -0.410 C  
HETATM    7  C   UNL     1     -10.448  13.565  65.272  1.00  0.00    -0.336 C  
BRANCH   7   8
HETATM    8  C   UNL     1      -9.328  12.814  66.027  1.00  0.00    -0.046 C  
BRANCH   8   9
HETATM    9  N   UNL     1      -9.750  11.546  66.609  1.00  0.00    -0.195 N  
HETATM   10  C   UNL     1      -9.067  10.365  66.378  1.00  0.00    -0.157 C  
HETATM   11  H   UNL     1     -10.576  11.529  67.208  1.00  0.00     0.000 HD 
HETATM   12  O   UNL     1      -8.075  10.305  65.665  1.00  0.00    -0.142 OA 
BRANCH  10  13
HETATM   13  C   UNL     1      -9.636   9.138  67.015  1.00  0.00    -0.223 A  
HETATM   14  C   UNL     1      -9.387   7.904  66.376  1.00  0.00    -0.247 A  
HETATM   15  C   UNL     1      -9.778   6.699  66.974  1.00  0.00    -0.157 A  
HETATM   16  C   UNL     1     -10.290   9.137  68.261  1.00  0.00    -0.214 A  
HETATM   17  C   UNL     1     -10.419   6.696  68.206  1.00  0.00    -0.249 A  
HETATM   18  C   UNL     1     -10.659   7.912  68.847  1.00  0.00    -0.165 A  
BRANCH  15  19
HETATM   19  S   UNL     1      -9.536   5.169  66.096  1.00  0.00    -0.170 S  
HETATM   20  O   UNL     1      -8.587   5.443  65.036  1.00  0.00    -0.148 OA 
HETATM   21  O   UNL     1     -10.853   4.642  65.794  1.00  0.00    -0.293 OA 
BRANCH  19  22
HETATM   22  C   UNL     1      -8.757   4.096  67.287  1.00  0.00    -0.107 C  
HETATM   23  C   UNL     1      -7.301   4.475  67.495  1.00  0.00    -0.073 C  
ENDBRANCH  19  22
ENDBRANCH  15  19
BRANCH  16  24
HETATM   24  O   UNL     1     -10.572  10.207  69.068  1.00  0.00    -0.199 OA 
HETATM   25  C   UNL     1     -11.099   9.923  70.359  1.00  0.00    -0.319 C  
ENDBRANCH  16  24
ENDBRANCH  10  13
ENDBRANCH   8   9
ENDBRANCH   7   8
ENDBRANCH   2   3
TORSDOF 7
ENDMDL
MODEL      167
REMARK 921   NORMALIZED FREE ENERGY PREDICTED BY IDOCK:   -4.28 KCAL/MOL
REMARK 922        TOTAL FREE ENERGY PREDICTED BY IDOCK:   -6.90 KCAL/MOL
REMARK 923 INTER-LIGAND FREE ENERGY PREDICTED BY IDOCK:   -6.10 KCAL/MOL
REMARK 924 INTRA-LIGAND FREE ENERGY PREDICTED BY IDOCK:   -0.80 KCAL/MOL
REMARK 927      BINDING AFFINITY PREDICTED BY RF-SCORE:    0.00 PKD
ROOT
HETATM    1  C   UNL     1     -10.343  15.777  68.226  1.00  0.00    -0.239 C  
HETATM    2  C   UNL     1     -10.987  14.537  68.837  1.00  0.00    -0.256 C  
ENDROOT
BRANCH   2   3
HETATM    3  N   UNL     1     -11.362  14.735  70.242  1.00  0.00    -0.250 NA 
HETATM    4  C   UNL     1     -11.284  16.138  70.658  1.00  0.00    -0.348 C  
HETATM    5  C   UNL     1     -12.088  16.143  71.940  1.00  0.00    -0.548 C  
HETATM    6  C   UNL     1     -13.253  15.219  71.630  1.00  0.00    -0.532 C  
HETATM    7  C   UNL     1     -12.746  14.279  70.522  1.00  0.00    -0.328 C  
BRANCH   7   8
HETATM    8  C   UNL     1     -12.765  12.798  70.960  1.00  0.00    -0.243 C  
BRANCH   8   9
HETATM    9  N   UNL     1     -11.578  12.047  70.568  1.00  0.00    -0.423 N  
HETATM   10  C   UNL     1     -11.570  11.200  69.473  1.00  0.00    -0.321 C  
HETATM   11  H   UNL     1     -10.725  12.149  71.118  1.00  0.00     0.000 HD 
HETATM   12  O   UNL     1     -12.555  11.019  68.771  1.00  0.00    -0.350 OA 
BRANCH  10  13
HETATM   13  C   UNL     1     -10.291  10.472  69.212  1.00  0.00    -0.248 A  
HETATM   14  C   UNL     1      -9.643  10.725  67.983  1.00  0.00    -0.172 A  
HETATM   15  C   UNL     1      -8.382  10.178  67.715  1.00  0.00    -0.114 A  
HETATM   16  C   UNL     1      -9.649   9.655  70.161  1.00  0.00    -0.254 A  
HETATM   17  C   UNL     1      -7.744   9.376  68.653  1.00  0.00    -0.084 A  
HETATM   18  C   UNL     1      -8.375   9.131  69.873  1.00  0.00    -0.146 A  
BRANCH  15  19
HETATM   19  S   UNL     1      -7.637  10.438  66.119  1.00  0.00    -0.135 S  
HETATM   20  O   UNL     1      -6.414  11.182  66.347  1.00  0.00    -0.128 OA 
HETATM   21  O   UNL     1      -8.672  10.963  65.250  1.00  0.00    -0.189 OA 
BRANCH  19  22
HETATM   22  C   UNL     1      -7.205   8.802  65.561  1.00  0.00    -0.084 C  
HETATM   23  C   UNL     1      -8.430   7.908  65.485  1.00  0.00    -0.153 C  
ENDBRANCH  19  22
ENDBRANCH  15  19
BRANCH  16  24
HETATM   24  O   UNL     1     -10.072   9.335  71.423  1.00  0.00    -0.314 OA 
HETATM   25  C   UNL     1     -10.916   8.197  71.555  1.00  0.00    -0.243 C  
ENDBRANCH  16  24
ENDBRANCH  10  13
ENDBRANCH   8   9
ENDBRANCH   7   8
ENDBRANCH   2   3
TORSDOF 7
ENDMDL
MODEL      168
REMARK 921   NORMALIZED FREE ENERGY PREDICTED BY IDOCK:   -4.28 KCAL/MOL
REMARK 922        TOTAL FREE ENERGY PREDICTED BY IDOCK:   -6.90 KCAL/MOL
REMARK 923 INTER-LIGAND FREE ENERGY PREDICTED BY IDOCK:   -6.36 KCAL/MOL
REMARK 924 INTRA-LIGAND FREE ENERGY PREDICTED BY IDOCK:   -0.55 KCAL/MOL
REMARK 927      BINDING AFFINITY PREDICTED BY RF-SCORE:    0.00 PKD
ROOT
HETATM    1  C   UNL     1     -11.592  16.097  69.308  1.00  0.00    -0.270 C  
HETATM    2  C   UNL     1     -10.786  15.535  70.474  1.00  0.00    -0.328 C  
ENDROOT
BRANCH   2   3
HETATM    3  N   UNL     1     -11.640  14.958  71.519  1.00  0.00    -0.339 NA 
HETATM    4  C   UNL     1     -12.214  15.973  72.407  1.00  0.00    -0.514 C  
HETATM    5  C   UNL     1     -13.333  15.216  73.087  1.00  0.00    -0.558 C  
HETATM    6  C   UNL     1     -13.918  14.369  71.970  1.00  0.00    -0.592 C  
HETATM    7  C   UNL     1     -12.776  14.189  70.954  1.00  0.00    -0.361 C  
BRANCH   7   8
HETATM    8  C   UNL     1     -12.398  12.704  70.758  1.00  0.00    -0.283 C  
BRANCH   8   9
HETATM    9  N   UNL     1     -11.327  12.485  69.793  1.00  0.00    -0.490 N  
HETATM   10  C   UNL     1     -11.152  11.272  69.150  1.00  0.00    -0.253 C  
HETATM   11  H   UNL     1     -10.686  13.251  69.585  1.00  0.00     0.000 HD 
HETATM   12  O   UNL     1     -11.874  10.306  69.354  1.00  0.00    -0.160 OA 
BRANCH  10  13
HETATM   13  C   UNL     1      -9.992  11.185  68.211  1.00  0.00    -0.196 A  
HETATM   14  C   UNL     1      -8.905  12.056  68.444  1.00  0.00    -0.149 A  
HETATM   15  C   UNL     1      -7.732  11.951  67.686  1.00  0.00    -0.141 A  
HETATM   16  C   UNL     1      -9.879  10.214  67.199  1.00  0.00    -0.187 A  
HETATM   17  C   UNL     1      -7.616  10.989  66.690  1.00  0.00    -0.146 A  
HETATM   18  C   UNL     1      -8.683  10.120  66.462  1.00  0.00    -0.139 A  
BRANCH  15  19
HETATM   19  S   UNL     1      -6.418  13.127  67.941  1.00  0.00    -0.154 S  
HETATM   20  O   UNL     1      -6.901  14.401  67.448  1.00  0.00    -0.222 OA 
HETATM   21  O   UNL     1      -5.210  12.533  67.402  1.00  0.00    -0.147 OA 
BRANCH  19  22
HETATM   22  C   UNL     1      -6.257  13.232  69.712  1.00  0.00    -0.110 C  
HETATM   23  C   UNL     1      -5.412  12.092  70.254  1.00  0.00    -0.138 C  
ENDBRANCH  19  22
ENDBRANCH  15  19
BRANCH  16  24
HETATM   24  O   UNL     1     -10.781   9.245  66.853  1.00  0.00    -0.206 OA 
HETATM   25  C   UNL     1     -10.554   7.936  67.364  1.00  0.00    -0.272 C  
ENDBRANCH  16  24
ENDBRANCH  10  13
ENDBRANCH   8   9
ENDBRANCH   7   8
ENDBRANCH   2   3
TORSDOF 7
ENDMDL
MODEL      169
REMARK 921   NORMALIZED FREE ENERGY PREDICTED BY IDOCK:   -4.23 KCAL/MOL
REMARK 922        TOTAL FREE ENERGY PREDICTED BY IDOCK:   -6.83 KCAL/MOL
REMARK 923 INTER-LIGAND FREE ENERGY PREDICTED BY IDOCK:   -5.77 KCAL/MOL
REMARK 924 INTRA-LIGAND FREE ENERGY PREDICTED BY IDOCK:   -1.06 KCAL/MOL
REMARK 927      BINDING AFFINITY PREDICTED BY RF-SCORE:    0.00 PKD
ROOT
HETATM    1  C   UNL     1     -11.451  15.190  70.239  1.00  0.00    -0.315 C  
HETATM    2  C   UNL     1     -10.865  16.246  69.307  1.00  0.00    -0.318 C  
ENDROOT
BRANCH   2   3
HETATM    3  N   UNL     1     -10.160  15.655  68.164  1.00  0.00    -0.221 NA 
HETATM    4  C   UNL     1     -10.592  16.214  66.880  1.00  0.00    -0.283 C  
HETATM    5  C   UNL     1      -9.481  15.786  65.947  1.00  0.00    -0.377 C  
HETATM    6  C   UNL     1      -8.227  15.967  66.784  1.00  0.00    -0.307 C  
HETATM    7  C   UNL     1      -8.692  15.853  68.247  1.00  0.00    -0.174 C  
BRANCH   7   8
HETATM    8  C   UNL     1      -8.014  14.676  68.984  1.00  0.00    -0.122 C  
BRANCH   8   9
HETATM    9  N   UNL     1      -8.668  13.389  68.777  1.00  0.00    -0.371 N  
HETATM   10  C   UNL     1      -8.070  12.365  68.063  1.00  0.00    -0.162 C  
HETATM   11  H   UNL     1      -9.596  13.238  69.172  1.00  0.00     0.000 HD 
HETATM   12  O   UNL     1      -6.963  12.475  67.553  1.00  0.00    -0.121 OA 
BRANCH  10  13
HETATM   13  C   UNL     1      -8.872  11.114  67.906  1.00  0.00    -0.136 A  
HETATM   14  C   UNL     1      -9.232  10.425  69.084  1.00  0.00    -0.202 A  
HETATM   15  C   UNL     1     -10.085   9.316  69.029  1.00  0.00    -0.199 A  
HETATM   16  C   UNL     1      -9.381  10.664  66.673  1.00  0.00    -0.165 A  
HETATM   17  C   UNL     1     -10.593   8.872  67.815  1.00  0.00    -0.266 A  
HETATM   18  C   UNL     1     -10.249   9.556  66.648  1.00  0.00    -0.310 A  
BRANCH  15  19
HETATM   19  S   UNL     1     -10.441   8.411  70.522  1.00  0.00    -0.212 S  
HETATM   20  O   UNL     1     -11.189   7.235  70.126  1.00  0.00    -0.269 OA 
HETATM   21  O   UNL     1     -10.997   9.359  71.468  1.00  0.00    -0.355 OA 
BRANCH  19  22
HETATM   22  C   UNL     1      -8.844   7.890  71.114  1.00  0.00    -0.138 C  
HETATM   23  C   UNL     1      -8.505   8.558  72.436  1.00  0.00    -0.196 C  
ENDBRANCH  19  22
ENDBRANCH  15  19
BRANCH  16  24
HETATM   24  O   UNL     1      -9.206  11.217  65.434  1.00  0.00    -0.212 OA 
HETATM   25  C   UNL     1     -10.319  11.187  64.548  1.00  0.00    -0.337 C  
ENDBRANCH  16  24
ENDBRANCH  10  13
ENDBRANCH   8   9
ENDBRANCH   7   8
ENDBRANCH   2   3
TORSDOF 7
ENDMDL
MODEL      170
REMARK 921   NORMALIZED FREE ENERGY PREDICTED BY IDOCK:   -4.23 KCAL/MOL
REMARK 922        TOTAL FREE ENERGY PREDICTED BY IDOCK:   -6.83 KCAL/MOL
REMARK 923 INTER-LIGAND FREE ENERGY PREDICTED BY IDOCK:   -5.68 KCAL/MOL
REMARK 924 INTRA-LIGAND FREE ENERGY PREDICTED BY IDOCK:   -1.15 KCAL/MOL
REMARK 927      BINDING AFFINITY PREDICTED BY RF-SCORE:    0.00 PKD
ROOT
HETATM    1  C   UNL     1      -6.148  19.341  70.013  1.00  0.00    -0.263 C  
HETATM    2  C   UNL     1      -7.287  19.517  69.015  1.00  0.00    -0.357 C  
ENDROOT
BRANCH   2   3
HETATM    3  N   UNL     1      -7.214  18.558  67.906  1.00  0.00    -0.234 NA 
HETATM    4  C   UNL     1      -5.937  18.614  67.190  1.00  0.00    -0.158 C  
HETATM    5  C   UNL     1      -5.938  17.314  66.418  1.00  0.00    -0.228 C  
HETATM    6  C   UNL     1      -6.530  16.319  67.401  1.00  0.00    -0.213 C  
HETATM    7  C   UNL     1      -7.391  17.158  68.363  1.00  0.00    -0.220 C  
BRANCH   7   8
HETATM    8  C   UNL     1      -8.879  16.745  68.325  1.00  0.00    -0.228 C  
BRANCH   8   9
HETATM    9  N   UNL     1      -9.192  15.743  67.311  1.00  0.00    -0.204 N  
HETATM   10  C   UNL     1      -9.695  14.496  67.639  1.00  0.00    -0.215 C  
HETATM   11  H   UNL     1      -9.036  15.970  66.329  1.00  0.00     0.000 HD 
HETATM   12  O   UNL     1      -9.899  14.149  68.794  1.00  0.00    -0.224 OA 
BRANCH  10  13
HETATM   13  C   UNL     1      -9.938  13.562  66.497  1.00  0.00    -0.287 A  
HETATM   14  C   UNL     1      -9.207  12.354  66.484  1.00  0.00    -0.215 A  
HETATM   15  C   UNL     1      -9.466  11.374  65.518  1.00  0.00    -0.227 A  
HETATM   16  C   UNL     1     -10.929  13.767  65.519  1.00  0.00    -0.299 A  
HETATM   17  C   UNL     1     -10.448  11.571  64.555  1.00  0.00    -0.369 A  
HETATM   18  C   UNL     1     -11.180  12.758  64.569  1.00  0.00    -0.373 A  
BRANCH  15  19
HETATM   19  S   UNL     1      -8.461   9.905  65.471  1.00  0.00    -0.148 S  
HETATM   20  O   UNL     1      -7.081  10.343  65.546  1.00  0.00    -0.140 OA 
HETATM   21  O   UNL     1      -8.926   9.110  64.351  1.00  0.00    -0.173 OA 
BRANCH  19  22
HETATM   22  C   UNL     1      -8.862   9.046  66.980  1.00  0.00    -0.119 C  
HETATM   23  C   UNL     1     -10.350   8.757  67.067  1.00  0.00    -0.353 C  
ENDBRANCH  19  22
ENDBRANCH  15  19
BRANCH  16  24
HETATM   24  O   UNL     1     -11.782  14.829  65.390  1.00  0.00    -0.344 OA 
HETATM   25  C   UNL     1     -11.773  15.519  64.146  1.00  0.00    -0.086 C  
ENDBRANCH  16  24
ENDBRANCH  10  13
ENDBRANCH   8   9
ENDBRANCH   7   8
ENDBRANCH   2   3
TORSDOF 7
ENDMDL
MODEL      171
REMARK 921   NORMALIZED FREE ENERGY PREDICTED BY IDOCK:   -4.23 KCAL/MOL
REMARK 922        TOTAL FREE ENERGY PREDICTED BY IDOCK:   -6.83 KCAL/MOL
REMARK 923 INTER-LIGAND FREE ENERGY PREDICTED BY IDOCK:   -6.19 KCAL/MOL
REMARK 924 INTRA-LIGAND FREE ENERGY PREDICTED BY IDOCK:   -0.64 KCAL/MOL
REMARK 927      BINDING AFFINITY PREDICTED BY RF-SCORE:    0.00 PKD
ROOT
HETATM    1  C   UNL     1      -9.727  15.913  67.997  1.00  0.00    -0.216 C  
HETATM    2  C   UNL     1      -9.689  14.468  67.511  1.00  0.00    -0.211 C  
ENDROOT
BRANCH   2   3
HETATM    3  N   UNL     1     -10.996  14.003  67.033  1.00  0.00    -0.294 NA 
HETATM    4  C   UNL     1     -11.372  14.591  65.744  1.00  0.00    -0.336 C  
HETATM    5  C   UNL     1     -12.487  13.679  65.283  1.00  0.00    -0.517 C  
HETATM    6  C   UNL     1     -12.005  12.297  65.689  1.00  0.00    -0.373 C  
HETATM    7  C   UNL     1     -11.039  12.529  66.864  1.00  0.00    -0.278 C  
BRANCH   7   8
HETATM    8  C   UNL     1     -11.517  11.835  68.158  1.00  0.00    -0.316 C  
BRANCH   8   9
HETATM    9  N   UNL     1     -11.354  10.386  68.151  1.00  0.00    -0.473 N  
HETATM   10  C   UNL     1     -10.875   9.692  69.248  1.00  0.00    -0.205 C  
HETATM   11  H   UNL     1     -11.601   9.866  67.308  1.00  0.00     0.000 HD 
HETATM   12  O   UNL     1     -10.550  10.247  70.289  1.00  0.00    -0.282 OA 
BRANCH  10  13
HETATM   13  C   UNL     1     -10.730   8.214  69.084  1.00  0.00    -0.117 A  
HETATM   14  C   UNL     1      -9.933   7.758  68.012  1.00  0.00    -0.210 A  
HETATM   15  C   UNL     1      -9.648   6.395  67.863  1.00  0.00    -0.121 A  
HETATM   16  C   UNL     1     -11.240   7.273  69.998  1.00  0.00    -0.209 A  
HETATM   17  C   UNL     1     -10.145   5.465  68.768  1.00  0.00    -0.255 A  
HETATM   18  C   UNL     1     -10.926   5.911  69.835  1.00  0.00    -0.444 A  
BRANCH  15  19
HETATM   19  S   UNL     1      -8.719   5.844  66.447  1.00  0.00    -0.135 S  
HETATM   20  O   UNL     1      -7.574   5.119  66.958  1.00  0.00    -0.086 OA 
HETATM   21  O   UNL     1      -8.542   6.996  65.584  1.00  0.00    -0.151 OA 
BRANCH  19  22
HETATM   22  C   UNL     1      -9.802   4.687  65.632  1.00  0.00    -0.204 C  
HETATM   23  C   UNL     1      -9.146   3.323  65.502  1.00  0.00    -0.150 C  
ENDBRANCH  19  22
ENDBRANCH  15  19
BRANCH  16  24
HETATM   24  O   UNL     1     -11.978   7.507  71.127  1.00  0.00    -0.298 OA 
HETATM   25  C   UNL     1     -11.872   6.553  72.178  1.00  0.00    -0.305 C  
ENDBRANCH  16  24
ENDBRANCH  10  13
ENDBRANCH   8   9
ENDBRANCH   7   8
ENDBRANCH   2   3
TORSDOF 7
ENDMDL
MODEL      172
REMARK 921   NORMALIZED FREE ENERGY PREDICTED BY IDOCK:   -4.23 KCAL/MOL
REMARK 922        TOTAL FREE ENERGY PREDICTED BY IDOCK:   -6.83 KCAL/MOL
REMARK 923 INTER-LIGAND FREE ENERGY PREDICTED BY IDOCK:   -6.07 KCAL/MOL
REMARK 924 INTRA-LIGAND FREE ENERGY PREDICTED BY IDOCK:   -0.75 KCAL/MOL
REMARK 927      BINDING AFFINITY PREDICTED BY RF-SCORE:    0.00 PKD
ROOT
HETATM    1  C   UNL     1      -7.579   6.005  63.466  1.00  0.00    -0.080 C  
HETATM    2  C   UNL     1      -7.882   6.598  64.837  1.00  0.00    -0.115 C  
ENDROOT
BRANCH   2   3
HETATM    3  N   UNL     1      -7.906   8.066  64.821  1.00  0.00    -0.124 NA 
HETATM    4  C   UNL     1      -8.111   8.614  63.477  1.00  0.00    -0.167 C  
HETATM    5  C   UNL     1      -8.511  10.044  63.767  1.00  0.00    -0.181 C  
HETATM    6  C   UNL     1      -9.413   9.920  64.982  1.00  0.00    -0.343 C  
HETATM    7  C   UNL     1      -8.982   8.618  65.680  1.00  0.00    -0.182 C  
BRANCH   7   8
HETATM    8  C   UNL     1      -8.472   8.868  67.117  1.00  0.00    -0.106 C  
BRANCH   8   9
HETATM    9  N   UNL     1      -9.155   9.954  67.810  1.00  0.00    -0.131 N  
HETATM   10  C   UNL     1     -10.248   9.733  68.629  1.00  0.00    -0.190 C  
HETATM   11  H   UNL     1      -8.815  10.908  67.688  1.00  0.00     0.000 HD 
HETATM   12  O   UNL     1     -10.718   8.619  68.817  1.00  0.00    -0.174 OA 
BRANCH  10  13
HETATM   13  C   UNL     1     -10.865  10.946  69.248  1.00  0.00    -0.286 A  
HETATM   14  C   UNL     1     -10.664  12.180  68.592  1.00  0.00    -0.261 A  
HETATM   15  C   UNL     1     -11.310  13.339  69.038  1.00  0.00    -0.285 A  
HETATM   16  C   UNL     1     -11.723  10.902  70.363  1.00  0.00    -0.350 A  
HETATM   17  C   UNL     1     -12.161  13.298  70.135  1.00  0.00    -0.403 A  
HETATM   18  C   UNL     1     -12.372  12.079  70.781  1.00  0.00    -0.403 A  
BRANCH  15  19
HETATM   19  S   UNL     1     -10.958  14.896  68.248  1.00  0.00    -0.276 S  
HETATM   20  O   UNL     1      -9.554  15.171  68.479  1.00  0.00    -0.201 OA 
HETATM   21  O   UNL     1     -11.977  15.831  68.683  1.00  0.00    -0.344 OA 
BRANCH  19  22
HETATM   22  C   UNL     1     -11.190  14.573  66.511  1.00  0.00    -0.344 C  
HETATM   23  C   UNL     1     -12.591  14.058  66.232  1.00  0.00    -0.352 C  
ENDBRANCH  19  22
ENDBRANCH  15  19
BRANCH  16  24
HETATM   24  O   UNL     1     -12.097   9.810  71.098  1.00  0.00    -0.319 OA 
HETATM   25  C   UNL     1     -13.264   9.941  71.903  1.00  0.00    -0.458 C  
ENDBRANCH  16  24
ENDBRANCH  10  13
ENDBRANCH   8   9
ENDBRANCH   7   8
ENDBRANCH   2   3
TORSDOF 7
ENDMDL
MODEL      173
REMARK 921   NORMALIZED FREE ENERGY PREDICTED BY IDOCK:   -4.22 KCAL/MOL
REMARK 922        TOTAL FREE ENERGY PREDICTED BY IDOCK:   -6.82 KCAL/MOL
REMARK 923 INTER-LIGAND FREE ENERGY PREDICTED BY IDOCK:   -6.03 KCAL/MOL
REMARK 924 INTRA-LIGAND FREE ENERGY PREDICTED BY IDOCK:   -0.79 KCAL/MOL
REMARK 927      BINDING AFFINITY PREDICTED BY RF-SCORE:    0.00 PKD
ROOT
HETATM    1  C   UNL     1     -13.017  10.649  70.775  1.00  0.00    -0.396 C  
HETATM    2  C   UNL     1     -12.674  11.821  71.689  1.00  0.00    -0.251 C  
ENDROOT
BRANCH   2   3
HETATM    3  N   UNL     1     -13.308  13.072  71.258  1.00  0.00    -0.111 NA 
HETATM    4  C   UNL     1     -14.077  13.716  72.326  1.00  0.00    -0.505 C  
HETATM    5  C   UNL     1     -14.260  15.121  71.794  1.00  0.00    -0.674 C  
HETATM    6  C   UNL     1     -12.920  15.434  71.152  1.00  0.00    -0.545 C  
HETATM    7  C   UNL     1     -12.316  14.068  70.782  1.00  0.00    -0.373 C  
BRANCH   7   8
HETATM    8  C   UNL     1     -12.075  13.929  69.262  1.00  0.00    -0.339 C  
BRANCH   8   9
HETATM    9  N   UNL     1     -10.835  13.244  68.916  1.00  0.00    -0.324 N  
HETATM   10  C   UNL     1     -10.071  13.610  67.822  1.00  0.00    -0.242 C  
HETATM   11  H   UNL     1     -10.520  12.469  69.500  1.00  0.00     0.000 HD 
HETATM   12  O   UNL     1     -10.388  14.522  67.071  1.00  0.00    -0.260 OA 
BRANCH  10  13
HETATM   13  C   UNL     1      -8.842  12.797  67.573  1.00  0.00    -0.187 A  
HETATM   14  C   UNL     1      -9.017  11.524  66.986  1.00  0.00    -0.174 A  
HETATM   15  C   UNL     1      -7.911  10.754  66.608  1.00  0.00    -0.140 A  
HETATM   16  C   UNL     1      -7.534  13.275  67.777  1.00  0.00    -0.154 A  
HETATM   17  C   UNL     1      -6.619  11.227  66.804  1.00  0.00    -0.140 A  
HETATM   18  C   UNL     1      -6.440  12.488  67.374  1.00  0.00    -0.153 A  
BRANCH  15  19
HETATM   19  S   UNL     1      -8.165   9.115  65.960  1.00  0.00    -0.118 S  
HETATM   20  O   UNL     1      -6.855   8.506  65.843  1.00  0.00    -0.063 OA 
HETATM   21  O   UNL     1      -9.027   9.248  64.801  1.00  0.00    -0.205 OA 
BRANCH  19  22
HETATM   22  C   UNL     1      -9.068   8.268  67.242  1.00  0.00    -0.137 C  
HETATM   23  C   UNL     1      -9.717   7.002  66.711  1.00  0.00    -0.241 C  
ENDBRANCH  19  22
ENDBRANCH  15  19
BRANCH  16  24
HETATM   24  O   UNL     1      -7.148  14.492  68.271  1.00  0.00    -0.096 OA 
HETATM   25  C   UNL     1      -6.957  15.542  67.330  1.00  0.00    -0.198 C  
ENDBRANCH  16  24
ENDBRANCH  10  13
ENDBRANCH   8   9
ENDBRANCH   7   8
ENDBRANCH   2   3
TORSDOF 7
ENDMDL
MODEL      174
REMARK 921   NORMALIZED FREE ENERGY PREDICTED BY IDOCK:   -4.21 KCAL/MOL
REMARK 922        TOTAL FREE ENERGY PREDICTED BY IDOCK:   -6.80 KCAL/MOL
REMARK 923 INTER-LIGAND FREE ENERGY PREDICTED BY IDOCK:   -5.66 KCAL/MOL
REMARK 924 INTRA-LIGAND FREE ENERGY PREDICTED BY IDOCK:   -1.15 KCAL/MOL
REMARK 927      BINDING AFFINITY PREDICTED BY RF-SCORE:    0.00 PKD
ROOT
HETATM    1  C   UNL     1     -14.169   7.928  71.540  1.00  0.00    -0.527 C  
HETATM    2  C   UNL     1     -12.959   7.030  71.773  1.00  0.00    -0.310 C  
ENDROOT
BRANCH   2   3
HETATM    3  N   UNL     1     -11.689   7.742  71.591  1.00  0.00    -0.270 NA 
HETATM    4  C   UNL     1     -11.052   8.101  72.861  1.00  0.00    -0.240 C  
HETATM    5  C   UNL     1      -9.635   8.418  72.437  1.00  0.00    -0.373 C  
HETATM    6  C   UNL     1      -9.333   7.358  71.392  1.00  0.00    -0.149 C  
HETATM    7  C   UNL     1     -10.702   6.941  70.826  1.00  0.00    -0.233 C  
BRANCH   7   8
HETATM    8  C   UNL     1     -10.816   7.219  69.310  1.00  0.00    -0.159 C  
BRANCH   8   9
HETATM    9  N   UNL     1     -10.048   8.374  68.858  1.00  0.00    -0.195 N  
HETATM   10  C   UNL     1     -10.586   9.648  68.826  1.00  0.00    -0.216 C  
HETATM   11  H   UNL     1      -9.083   8.238  68.556  1.00  0.00     0.000 HD 
HETATM   12  O   UNL     1     -11.737   9.888  69.165  1.00  0.00     0.024 OA 
BRANCH  10  13
HETATM   13  C   UNL     1      -9.692  10.729  68.310  1.00  0.00    -0.172 A  
HETATM   14  C   UNL     1     -10.230  11.606  67.343  1.00  0.00    -0.226 A  
HETATM   15  C   UNL     1      -9.500  12.716  66.901  1.00  0.00    -0.229 A  
HETATM   16  C   UNL     1      -8.404  10.987  68.817  1.00  0.00    -0.144 A  
HETATM   17  C   UNL     1      -8.232  12.976  67.405  1.00  0.00    -0.183 A  
HETATM   18  C   UNL     1      -7.698  12.118  68.368  1.00  0.00    -0.134 A  
BRANCH  15  19
HETATM   19  S   UNL     1     -10.169  13.746  65.611  1.00  0.00    -0.306 S  
HETATM   20  O   UNL     1     -10.395  12.885  64.467  1.00  0.00    -0.351 OA 
HETATM   21  O   UNL     1      -9.305  14.906  65.506  1.00  0.00    -0.153 OA 
BRANCH  19  22
HETATM   22  C   UNL     1     -11.750  14.273  66.241  1.00  0.00    -0.393 C  
HETATM   23  C   UNL     1     -12.865  13.949  65.262  1.00  0.00    -0.437 C  
ENDBRANCH  19  22
ENDBRANCH  15  19
BRANCH  16  24
HETATM   24  O   UNL     1      -7.729  10.303  69.791  1.00  0.00    -0.155 OA 
HETATM   25  C   UNL     1      -6.385  10.697  70.045  1.00  0.00    -0.126 C  
ENDBRANCH  16  24
ENDBRANCH  10  13
ENDBRANCH   8   9
ENDBRANCH   7   8
ENDBRANCH   2   3
TORSDOF 7
ENDMDL
MODEL      175
REMARK 921   NORMALIZED FREE ENERGY PREDICTED BY IDOCK:   -4.20 KCAL/MOL
REMARK 922        TOTAL FREE ENERGY PREDICTED BY IDOCK:   -6.79 KCAL/MOL
REMARK 923 INTER-LIGAND FREE ENERGY PREDICTED BY IDOCK:   -5.85 KCAL/MOL
REMARK 924 INTRA-LIGAND FREE ENERGY PREDICTED BY IDOCK:   -0.93 KCAL/MOL
REMARK 927      BINDING AFFINITY PREDICTED BY RF-SCORE:    0.00 PKD
ROOT
HETATM    1  C   UNL     1     -12.920  11.387  71.467  1.00  0.00    -0.505 C  
HETATM    2  C   UNL     1     -12.720  12.842  71.058  1.00  0.00    -0.251 C  
ENDROOT
BRANCH   2   3
HETATM    3  N   UNL     1     -11.809  12.983  69.916  1.00  0.00    -0.325 NA 
HETATM    4  C   UNL     1     -11.469  11.698  69.299  1.00  0.00    -0.300 C  
HETATM    5  C   UNL     1     -10.904  12.119  67.960  1.00  0.00    -0.258 C  
HETATM    6  C   UNL     1     -11.810  13.262  67.537  1.00  0.00    -0.403 C  
HETATM    7  C   UNL     1     -12.380  13.837  68.845  1.00  0.00    -0.032 C  
BRANCH   7   8
HETATM    8  C   UNL     1     -11.991  15.319  69.050  1.00  0.00    -0.276 C  
BRANCH   8   9
HETATM    9  N   UNL     1     -10.734  15.696  68.414  1.00  0.00    -0.261 N  
HETATM   10  C   UNL     1      -9.526  15.652  69.087  1.00  0.00    -0.256 C  
HETATM   11  H   UNL     1     -10.746  16.003  67.441  1.00  0.00     0.000 HD 
HETATM   12  O   UNL     1      -9.434  15.304  70.256  1.00  0.00     0.058 OA 
BRANCH  10  13
HETATM   13  C   UNL     1      -8.325  16.099  68.317  1.00  0.00    -0.171 A  
HETATM   14  C   UNL     1      -8.306  17.438  67.870  1.00  0.00    -0.230 A  
HETATM   15  C   UNL     1      -7.166  17.967  67.251  1.00  0.00    -0.193 A  
HETATM   16  C   UNL     1      -7.181  15.302  68.125  1.00  0.00    -0.120 A  
HETATM   17  C   UNL     1      -6.034  17.185  67.065  1.00  0.00    -0.209 A  
HETATM   18  C   UNL     1      -6.043  15.864  67.514  1.00  0.00    -0.174 A  
BRANCH  15  19
HETATM   19  S   UNL     1      -7.210  19.629  66.613  1.00  0.00    -0.240 S  
HETATM   20  O   UNL     1      -7.276  19.518  65.169  1.00  0.00    -0.394 OA 
HETATM   21  O   UNL     1      -6.129  20.355  67.251  1.00  0.00    -0.183 OA 
BRANCH  19  22
HETATM   22  C   UNL     1      -8.758  20.287  67.199  1.00  0.00    -0.339 C  
HETATM   23  C   UNL     1      -9.870  20.051  66.192  1.00  0.00    -0.553 C  
ENDBRANCH  19  22
ENDBRANCH  15  19
BRANCH  16  24
HETATM   24  O   UNL     1      -6.971  14.012  68.531  1.00  0.00    -0.088 OA 
HETATM   25  C   UNL     1      -6.816  13.030  67.514  1.00  0.00    -0.151 C  
ENDBRANCH  16  24
ENDBRANCH  10  13
ENDBRANCH   8   9
ENDBRANCH   7   8
ENDBRANCH   2   3
TORSDOF 7
ENDMDL
MODEL      176
REMARK 921   NORMALIZED FREE ENERGY PREDICTED BY IDOCK:   -4.20 KCAL/MOL
REMARK 922        TOTAL FREE ENERGY PREDICTED BY IDOCK:   -6.78 KCAL/MOL
REMARK 923 INTER-LIGAND FREE ENERGY PREDICTED BY IDOCK:   -5.52 KCAL/MOL
REMARK 924 INTRA-LIGAND FREE ENERGY PREDICTED BY IDOCK:   -1.26 KCAL/MOL
REMARK 927      BINDING AFFINITY PREDICTED BY RF-SCORE:    0.00 PKD
ROOT
HETATM    1  C   UNL     1     -11.290  11.168  67.454  1.00  0.00    -0.329 C  
HETATM    2  C   UNL     1     -10.802   9.792  67.895  1.00  0.00    -0.242 C  
ENDROOT
BRANCH   2   3
HETATM    3  N   UNL     1     -10.349   9.778  69.291  1.00  0.00    -0.203 NA 
HETATM    4  C   UNL     1     -11.398   9.355  70.223  1.00  0.00    -0.220 C  
HETATM    5  C   UNL     1     -10.609   9.022  71.471  1.00  0.00    -0.415 C  
HETATM    6  C   UNL     1      -9.366   8.337  70.932  1.00  0.00    -0.187 C  
HETATM    7  C   UNL     1      -9.196   8.867  69.497  1.00  0.00    -0.150 C  
BRANCH   7   8
HETATM    8  C   UNL     1      -7.858   9.615  69.306  1.00  0.00    -0.098 C  
BRANCH   8   9
HETATM    9  N   UNL     1      -7.974  11.068  69.363  1.00  0.00    -0.368 N  
HETATM   10  C   UNL     1      -7.563  11.881  68.323  1.00  0.00    -0.116 C  
HETATM   11  H   UNL     1      -8.373  11.498  70.198  1.00  0.00     0.000 HD 
HETATM   12  O   UNL     1      -7.068  11.439  67.295  1.00  0.00    -0.102 OA 
BRANCH  10  13
HETATM   13  C   UNL     1      -7.714  13.353  68.536  1.00  0.00    -0.124 A  
HETATM   14  C   UNL     1      -8.999  13.905  68.341  1.00  0.00    -0.178 A  
HETATM   15  C   UNL     1      -9.251  15.250  68.639  1.00  0.00    -0.201 A  
HETATM   16  C   UNL     1      -6.688  14.180  69.029  1.00  0.00    -0.107 A  
HETATM   17  C   UNL     1      -8.241  16.067  69.132  1.00  0.00    -0.241 A  
HETATM   18  C   UNL     1      -6.971  15.524  69.335  1.00  0.00    -0.187 A  
BRANCH  15  19
HETATM   19  S   UNL     1     -10.856  15.938  68.292  1.00  0.00    -0.330 S  
HETATM   20  O   UNL     1     -11.453  15.103  67.268  1.00  0.00    -0.345 OA 
HETATM   21  O   UNL     1     -10.669  17.359  68.072  1.00  0.00    -0.387 OA 
BRANCH  19  22
HETATM   22  C   UNL     1     -11.770  15.714  69.805  1.00  0.00    -0.357 C  
HETATM   23  C   UNL     1     -12.173  14.261  69.991  1.00  0.00    -0.417 C  
ENDBRANCH  19  22
ENDBRANCH  15  19
BRANCH  16  24
HETATM   24  O   UNL     1      -5.401  13.834  69.341  1.00  0.00    -0.082 OA 
HETATM   25  C   UNL     1      -5.171  13.300  70.640  1.00  0.00    -0.131 C  
ENDBRANCH  16  24
ENDBRANCH  10  13
ENDBRANCH   8   9
ENDBRANCH   7   8
ENDBRANCH   2   3
TORSDOF 7
ENDMDL
MODEL      177
REMARK 921   NORMALIZED FREE ENERGY PREDICTED BY IDOCK:   -4.19 KCAL/MOL
REMARK 922        TOTAL FREE ENERGY PREDICTED BY IDOCK:   -6.78 KCAL/MOL
REMARK 923 INTER-LIGAND FREE ENERGY PREDICTED BY IDOCK:   -5.82 KCAL/MOL
REMARK 924 INTRA-LIGAND FREE ENERGY PREDICTED BY IDOCK:   -0.96 KCAL/MOL
REMARK 927      BINDING AFFINITY PREDICTED BY RF-SCORE:    0.00 PKD
ROOT
HETATM    1  C   UNL     1      -8.261   4.954  62.997  1.00  0.00    -0.100 C  
HETATM    2  C   UNL     1      -7.934   4.808  64.479  1.00  0.00    -0.100 C  
ENDROOT
BRANCH   2   3
HETATM    3  N   UNL     1      -8.946   5.431  65.340  1.00  0.00    -0.152 NA 
HETATM    4  C   UNL     1     -10.043   4.520  65.678  1.00  0.00    -0.244 C  
HETATM    5  C   UNL     1     -10.692   5.213  66.855  1.00  0.00    -0.148 C  
HETATM    6  C   UNL     1      -9.511   5.749  67.646  1.00  0.00    -0.114 C  
HETATM    7  C   UNL     1      -8.373   5.910  66.622  1.00  0.00    -0.110 C  
BRANCH   7   8
HETATM    8  C   UNL     1      -7.897   7.375  66.505  1.00  0.00    -0.098 C  
BRANCH   8   9
HETATM    9  N   UNL     1      -8.831   8.350  67.058  1.00  0.00    -0.131 N  
HETATM   10  C   UNL     1      -9.017   9.597  66.489  1.00  0.00    -0.147 C  
HETATM   11  H   UNL     1      -9.364   8.104  67.892  1.00  0.00     0.000 HD 
HETATM   12  O   UNL     1      -8.407   9.966  65.494  1.00  0.00    -0.130 OA 
BRANCH  10  13
HETATM   13  C   UNL     1      -9.982  10.502  67.183  1.00  0.00    -0.234 A  
HETATM   14  C   UNL     1     -10.416  11.647  66.479  1.00  0.00    -0.276 A  
HETATM   15  C   UNL     1     -11.411  12.477  67.010  1.00  0.00    -0.356 A  
HETATM   16  C   UNL     1     -10.563  10.214  68.433  1.00  0.00    -0.217 A  
HETATM   17  C   UNL     1     -11.990  12.190  68.240  1.00  0.00    -0.248 A  
HETATM   18  C   UNL     1     -11.572  11.056  68.937  1.00  0.00    -0.383 A  
BRANCH  15  19
HETATM   19  S   UNL     1     -11.866  13.963  66.141  1.00  0.00    -0.423 S  
HETATM   20  O   UNL     1     -11.948  15.016  67.134  1.00  0.00    -0.234 OA 
HETATM   21  O   UNL     1     -13.011  13.635  65.314  1.00  0.00    -0.719 OA 
BRANCH  19  22
HETATM   22  C   UNL     1     -10.476  14.297  65.079  1.00  0.00    -0.435 C  
HETATM   23  C   UNL     1      -9.796  15.601  65.459  1.00  0.00    -0.326 C  
ENDBRANCH  19  22
ENDBRANCH  15  19
BRANCH  16  24
HETATM   24  O   UNL     1     -10.330   9.135  69.243  1.00  0.00    -0.205 OA 
HETATM   25  C   UNL     1     -10.190   9.390  70.636  1.00  0.00    -0.288 C  
ENDBRANCH  16  24
ENDBRANCH  10  13
ENDBRANCH   8   9
ENDBRANCH   7   8
ENDBRANCH   2   3
TORSDOF 7
ENDMDL
MODEL      178
REMARK 921   NORMALIZED FREE ENERGY PREDICTED BY IDOCK:   -4.18 KCAL/MOL
REMARK 922        TOTAL FREE ENERGY PREDICTED BY IDOCK:   -6.76 KCAL/MOL
REMARK 923 INTER-LIGAND FREE ENERGY PREDICTED BY IDOCK:   -6.24 KCAL/MOL
REMARK 924 INTRA-LIGAND FREE ENERGY PREDICTED BY IDOCK:   -0.52 KCAL/MOL
REMARK 927      BINDING AFFINITY PREDICTED BY RF-SCORE:    0.00 PKD
ROOT
HETATM    1  C   UNL     1      -6.597  19.774  69.587  1.00  0.00    -0.378 C  
HETATM    2  C   UNL     1      -7.866  19.437  68.809  1.00  0.00    -0.357 C  
ENDROOT
BRANCH   2   3
HETATM    3  N   UNL     1      -7.638  18.414  67.781  1.00  0.00    -0.229 NA 
HETATM    4  C   UNL     1      -7.224  18.984  66.496  1.00  0.00    -0.228 C  
HETATM    5  C   UNL     1      -6.663  17.780  65.772  1.00  0.00    -0.223 C  
HETATM    6  C   UNL     1      -5.915  17.029  66.860  1.00  0.00    -0.226 C  
HETATM    7  C   UNL     1      -6.590  17.443  68.180  1.00  0.00    -0.166 C  
BRANCH   7   8
HETATM    8  C   UNL     1      -7.205  16.236  68.924  1.00  0.00    -0.190 C  
BRANCH   8   9
HETATM    9  N   UNL     1      -7.983  15.345  68.070  1.00  0.00    -0.126 N  
HETATM   10  C   UNL     1      -7.942  13.969  68.210  1.00  0.00    -0.146 C  
HETATM   11  H   UNL     1      -8.577  15.750  67.346  1.00  0.00     0.000 HD 
HETATM   12  O   UNL     1      -7.247  13.411  69.048  1.00  0.00    -0.094 OA 
BRANCH  10  13
HETATM   13  C   UNL     1      -8.767  13.183  67.243  1.00  0.00    -0.210 A  
HETATM   14  C   UNL     1      -9.823  13.860  66.594  1.00  0.00    -0.288 A  
HETATM   15  C   UNL     1     -10.562  13.229  65.586  1.00  0.00    -0.283 A  
HETATM   16  C   UNL     1      -8.475  11.859  66.864  1.00  0.00    -0.174 A  
HETATM   17  C   UNL     1     -10.272  11.924  65.206  1.00  0.00    -0.309 A  
HETATM   18  C   UNL     1      -9.224  11.254  65.837  1.00  0.00    -0.229 A  
BRANCH  15  19
HETATM   19  S   UNL     1     -11.947  14.077  64.856  1.00  0.00    -0.428 S  
HETATM   20  O   UNL     1     -11.537  15.454  64.666  1.00  0.00    -0.399 OA 
HETATM   21  O   UNL     1     -13.111  13.755  65.658  1.00  0.00    -0.591 OA 
BRANCH  19  22
HETATM   22  C   UNL     1     -12.135  13.320  63.254  1.00  0.00    -0.337 C  
HETATM   23  C   UNL     1     -12.887  12.004  63.355  1.00  0.00    -0.427 C  
ENDBRANCH  19  22
ENDBRANCH  15  19
BRANCH  16  24
HETATM   24  O   UNL     1      -7.468  11.052  67.320  1.00  0.00    -0.097 OA 
HETATM   25  C   UNL     1      -6.804  10.240  66.360  1.00  0.00    -0.106 C  
ENDBRANCH  16  24
ENDBRANCH  10  13
ENDBRANCH   8   9
ENDBRANCH   7   8
ENDBRANCH   2   3
TORSDOF 7
ENDMDL
MODEL      179
REMARK 921   NORMALIZED FREE ENERGY PREDICTED BY IDOCK:   -4.17 KCAL/MOL
REMARK 922        TOTAL FREE ENERGY PREDICTED BY IDOCK:   -6.74 KCAL/MOL
REMARK 923 INTER-LIGAND FREE ENERGY PREDICTED BY IDOCK:   -5.72 KCAL/MOL
REMARK 924 INTRA-LIGAND FREE ENERGY PREDICTED BY IDOCK:   -1.02 KCAL/MOL
REMARK 927      BINDING AFFINITY PREDICTED BY RF-SCORE:    0.00 PKD
ROOT
HETATM    1  C   UNL     1      -9.349  11.083  65.235  1.00  0.00    -0.245 C  
HETATM    2  C   UNL     1     -10.658  10.406  65.629  1.00  0.00    -0.026 C  
ENDROOT
BRANCH   2   3
HETATM    3  N   UNL     1     -10.693  10.036  67.049  1.00  0.00    -0.213 NA 
HETATM    4  C   UNL     1     -10.485   8.602  67.266  1.00  0.00    -0.289 C  
HETATM    5  C   UNL     1     -10.149   8.541  68.740  1.00  0.00    -0.210 C  
HETATM    6  C   UNL     1      -9.265   9.758  68.952  1.00  0.00    -0.155 C  
HETATM    7  C   UNL     1      -9.656  10.746  67.839  1.00  0.00    -0.160 C  
BRANCH   7   8
HETATM    8  C   UNL     1     -10.203  12.075  68.404  1.00  0.00    -0.209 C  
BRANCH   8   9
HETATM    9  N   UNL     1      -9.251  13.179  68.354  1.00  0.00    -0.314 N  
HETATM   10  C   UNL     1      -9.316  14.165  67.385  1.00  0.00    -0.215 C  
HETATM   11  H   UNL     1      -8.512  13.226  69.056  1.00  0.00     0.000 HD 
HETATM   12  O   UNL     1     -10.167  14.171  66.506  1.00  0.00    -0.267 OA 
BRANCH  10  13
HETATM   13  C   UNL     1      -8.254  15.215  67.439  1.00  0.00    -0.215 A  
HETATM   14  C   UNL     1      -8.670  16.543  67.680  1.00  0.00    -0.195 A  
HETATM   15  C   UNL     1      -7.729  17.562  67.868  1.00  0.00    -0.213 A  
HETATM   16  C   UNL     1      -6.876  14.935  67.383  1.00  0.00    -0.090 A  
HETATM   17  C   UNL     1      -6.368  17.287  67.819  1.00  0.00    -0.161 A  
HETATM   18  C   UNL     1      -5.951  15.976  67.591  1.00  0.00    -0.176 A  
BRANCH  15  19
HETATM   19  S   UNL     1      -8.287  19.241  68.074  1.00  0.00    -0.326 S  
HETATM   20  O   UNL     1      -7.163  19.990  68.600  1.00  0.00    -0.302 OA 
HETATM   21  O   UNL     1      -9.542  19.183  68.797  1.00  0.00    -0.381 OA 
BRANCH  19  22
HETATM   22  C   UNL     1      -8.614  19.805  66.416  1.00  0.00    -0.360 C  
HETATM   23  C   UNL     1     -10.097  19.734  66.096  1.00  0.00    -0.600 C  
ENDBRANCH  19  22
ENDBRANCH  15  19
BRANCH  16  24
HETATM   24  O   UNL     1      -6.267  13.720  67.221  1.00  0.00    -0.311 OA 
HETATM   25  C   UNL     1      -5.372  13.302  68.245  1.00  0.00    -0.092 C  
ENDBRANCH  16  24
ENDBRANCH  10  13
ENDBRANCH   8   9
ENDBRANCH   7   8
ENDBRANCH   2   3
TORSDOF 7
ENDMDL
MODEL      180
REMARK 921   NORMALIZED FREE ENERGY PREDICTED BY IDOCK:   -4.16 KCAL/MOL
REMARK 922        TOTAL FREE ENERGY PREDICTED BY IDOCK:   -6.73 KCAL/MOL
REMARK 923 INTER-LIGAND FREE ENERGY PREDICTED BY IDOCK:   -5.66 KCAL/MOL
REMARK 924 INTRA-LIGAND FREE ENERGY PREDICTED BY IDOCK:   -1.07 KCAL/MOL
REMARK 927      BINDING AFFINITY PREDICTED BY RF-SCORE:    0.00 PKD
ROOT
HETATM    1  C   UNL     1     -11.276  15.826  64.711  1.00  0.00    -0.375 C  
HETATM    2  C   UNL     1     -10.827  14.373  64.826  1.00  0.00    -0.399 C  
ENDROOT
BRANCH   2   3
HETATM    3  N   UNL     1     -10.789  13.906  66.217  1.00  0.00    -0.289 NA 
HETATM    4  C   UNL     1     -11.306  14.900  67.163  1.00  0.00    -0.343 C  
HETATM    5  C   UNL     1     -11.554  14.070  68.403  1.00  0.00    -0.366 C  
HETATM    6  C   UNL     1     -12.120  12.772  67.854  1.00  0.00    -0.187 C  
HETATM    7  C   UNL     1     -11.583  12.669  66.415  1.00  0.00    -0.384 C  
BRANCH   7   8
HETATM    8  C   UNL     1     -10.712  11.410  66.207  1.00  0.00    -0.270 C  
BRANCH   8   9
HETATM    9  N   UNL     1     -10.111  10.893  67.431  1.00  0.00    -0.186 N  
HETATM   10  C   UNL     1     -10.095   9.542  67.730  1.00  0.00    -0.198 C  
HETATM   11  H   UNL     1      -9.688  11.549  68.088  1.00  0.00     0.000 HD 
HETATM   12  O   UNL     1     -10.589   8.698  66.996  1.00  0.00    -0.294 OA 
BRANCH  10  13
HETATM   13  C   UNL     1      -9.474   9.163  69.036  1.00  0.00    -0.152 A  
HETATM   14  C   UNL     1      -9.869   7.933  69.606  1.00  0.00    -0.179 A  
HETATM   15  C   UNL     1      -9.244   7.449  70.762  1.00  0.00    -0.159 A  
HETATM   16  C   UNL     1      -8.444   9.897  69.653  1.00  0.00    -0.187 A  
HETATM   17  C   UNL     1      -8.223   8.169  71.369  1.00  0.00    -0.141 A  
HETATM   18  C   UNL     1      -7.822   9.380  70.805  1.00  0.00    -0.151 A  
BRANCH  15  19
HETATM   19  S   UNL     1      -9.832   5.943  71.509  1.00  0.00    -0.169 S  
HETATM   20  O   UNL     1      -8.673   5.280  72.074  1.00  0.00    -0.128 OA 
HETATM   21  O   UNL     1     -10.658   5.276  70.522  1.00  0.00    -0.262 OA 
BRANCH  19  22
HETATM   22  C   UNL     1     -10.875   6.490  72.845  1.00  0.00    -0.258 C  
HETATM   23  C   UNL     1     -10.091   6.609  74.140  1.00  0.00    -0.390 C  
ENDBRANCH  19  22
ENDBRANCH  15  19
BRANCH  16  24
HETATM   24  O   UNL     1      -7.876  11.071  69.235  1.00  0.00    -0.129 OA 
HETATM   25  C   UNL     1      -6.557  10.999  68.706  1.00  0.00    -0.061 C  
ENDBRANCH  16  24
ENDBRANCH  10  13
ENDBRANCH   8   9
ENDBRANCH   7   8
ENDBRANCH   2   3
TORSDOF 7
ENDMDL
MODEL      181
REMARK 921   NORMALIZED FREE ENERGY PREDICTED BY IDOCK:   -4.15 KCAL/MOL
REMARK 922        TOTAL FREE ENERGY PREDICTED BY IDOCK:   -6.71 KCAL/MOL
REMARK 923 INTER-LIGAND FREE ENERGY PREDICTED BY IDOCK:   -5.74 KCAL/MOL
REMARK 924 INTRA-LIGAND FREE ENERGY PREDICTED BY IDOCK:   -0.97 KCAL/MOL
REMARK 927      BINDING AFFINITY PREDICTED BY RF-SCORE:    0.00 PKD
ROOT
HETATM    1  C   UNL     1     -10.148  10.901  63.462  1.00  0.00    -0.406 C  
HETATM    2  C   UNL     1      -8.710  10.394  63.419  1.00  0.00    -0.200 C  
ENDROOT
BRANCH   2   3
HETATM    3  N   UNL     1      -8.384   9.534  64.563  1.00  0.00    -0.152 NA 
HETATM    4  C   UNL     1      -8.248   8.123  64.192  1.00  0.00    -0.080 C  
HETATM    5  C   UNL     1      -7.525   7.540  65.387  1.00  0.00    -0.082 C  
HETATM    6  C   UNL     1      -6.518   8.617  65.751  1.00  0.00    -0.056 C  
HETATM    7  C   UNL     1      -7.114   9.932  65.219  1.00  0.00    -0.130 C  
BRANCH   7   8
HETATM    8  C   UNL     1      -7.369  10.955  66.349  1.00  0.00    -0.141 C  
BRANCH   8   9
HETATM    9  N   UNL     1      -8.518  10.637  67.190  1.00  0.00    -0.127 N  
HETATM   10  C   UNL     1      -8.978  11.504  68.166  1.00  0.00    -0.172 C  
HETATM   11  H   UNL     1      -8.997   9.747  67.055  1.00  0.00     0.000 HD 
HETATM   12  O   UNL     1      -8.450  12.584  68.392  1.00  0.00    -0.168 OA 
BRANCH  10  13
HETATM   13  C   UNL     1     -10.144  11.031  68.972  1.00  0.00    -0.197 A  
HETATM   14  C   UNL     1      -9.974   9.847  69.722  1.00  0.00    -0.275 A  
HETATM   15  C   UNL     1     -10.974   9.406  70.597  1.00  0.00    -0.290 A  
HETATM   16  C   UNL     1     -11.342  11.757  69.114  1.00  0.00    -0.279 A  
HETATM   17  C   UNL     1     -12.154  10.125  70.744  1.00  0.00    -0.438 A  
HETATM   18  C   UNL     1     -12.324  11.300  70.013  1.00  0.00    -0.330 A  
BRANCH  15  19
HETATM   19  S   UNL     1     -10.766   7.859  71.455  1.00  0.00    -0.227 S  
HETATM   20  O   UNL     1     -11.320   8.042  72.781  1.00  0.00    -0.394 OA 
HETATM   21  O   UNL     1      -9.384   7.459  71.278  1.00  0.00    -0.153 OA 
BRANCH  19  22
HETATM   22  C   UNL     1     -11.804   6.717  70.564  1.00  0.00    -0.370 C  
HETATM   23  C   UNL     1     -11.145   6.273  69.269  1.00  0.00    -0.461 C  
ENDBRANCH  19  22
ENDBRANCH  15  19
BRANCH  16  24
HETATM   24  O   UNL     1     -11.681  12.948  68.531  1.00  0.00    -0.300 OA 
HETATM   25  C   UNL     1     -11.949  12.931  67.134  1.00  0.00    -0.310 C  
ENDBRANCH  16  24
ENDBRANCH  10  13
ENDBRANCH   8   9
ENDBRANCH   7   8
ENDBRANCH   2   3
TORSDOF 7
ENDMDL
MODEL      182
REMARK 921   NORMALIZED FREE ENERGY PREDICTED BY IDOCK:   -4.14 KCAL/MOL
REMARK 922        TOTAL FREE ENERGY PREDICTED BY IDOCK:   -6.71 KCAL/MOL
REMARK 923 INTER-LIGAND FREE ENERGY PREDICTED BY IDOCK:   -5.69 KCAL/MOL
REMARK 924 INTRA-LIGAND FREE ENERGY PREDICTED BY IDOCK:   -1.02 KCAL/MOL
REMARK 927      BINDING AFFINITY PREDICTED BY RF-SCORE:    0.00 PKD
ROOT
HETATM    1  C   UNL     1     -12.396  13.342  65.123  1.00  0.00    -0.516 C  
HETATM    2  C   UNL     1     -12.384  14.090  66.452  1.00  0.00    -0.431 C  
ENDROOT
BRANCH   2   3
HETATM    3  N   UNL     1     -11.145  14.850  66.656  1.00  0.00    -0.327 NA 
HETATM    4  C   UNL     1     -10.878  15.801  65.574  1.00  0.00    -0.332 C  
HETATM    5  C   UNL     1      -9.843  16.716  66.191  1.00  0.00    -0.340 C  
HETATM    6  C   UNL     1     -10.329  16.885  67.620  1.00  0.00    -0.317 C  
HETATM    7  C   UNL     1     -11.168  15.630  67.918  1.00  0.00    -0.328 C  
BRANCH   7   8
HETATM    8  C   UNL     1     -10.589  14.807  69.091  1.00  0.00    -0.248 C  
BRANCH   8   9
HETATM    9  N   UNL     1      -9.865  13.610  68.677  1.00  0.00    -0.363 N  
HETATM   10  C   UNL     1      -8.505  13.624  68.423  1.00  0.00    -0.147 C  
HETATM   11  H   UNL     1     -10.378  12.735  68.571  1.00  0.00     0.000 HD 
HETATM   12  O   UNL     1      -7.825  14.636  68.520  1.00  0.00    -0.120 OA 
BRANCH  10  13
HETATM   13  C   UNL     1      -7.904  12.330  67.976  1.00  0.00    -0.147 A  
HETATM   14  C   UNL     1      -8.655  11.548  67.071  1.00  0.00    -0.161 A  
HETATM   15  C   UNL     1      -8.110  10.386  66.510  1.00  0.00    -0.122 A  
HETATM   16  C   UNL     1      -6.600  11.918  68.309  1.00  0.00    -0.054 A  
HETATM   17  C   UNL     1      -6.822   9.981  66.833  1.00  0.00    -0.087 A  
HETATM   18  C   UNL     1      -6.071  10.755  67.719  1.00  0.00    -0.047 A  
BRANCH  15  19
HETATM   19  S   UNL     1      -9.118   9.371  65.449  1.00  0.00    -0.233 S  
HETATM   20  O   UNL     1     -10.018   8.632  66.313  1.00  0.00    -0.277 OA 
HETATM   21  O   UNL     1      -8.219   8.677  64.549  1.00  0.00    -0.154 OA 
BRANCH  19  22
HETATM   22  C   UNL     1     -10.078  10.538  64.503  1.00  0.00    -0.332 C  
HETATM   23  C   UNL     1      -9.605  10.594  63.061  1.00  0.00    -0.379 C  
ENDBRANCH  19  22
ENDBRANCH  15  19
BRANCH  16  24
HETATM   24  O   UNL     1      -5.692  12.556  69.111  1.00  0.00    -0.068 OA 
HETATM   25  C   UNL     1      -5.543  12.064  70.438  1.00  0.00    -0.160 C  
ENDBRANCH  16  24
ENDBRANCH  10  13
ENDBRANCH   8   9
ENDBRANCH   7   8
ENDBRANCH   2   3
TORSDOF 7
ENDMDL
MODEL      183
REMARK 921   NORMALIZED FREE ENERGY PREDICTED BY IDOCK:   -4.14 KCAL/MOL
REMARK 922        TOTAL FREE ENERGY PREDICTED BY IDOCK:   -6.71 KCAL/MOL
REMARK 923 INTER-LIGAND FREE ENERGY PREDICTED BY IDOCK:   -5.72 KCAL/MOL
REMARK 924 INTRA-LIGAND FREE ENERGY PREDICTED BY IDOCK:   -0.99 KCAL/MOL
REMARK 927      BINDING AFFINITY PREDICTED BY RF-SCORE:    0.00 PKD
ROOT
HETATM    1  C   UNL     1     -10.663   9.869  67.285  1.00  0.00    -0.304 C  
HETATM    2  C   UNL     1      -9.563  10.058  66.245  1.00  0.00    -0.202 C  
ENDROOT
BRANCH   2   3
HETATM    3  N   UNL     1      -8.233   9.725  66.770  1.00  0.00    -0.119 NA 
HETATM    4  C   UNL     1      -7.482   8.829  65.886  1.00  0.00    -0.089 C  
HETATM    5  C   UNL     1      -6.067   8.975  66.400  1.00  0.00    -0.063 C  
HETATM    6  C   UNL     1      -5.953  10.458  66.709  1.00  0.00    -0.063 C  
HETATM    7  C   UNL     1      -7.393  10.931  66.975  1.00  0.00    -0.118 C  
BRANCH   7   8
HETATM    8  C   UNL     1      -7.568  11.493  68.403  1.00  0.00    -0.125 C  
BRANCH   8   9
HETATM    9  N   UNL     1      -8.473  12.634  68.487  1.00  0.00    -0.326 N  
HETATM   10  C   UNL     1      -8.013  13.928  68.655  1.00  0.00    -0.109 C  
HETATM   11  H   UNL     1      -9.478  12.473  68.418  1.00  0.00     0.000 HD 
HETATM   12  O   UNL     1      -6.824  14.199  68.754  1.00  0.00    -0.089 OA 
BRANCH  10  13
HETATM   13  C   UNL     1      -9.058  14.992  68.756  1.00  0.00    -0.197 A  
HETATM   14  C   UNL     1      -8.644  16.326  68.547  1.00  0.00    -0.211 A  
HETATM   15  C   UNL     1      -9.581  17.365  68.502  1.00  0.00    -0.298 A  
HETATM   16  C   UNL     1     -10.429  14.726  68.925  1.00  0.00    -0.249 A  
HETATM   17  C   UNL     1     -10.936  17.104  68.663  1.00  0.00    -0.171 A  
HETATM   18  C   UNL     1     -11.352  15.787  68.860  1.00  0.00    -0.356 A  
BRANCH  15  19
HETATM   19  S   UNL     1      -9.017  19.046  68.334  1.00  0.00    -0.347 S  
HETATM   20  O   UNL     1      -7.663  19.083  68.849  1.00  0.00    -0.335 OA 
HETATM   21  O   UNL     1     -10.047  19.896  68.897  1.00  0.00    -0.435 OA 
BRANCH  19  22
HETATM   22  C   UNL     1      -8.958  19.318  66.574  1.00  0.00    -0.346 C  
HETATM   23  C   UNL     1     -10.293  19.821  66.052  1.00  0.00    -0.612 C  
ENDBRANCH  19  22
ENDBRANCH  15  19
BRANCH  16  24
HETATM   24  O   UNL     1     -11.041  13.511  69.079  1.00  0.00    -0.252 OA 
HETATM   25  C   UNL     1     -11.978  13.127  68.080  1.00  0.00    -0.304 C  
ENDBRANCH  16  24
ENDBRANCH  10  13
ENDBRANCH   8   9
ENDBRANCH   7   8
ENDBRANCH   2   3
TORSDOF 7
ENDMDL
MODEL      184
REMARK 921   NORMALIZED FREE ENERGY PREDICTED BY IDOCK:   -4.14 KCAL/MOL
REMARK 922        TOTAL FREE ENERGY PREDICTED BY IDOCK:   -6.70 KCAL/MOL
REMARK 923 INTER-LIGAND FREE ENERGY PREDICTED BY IDOCK:   -5.90 KCAL/MOL
REMARK 924 INTRA-LIGAND FREE ENERGY PREDICTED BY IDOCK:   -0.80 KCAL/MOL
REMARK 927      BINDING AFFINITY PREDICTED BY RF-SCORE:    0.00 PKD
ROOT
HETATM    1  C   UNL     1      -9.538  18.904  66.983  1.00  0.00    -0.348 C  
HETATM    2  C   UNL     1      -9.721  17.733  67.944  1.00  0.00    -0.294 C  
ENDROOT
BRANCH   2   3
HETATM    3  N   UNL     1     -10.382  16.586  67.310  1.00  0.00    -0.293 NA 
HETATM    4  C   UNL     1     -10.333  16.641  65.846  1.00  0.00    -0.340 C  
HETATM    5  C   UNL     1     -10.674  15.220  65.455  1.00  0.00    -0.385 C  
HETATM    6  C   UNL     1      -9.935  14.382  66.485  1.00  0.00    -0.291 C  
HETATM    7  C   UNL     1      -9.772  15.295  67.713  1.00  0.00    -0.215 C  
BRANCH   7   8
HETATM    8  C   UNL     1     -10.470  14.718  68.965  1.00  0.00    -0.249 C  
BRANCH   8   9
HETATM    9  N   UNL     1     -10.243  13.291  69.168  1.00  0.00    -0.421 N  
HETATM   10  C   UNL     1     -11.174  12.337  68.801  1.00  0.00    -0.265 C  
HETATM   11  H   UNL     1      -9.367  12.988  69.595  1.00  0.00     0.000 HD 
HETATM   12  O   UNL     1     -12.249  12.625  68.293  1.00  0.00    -0.185 OA 
BRANCH  10  13
HETATM   13  C   UNL     1     -10.817  10.917  69.100  1.00  0.00    -0.280 A  
HETATM   14  C   UNL     1      -9.899  10.285  68.233  1.00  0.00    -0.161 A  
HETATM   15  C   UNL     1      -9.420   8.999  68.515  1.00  0.00    -0.143 A  
HETATM   16  C   UNL     1     -11.249  10.229  70.250  1.00  0.00    -0.323 A  
HETATM   17  C   UNL     1      -9.840   8.321  69.652  1.00  0.00    -0.184 A  
HETATM   18  C   UNL     1     -10.740   8.944  70.518  1.00  0.00    -0.271 A  
BRANCH  15  19
HETATM   19  S   UNL     1      -8.339   8.194  67.352  1.00  0.00    -0.123 S  
HETATM   20  O   UNL     1      -9.025   8.199  66.075  1.00  0.00    -0.166 OA 
HETATM   21  O   UNL     1      -7.915   6.949  67.961  1.00  0.00    -0.112 OA 
BRANCH  19  22
HETATM   22  C   UNL     1      -6.928   9.277  67.237  1.00  0.00    -0.081 C  
HETATM   23  C   UNL     1      -6.239   9.423  68.583  1.00  0.00    -0.044 C  
ENDBRANCH  19  22
ENDBRANCH  15  19
BRANCH  16  24
HETATM   24  O   UNL     1     -12.080  10.677  71.240  1.00  0.00    -0.345 OA 
HETATM   25  C   UNL     1     -12.730   9.693  72.036  1.00  0.00    -0.385 C  
ENDBRANCH  16  24
ENDBRANCH  10  13
ENDBRANCH   8   9
ENDBRANCH   7   8
ENDBRANCH   2   3
TORSDOF 7
ENDMDL
MODEL      185
REMARK 921   NORMALIZED FREE ENERGY PREDICTED BY IDOCK:   -4.12 KCAL/MOL
REMARK 922        TOTAL FREE ENERGY PREDICTED BY IDOCK:   -6.67 KCAL/MOL
REMARK 923 INTER-LIGAND FREE ENERGY PREDICTED BY IDOCK:   -5.72 KCAL/MOL
REMARK 924 INTRA-LIGAND FREE ENERGY PREDICTED BY IDOCK:   -0.95 KCAL/MOL
REMARK 927      BINDING AFFINITY PREDICTED BY RF-SCORE:    0.00 PKD
ROOT
HETATM    1  C   UNL     1      -9.773  10.485  63.820  1.00  0.00    -0.385 C  
HETATM    2  C   UNL     1     -10.639  11.381  64.699  1.00  0.00    -0.318 C  
ENDROOT
BRANCH   2   3
HETATM    3  N   UNL     1     -10.117  11.500  66.066  1.00  0.00    -0.223 NA 
HETATM    4  C   UNL     1      -9.900  12.891  66.472  1.00  0.00    -0.254 C  
HETATM    5  C   UNL     1      -9.783  12.777  67.976  1.00  0.00    -0.220 C  
HETATM    6  C   UNL     1     -10.839  11.746  68.336  1.00  0.00    -0.260 C  
HETATM    7  C   UNL     1     -11.029  10.895  67.068  1.00  0.00    -0.247 C  
BRANCH   7   8
HETATM    8  C   UNL     1     -10.685   9.408  67.307  1.00  0.00    -0.188 C  
BRANCH   8   9
HETATM    9  N   UNL     1     -10.721   9.007  68.709  1.00  0.00    -0.384 N  
HETATM   10  C   UNL     1     -10.599   7.685  69.100  1.00  0.00    -0.186 C  
HETATM   11  H   UNL     1     -10.840   9.724  69.424  1.00  0.00     0.000 HD 
HETATM   12  O   UNL     1     -10.463   6.770  68.300  1.00  0.00    -0.177 OA 
BRANCH  10  13
HETATM   13  C   UNL     1     -10.686   7.421  70.568  1.00  0.00    -0.247 A  
HETATM   14  C   UNL     1      -9.742   6.529  71.122  1.00  0.00    -0.188 A  
HETATM   15  C   UNL     1      -9.679   6.325  72.506  1.00  0.00    -0.156 A  
HETATM   16  C   UNL     1     -11.568   8.097  71.432  1.00  0.00    -0.278 A  
HETATM   17  C   UNL     1     -10.545   6.995  73.361  1.00  0.00    -0.399 A  
HETATM   18  C   UNL     1     -11.474   7.885  72.820  1.00  0.00    -0.428 A  
BRANCH  15  19
HETATM   19  S   UNL     1      -8.542   5.121  73.162  1.00  0.00    -0.109 S  
HETATM   20  O   UNL     1      -8.334   4.136  72.119  1.00  0.00    -0.098 OA 
HETATM   21  O   UNL     1      -9.047   4.727  74.462  1.00  0.00    -0.110 OA 
BRANCH  19  22
HETATM   22  C   UNL     1      -7.025   6.026  73.393  1.00  0.00    -0.080 C  
HETATM   23  C   UNL     1      -5.930   5.502  72.481  1.00  0.00    -0.031 C  
ENDBRANCH  19  22
ENDBRANCH  15  19
BRANCH  16  24
HETATM   24  O   UNL     1     -12.509   9.038  71.111  1.00  0.00    -0.297 OA 
HETATM   25  C   UNL     1     -13.637   9.147  71.972  1.00  0.00    -0.459 C  
ENDBRANCH  16  24
ENDBRANCH  10  13
ENDBRANCH   8   9
ENDBRANCH   7   8
ENDBRANCH   2   3
TORSDOF 7
ENDMDL
MODEL      186
REMARK 921   NORMALIZED FREE ENERGY PREDICTED BY IDOCK:   -4.09 KCAL/MOL
REMARK 922        TOTAL FREE ENERGY PREDICTED BY IDOCK:   -6.64 KCAL/MOL
REMARK 923 INTER-LIGAND FREE ENERGY PREDICTED BY IDOCK:   -5.91 KCAL/MOL
REMARK 924 INTRA-LIGAND FREE ENERGY PREDICTED BY IDOCK:   -0.73 KCAL/MOL
REMARK 927      BINDING AFFINITY PREDICTED BY RF-SCORE:    0.00 PKD
ROOT
HETATM    1  C   UNL     1      -6.664  18.161  69.157  1.00  0.00    -0.252 C  
HETATM    2  C   UNL     1      -7.607  19.340  68.943  1.00  0.00    -0.349 C  
ENDROOT
BRANCH   2   3
HETATM    3  N   UNL     1      -7.563  19.850  67.567  1.00  0.00    -0.273 NA 
HETATM    4  C   UNL     1      -6.482  20.817  67.355  1.00  0.00    -0.310 C  
HETATM    5  C   UNL     1      -6.378  20.864  65.846  1.00  0.00    -0.266 C  
HETATM    6  C   UNL     1      -6.565  19.414  65.434  1.00  0.00    -0.310 C  
HETATM    7  C   UNL     1      -7.371  18.766  66.573  1.00  0.00    -0.236 C  
BRANCH   7   8
HETATM    8  C   UNL     1      -8.730  18.214  66.085  1.00  0.00    -0.090 C  
BRANCH   8   9
HETATM    9  N   UNL     1      -8.946  16.806  66.398  1.00  0.00    -0.271 N  
HETATM   10  C   UNL     1      -9.985  16.079  65.844  1.00  0.00    -0.352 C  
HETATM   11  H   UNL     1      -8.311  16.341  67.048  1.00  0.00     0.000 HD 
HETATM   12  O   UNL     1     -10.792  16.569  65.065  1.00  0.00    -0.622 OA 
BRANCH  10  13
HETATM   13  C   UNL     1     -10.102  14.655  66.282  1.00  0.00    -0.307 A  
HETATM   14  C   UNL     1      -9.001  14.097  66.968  1.00  0.00    -0.251 A  
HETATM   15  C   UNL     1      -9.079  12.812  67.518  1.00  0.00    -0.193 A  
HETATM   16  C   UNL     1     -11.279  13.893  66.155  1.00  0.00    -0.303 A  
HETATM   17  C   UNL     1     -10.242  12.061  67.400  1.00  0.00    -0.216 A  
HETATM   18  C   UNL     1     -11.337  12.610  66.731  1.00  0.00    -0.373 A  
BRANCH  15  19
HETATM   19  S   UNL     1      -7.641  12.102  68.292  1.00  0.00    -0.139 S  
HETATM   20  O   UNL     1      -8.103  10.967  69.065  1.00  0.00    -0.145 OA 
HETATM   21  O   UNL     1      -6.924  13.189  68.928  1.00  0.00    -0.101 OA 
BRANCH  19  22
HETATM   22  C   UNL     1      -6.661  11.496  66.932  1.00  0.00    -0.139 C  
HETATM   23  C   UNL     1      -7.291  10.262  66.311  1.00  0.00    -0.118 C  
ENDBRANCH  19  22
ENDBRANCH  15  19
BRANCH  16  24
HETATM   24  O   UNL     1     -12.467  14.264  65.586  1.00  0.00    -0.445 OA 
HETATM   25  C   UNL     1     -12.971  13.438  64.543  1.00  0.00     0.150 C  
ENDBRANCH  16  24
ENDBRANCH  10  13
ENDBRANCH   8   9
ENDBRANCH   7   8
ENDBRANCH   2   3
TORSDOF 7
ENDMDL
MODEL      187
REMARK 921   NORMALIZED FREE ENERGY PREDICTED BY IDOCK:   -4.08 KCAL/MOL
REMARK 922        TOTAL FREE ENERGY PREDICTED BY IDOCK:   -6.62 KCAL/MOL
REMARK 923 INTER-LIGAND FREE ENERGY PREDICTED BY IDOCK:   -5.77 KCAL/MOL
REMARK 924 INTRA-LIGAND FREE ENERGY PREDICTED BY IDOCK:   -0.85 KCAL/MOL
REMARK 927      BINDING AFFINITY PREDICTED BY RF-SCORE:    0.00 PKD
ROOT
HETATM    1  C   UNL     1      -9.972   8.041  72.359  1.00  0.00    -0.317 C  
HETATM    2  C   UNL     1     -10.544   7.743  70.977  1.00  0.00    -0.213 C  
ENDROOT
BRANCH   2   3
HETATM    3  N   UNL     1     -11.995   7.956  70.914  1.00  0.00    -0.246 NA 
HETATM    4  C   UNL     1     -12.751   6.925  71.631  1.00  0.00    -0.352 C  
HETATM    5  C   UNL     1     -14.114   7.565  71.781  1.00  0.00    -0.509 C  
HETATM    6  C   UNL     1     -13.791   9.015  72.094  1.00  0.00    -0.526 C  
HETATM    7  C   UNL     1     -12.396   9.263  71.492  1.00  0.00    -0.360 C  
BRANCH   7   8
HETATM    8  C   UNL     1     -12.415  10.365  70.409  1.00  0.00    -0.268 C  
BRANCH   8   9
HETATM    9  N   UNL     1     -11.091  10.820  70.001  1.00  0.00    -0.391 N  
HETATM   10  C   UNL     1     -10.675  10.786  68.681  1.00  0.00    -0.208 C  
HETATM   11  H   UNL     1     -10.451  11.175  70.711  1.00  0.00     0.000 HD 
HETATM   12  O   UNL     1     -11.383  10.365  67.776  1.00  0.00    -0.353 OA 
BRANCH  10  13
HETATM   13  C   UNL     1      -9.281  11.254  68.417  1.00  0.00    -0.178 A  
HETATM   14  C   UNL     1      -9.072  12.648  68.334  1.00  0.00    -0.128 A  
HETATM   15  C   UNL     1      -7.778  13.170  68.211  1.00  0.00    -0.141 A  
HETATM   16  C   UNL     1      -8.165  10.397  68.368  1.00  0.00    -0.114 A  
HETATM   17  C   UNL     1      -6.676  12.326  68.169  1.00  0.00    -0.069 A  
HETATM   18  C   UNL     1      -6.875  10.949  68.260  1.00  0.00    -0.067 A  
BRANCH  15  19
HETATM   19  S   UNL     1      -7.559  14.926  68.013  1.00  0.00    -0.136 S  
HETATM   20  O   UNL     1      -6.314  15.110  67.294  1.00  0.00    -0.312 OA 
HETATM   21  O   UNL     1      -7.756  15.527  69.317  1.00  0.00    -0.191 OA 
BRANCH  19  22
HETATM   22  C   UNL     1      -8.901  15.422  66.951  1.00  0.00    -0.253 C  
HETATM   23  C   UNL     1      -9.919  16.256  67.709  1.00  0.00    -0.246 C  
ENDBRANCH  19  22
ENDBRANCH  15  19
BRANCH  16  24
HETATM   24  O   UNL     1      -8.142   9.034  68.489  1.00  0.00    -0.105 OA 
HETATM   25  C   UNL     1      -7.071   8.346  67.853  1.00  0.00    -0.083 C  
ENDBRANCH  16  24
ENDBRANCH  10  13
ENDBRANCH   8   9
ENDBRANCH   7   8
ENDBRANCH   2   3
TORSDOF 7
ENDMDL
MODEL      188
REMARK 921   NORMALIZED FREE ENERGY PREDICTED BY IDOCK:   -4.07 KCAL/MOL
REMARK 922        TOTAL FREE ENERGY PREDICTED BY IDOCK:   -6.60 KCAL/MOL
REMARK 923 INTER-LIGAND FREE ENERGY PREDICTED BY IDOCK:   -5.73 KCAL/MOL
REMARK 924 INTRA-LIGAND FREE ENERGY PREDICTED BY IDOCK:   -0.87 KCAL/MOL
REMARK 927      BINDING AFFINITY PREDICTED BY RF-SCORE:    0.00 PKD
ROOT
HETATM    1  C   UNL     1     -14.338   8.464  71.929  1.00  0.00    -0.561 C  
HETATM    2  C   UNL     1     -13.310   9.569  71.712  1.00  0.00    -0.422 C  
ENDROOT
BRANCH   2   3
HETATM    3  N   UNL     1     -12.045   9.058  71.167  1.00  0.00    -0.295 NA 
HETATM    4  C   UNL     1     -11.358  10.035  70.318  1.00  0.00    -0.308 C  
HETATM    5  C   UNL     1      -9.958   9.468  70.237  1.00  0.00    -0.310 C  
HETATM    6  C   UNL     1      -9.701   8.958  71.645  1.00  0.00    -0.379 C  
HETATM    7  C   UNL     1     -11.092   8.670  72.236  1.00  0.00    -0.325 C  
BRANCH   7   8
HETATM    8  C   UNL     1     -11.265   7.184  72.621  1.00  0.00    -0.293 C  
BRANCH   8   9
HETATM    9  N   UNL     1     -11.046   6.254  71.519  1.00  0.00    -0.270 N  
HETATM   10  C   UNL     1      -9.965   5.391  71.487  1.00  0.00    -0.181 C  
HETATM   11  H   UNL     1     -11.712   6.239  70.746  1.00  0.00     0.000 HD 
HETATM   12  O   UNL     1      -9.120   5.358  72.372  1.00  0.00    -0.137 OA 
BRANCH  10  13
HETATM   13  C   UNL     1      -9.852   4.519  70.278  1.00  0.00    -0.299 A  
HETATM   14  C   UNL     1      -9.912   5.151  69.017  1.00  0.00    -0.265 A  
HETATM   15  C   UNL     1      -9.691   4.422  67.842  1.00  0.00    -0.129 A  
HETATM   16  C   UNL     1      -9.573   3.141  70.334  1.00  0.00    -0.122 A  
HETATM   17  C   UNL     1      -9.410   3.062  67.895  1.00  0.00    -0.255 A  
HETATM   18  C   UNL     1      -9.340   2.434  69.139  1.00  0.00    -0.191 A  
BRANCH  15  19
HETATM   19  S   UNL     1      -9.869   5.229  66.265  1.00  0.00    -0.182 S  
HETATM   20  O   UNL     1      -9.859   6.655  66.525  1.00  0.00    -0.166 OA 
HETATM   21  O   UNL     1     -10.994   4.606  65.596  1.00  0.00    -0.253 OA 
BRANCH  19  22
HETATM   22  C   UNL     1      -8.380   4.807  65.382  1.00  0.00    -0.122 C  
HETATM   23  C   UNL     1      -7.751   6.036  64.750  1.00  0.00    -0.101 C  
ENDBRANCH  19  22
ENDBRANCH  15  19
BRANCH  16  24
HETATM   24  O   UNL     1      -9.414   2.355  71.444  1.00  0.00    -0.119 OA 
HETATM   25  C   UNL     1      -8.081   2.097  71.869  1.00  0.00    -0.048 C  
ENDBRANCH  16  24
ENDBRANCH  10  13
ENDBRANCH   8   9
ENDBRANCH   7   8
ENDBRANCH   2   3
TORSDOF 7
ENDMDL
MODEL      189
REMARK 921   NORMALIZED FREE ENERGY PREDICTED BY IDOCK:   -4.07 KCAL/MOL
REMARK 922        TOTAL FREE ENERGY PREDICTED BY IDOCK:   -6.60 KCAL/MOL
REMARK 923 INTER-LIGAND FREE ENERGY PREDICTED BY IDOCK:   -6.00 KCAL/MOL
REMARK 924 INTRA-LIGAND FREE ENERGY PREDICTED BY IDOCK:   -0.60 KCAL/MOL
REMARK 927      BINDING AFFINITY PREDICTED BY RF-SCORE:    0.00 PKD
ROOT
HETATM    1  C   UNL     1     -12.940   7.211  71.518  1.00  0.00    -0.431 C  
HETATM    2  C   UNL     1     -11.648   6.563  72.006  1.00  0.00    -0.311 C  
ENDROOT
BRANCH   2   3
HETATM    3  N   UNL     1     -10.699   6.316  70.914  1.00  0.00    -0.246 NA 
HETATM    4  C   UNL     1     -10.533   4.890  70.619  1.00  0.00    -0.093 C  
HETATM    5  C   UNL     1      -9.881   4.913  69.254  1.00  0.00    -0.272 C  
HETATM    6  C   UNL     1     -10.601   6.041  68.536  1.00  0.00    -0.325 C  
HETATM    7  C   UNL     1     -11.115   6.972  69.650  1.00  0.00    -0.219 C  
BRANCH   7   8
HETATM    8  C   UNL     1     -10.521   8.394  69.541  1.00  0.00    -0.224 C  
BRANCH   8   9
HETATM    9  N   UNL     1     -10.543   8.946  68.191  1.00  0.00    -0.378 N  
HETATM   10  C   UNL     1      -9.391   9.355  67.543  1.00  0.00    -0.127 C  
HETATM   11  H   UNL     1     -11.437   9.033  67.708  1.00  0.00     0.000 HD 
HETATM   12  O   UNL     1      -8.284   9.290  68.061  1.00  0.00    -0.114 OA 
BRANCH  10  13
HETATM   13  C   UNL     1      -9.570   9.929  66.175  1.00  0.00    -0.275 A  
HETATM   14  C   UNL     1     -10.289  11.140  66.072  1.00  0.00    -0.308 A  
HETATM   15  C   UNL     1     -10.395  11.805  64.845  1.00  0.00    -0.289 A  
HETATM   16  C   UNL     1      -8.967   9.398  65.020  1.00  0.00    -0.211 A  
HETATM   17  C   UNL     1      -9.795  11.286  63.704  1.00  0.00    -0.377 A  
HETATM   18  C   UNL     1      -9.075  10.095  63.802  1.00  0.00    -0.293 A  
BRANCH  15  19
HETATM   19  S   UNL     1     -11.388  13.279  64.731  1.00  0.00    -0.343 S  
HETATM   20  O   UNL     1     -10.468  14.395  64.645  1.00  0.00    -0.412 OA 
HETATM   21  O   UNL     1     -12.371  13.209  65.794  1.00  0.00    -0.443 OA 
BRANCH  19  22
HETATM   22  C   UNL     1     -12.232  13.123  63.169  1.00  0.00    -0.196 C  
HETATM   23  C   UNL     1     -13.131  11.899  63.152  1.00  0.00     0.150 C  
ENDBRANCH  19  22
ENDBRANCH  15  19
BRANCH  16  24
HETATM   24  O   UNL     1      -8.185   8.280  64.914  1.00  0.00    -0.146 OA 
HETATM   25  C   UNL     1      -7.496   8.086  63.684  1.00  0.00    -0.118 C  
ENDBRANCH  16  24
ENDBRANCH  10  13
ENDBRANCH   8   9
ENDBRANCH   7   8
ENDBRANCH   2   3
TORSDOF 7
ENDMDL
MODEL      190
REMARK 921   NORMALIZED FREE ENERGY PREDICTED BY IDOCK:   -4.03 KCAL/MOL
REMARK 922        TOTAL FREE ENERGY PREDICTED BY IDOCK:   -6.55 KCAL/MOL
REMARK 923 INTER-LIGAND FREE ENERGY PREDICTED BY IDOCK:   -5.98 KCAL/MOL
REMARK 924 INTRA-LIGAND FREE ENERGY PREDICTED BY IDOCK:   -0.57 KCAL/MOL
REMARK 927      BINDING AFFINITY PREDICTED BY RF-SCORE:    0.00 PKD
ROOT
HETATM    1  C   UNL     1     -11.701  13.473  64.950  1.00  0.00    -0.381 C  
HETATM    2  C   UNL     1     -11.856  13.017  66.397  1.00  0.00    -0.405 C  
ENDROOT
BRANCH   2   3
HETATM    3  N   UNL     1     -10.957  13.732  67.310  1.00  0.00    -0.288 NA 
HETATM    4  C   UNL     1     -10.229  14.821  66.652  1.00  0.00    -0.269 C  
HETATM    5  C   UNL     1      -9.729  15.634  67.826  1.00  0.00    -0.218 C  
HETATM    6  C   UNL     1     -10.896  15.609  68.797  1.00  0.00    -0.262 C  
HETATM    7  C   UNL     1     -11.684  14.331  68.457  1.00  0.00    -0.341 C  
BRANCH   7   8
HETATM    8  C   UNL     1     -11.746  13.350  69.649  1.00  0.00    -0.310 C  
BRANCH   8   9
HETATM    9  N   UNL     1     -11.234  12.017  69.349  1.00  0.00    -0.399 N  
HETATM   10  C   UNL     1     -11.440  10.942  70.194  1.00  0.00    -0.319 C  
HETATM   11  H   UNL     1     -10.707  11.874  68.487  1.00  0.00     0.000 HD 
HETATM   12  O   UNL     1     -12.053  11.038  71.248  1.00  0.00    -0.295 OA 
BRANCH  10  13
HETATM   13  C   UNL     1     -10.829   9.644  69.772  1.00  0.00    -0.274 A  
HETATM   14  C   UNL     1      -9.842   9.692  68.764  1.00  0.00    -0.173 A  
HETATM   15  C   UNL     1      -9.136   8.539  68.401  1.00  0.00    -0.139 A  
HETATM   16  C   UNL     1     -11.096   8.414  70.403  1.00  0.00    -0.231 A  
HETATM   17  C   UNL     1      -9.393   7.325  69.026  1.00  0.00    -0.148 A  
HETATM   18  C   UNL     1     -10.360   7.273  70.030  1.00  0.00    -0.222 A  
BRANCH  15  19
HETATM   19  S   UNL     1      -7.967   8.614  67.060  1.00  0.00    -0.096 S  
HETATM   20  O   UNL     1      -8.086   7.365  66.334  1.00  0.00    -0.110 OA 
HETATM   21  O   UNL     1      -6.697   9.023  67.628  1.00  0.00    -0.064 OA 
BRANCH  19  22
HETATM   22  C   UNL     1      -8.572   9.929  66.020  1.00  0.00    -0.136 C  
HETATM   23  C   UNL     1      -9.401   9.382  64.872  1.00  0.00    -0.218 C  
ENDBRANCH  19  22
ENDBRANCH  15  19
BRANCH  16  24
HETATM   24  O   UNL     1     -11.961   8.164  71.433  1.00  0.00    -0.287 OA 
HETATM   25  C   UNL     1     -11.393   7.748  72.670  1.00  0.00    -0.393 C  
ENDBRANCH  16  24
ENDBRANCH  10  13
ENDBRANCH   8   9
ENDBRANCH   7   8
ENDBRANCH   2   3
TORSDOF 7
ENDMDL
MODEL      191
REMARK 921   NORMALIZED FREE ENERGY PREDICTED BY IDOCK:   -4.01 KCAL/MOL
REMARK 922        TOTAL FREE ENERGY PREDICTED BY IDOCK:   -6.53 KCAL/MOL
REMARK 923 INTER-LIGAND FREE ENERGY PREDICTED BY IDOCK:   -5.80 KCAL/MOL
REMARK 924 INTRA-LIGAND FREE ENERGY PREDICTED BY IDOCK:   -0.73 KCAL/MOL
REMARK 927      BINDING AFFINITY PREDICTED BY RF-SCORE:    0.00 PKD
ROOT
HETATM    1  C   UNL     1     -12.789  13.771  65.697  1.00  0.00    -0.456 C  
HETATM    2  C   UNL     1     -12.399  13.681  67.168  1.00  0.00    -0.190 C  
ENDROOT
BRANCH   2   3
HETATM    3  N   UNL     1     -11.412  12.625  67.423  1.00  0.00    -0.316 NA 
HETATM    4  C   UNL     1     -11.895  11.612  68.365  1.00  0.00    -0.278 C  
HETATM    5  C   UNL     1     -10.927  10.471  68.142  1.00  0.00    -0.330 C  
HETATM    6  C   UNL     1     -10.722  10.471  66.637  1.00  0.00    -0.222 C  
HETATM    7  C   UNL     1     -11.023  11.910  66.183  1.00  0.00    -0.308 C  
BRANCH   7   8
HETATM    8  C   UNL     1      -9.801  12.579  65.515  1.00  0.00    -0.183 C  
BRANCH   8   9
HETATM    9  N   UNL     1      -8.913  13.261  66.449  1.00  0.00    -0.458 N  
HETATM   10  C   UNL     1      -8.957  14.630  66.643  1.00  0.00    -0.238 C  
HETATM   11  H   UNL     1      -8.236  12.710  66.978  1.00  0.00     0.000 HD 
HETATM   12  O   UNL     1      -9.734  15.357  66.039  1.00  0.00    -0.287 OA 
BRANCH  10  13
HETATM   13  C   UNL     1      -7.964  15.193  67.608  1.00  0.00    -0.177 A  
HETATM   14  C   UNL     1      -7.775  16.592  67.598  1.00  0.00    -0.183 A  
HETATM   15  C   UNL     1      -6.957  17.209  68.552  1.00  0.00    -0.201 A  
HETATM   16  C   UNL     1      -7.310  14.427  68.591  1.00  0.00    -0.123 A  
HETATM   17  C   UNL     1      -6.315  16.455  69.527  1.00  0.00    -0.203 A  
HETATM   18  C   UNL     1      -6.505  15.073  69.548  1.00  0.00    -0.146 A  
BRANCH  15  19
HETATM   19  S   UNL     1      -6.664  18.962  68.452  1.00  0.00    -0.256 S  
HETATM   20  O   UNL     1      -7.908  19.613  68.813  1.00  0.00    -0.349 OA 
HETATM   21  O   UNL     1      -6.042  19.214  67.167  1.00  0.00    -0.172 OA 
BRANCH  19  22
HETATM   22  C   UNL     1      -5.468  19.285  69.733  1.00  0.00    -0.211 C  
HETATM   23  C   UNL     1      -5.985  20.318  70.718  1.00  0.00    -0.331 C  
ENDBRANCH  19  22
ENDBRANCH  15  19
BRANCH  16  24
HETATM   24  O   UNL     1      -7.403  13.080  68.811  1.00  0.00    -0.105 OA 
HETATM   25  C   UNL     1      -6.192  12.332  68.774  1.00  0.00    -0.072 C  
ENDBRANCH  16  24
ENDBRANCH  10  13
ENDBRANCH   8   9
ENDBRANCH   7   8
ENDBRANCH   2   3
TORSDOF 7
ENDMDL
MODEL      192
REMARK 921   NORMALIZED FREE ENERGY PREDICTED BY IDOCK:   -4.00 KCAL/MOL
REMARK 922        TOTAL FREE ENERGY PREDICTED BY IDOCK:   -6.51 KCAL/MOL
REMARK 923 INTER-LIGAND FREE ENERGY PREDICTED BY IDOCK:   -5.47 KCAL/MOL
REMARK 924 INTRA-LIGAND FREE ENERGY PREDICTED BY IDOCK:   -1.04 KCAL/MOL
REMARK 927      BINDING AFFINITY PREDICTED BY RF-SCORE:    0.00 PKD
ROOT
HETATM    1  C   UNL     1      -7.508   8.199  73.145  1.00  0.00    -0.175 C  
HETATM    2  C   UNL     1      -7.914   7.521  71.840  1.00  0.00    -0.094 C  
ENDROOT
BRANCH   2   3
HETATM    3  N   UNL     1      -9.282   6.989  71.887  1.00  0.00    -0.141 NA 
HETATM    4  C   UNL     1      -9.637   6.453  73.203  1.00  0.00    -0.150 C  
HETATM    5  C   UNL     1     -11.146   6.369  73.125  1.00  0.00    -0.194 C  
HETATM    6  C   UNL     1     -11.532   7.639  72.386  1.00  0.00    -0.392 C  
HETATM    7  C   UNL     1     -10.295   8.021  71.554  1.00  0.00    -0.209 C  
BRANCH   7   8
HETATM    8  C   UNL     1     -10.594   8.036  70.038  1.00  0.00    -0.242 C  
BRANCH   8   9
HETATM    9  N   UNL     1     -10.264   9.296  69.380  1.00  0.00    -0.202 N  
HETATM   10  C   UNL     1     -11.087  10.405  69.459  1.00  0.00    -0.264 C  
HETATM   11  H   UNL     1      -9.398   9.361  68.845  1.00  0.00     0.000 HD 
HETATM   12  O   UNL     1     -12.145  10.401  70.075  1.00  0.00    -0.267 OA 
BRANCH  10  13
HETATM   13  C   UNL     1     -10.637  11.616  68.708  1.00  0.00    -0.241 A  
HETATM   14  C   UNL     1     -10.936  12.876  69.272  1.00  0.00    -0.119 A  
HETATM   15  C   UNL     1     -10.442  14.052  68.695  1.00  0.00    -0.247 A  
HETATM   16  C   UNL     1      -9.838  11.564  67.550  1.00  0.00    -0.190 A  
HETATM   17  C   UNL     1      -9.648  14.002  67.556  1.00  0.00    -0.228 A  
HETATM   18  C   UNL     1      -9.341  12.760  66.999  1.00  0.00    -0.229 A  
BRANCH  15  19
HETATM   19  S   UNL     1     -10.918  15.627  69.375  1.00  0.00    -0.312 S  
HETATM   20  O   UNL     1     -10.842  15.496  70.817  1.00  0.00    -0.329 OA 
HETATM   21  O   UNL     1     -12.159  16.009  68.730  1.00  0.00    -0.255 OA 
BRANCH  19  22
HETATM   22  C   UNL     1      -9.636  16.744  68.843  1.00  0.00    -0.249 C  
HETATM   23  C   UNL     1     -10.220  17.939  68.110  1.00  0.00    -0.386 C  
ENDBRANCH  19  22
ENDBRANCH  15  19
BRANCH  16  24
HETATM   24  O   UNL     1      -9.386  10.456  66.885  1.00  0.00    -0.159 OA 
HETATM   25  C   UNL     1     -10.183   9.979  65.807  1.00  0.00    -0.200 C  
ENDBRANCH  16  24
ENDBRANCH  10  13
ENDBRANCH   8   9
ENDBRANCH   7   8
ENDBRANCH   2   3
TORSDOF 7
ENDMDL
MODEL      193
REMARK 921   NORMALIZED FREE ENERGY PREDICTED BY IDOCK:   -4.00 KCAL/MOL
REMARK 922        TOTAL FREE ENERGY PREDICTED BY IDOCK:   -6.51 KCAL/MOL
REMARK 923 INTER-LIGAND FREE ENERGY PREDICTED BY IDOCK:   -5.67 KCAL/MOL
REMARK 924 INTRA-LIGAND FREE ENERGY PREDICTED BY IDOCK:   -0.84 KCAL/MOL
REMARK 927      BINDING AFFINITY PREDICTED BY RF-SCORE:    0.00 PKD
ROOT
HETATM    1  C   UNL     1     -11.211  15.741  69.732  1.00  0.00    -0.330 C  
HETATM    2  C   UNL     1     -10.850  15.121  71.078  1.00  0.00    -0.074 C  
ENDROOT
BRANCH   2   3
HETATM    3  N   UNL     1     -12.010  15.001  71.970  1.00  0.00    -0.379 NA 
HETATM    4  C   UNL     1     -12.545  16.301  72.382  1.00  0.00    -0.249 C  
HETATM    5  C   UNL     1     -13.916  15.936  72.909  1.00  0.00    -0.428 C  
HETATM    6  C   UNL     1     -14.401  14.880  71.932  1.00  0.00    -0.667 C  
HETATM    7  C   UNL     1     -13.126  14.255  71.338  1.00  0.00    -0.351 C  
BRANCH   7   8
HETATM    8  C   UNL     1     -13.024  12.743  71.637  1.00  0.00    -0.303 C  
BRANCH   8   9
HETATM    9  N   UNL     1     -11.933  12.071  70.939  1.00  0.00    -0.375 N  
HETATM   10  C   UNL     1     -11.673  10.722  71.104  1.00  0.00    -0.056 C  
HETATM   11  H   UNL     1     -11.343  12.614  70.308  1.00  0.00     0.000 HD 
HETATM   12  O   UNL     1     -12.331  10.009  71.849  1.00  0.00    -0.374 OA 
BRANCH  10  13
HETATM   13  C   UNL     1     -10.503  10.179  70.349  1.00  0.00    -0.237 A  
HETATM   14  C   UNL     1      -9.851   9.050  70.892  1.00  0.00    -0.330 A  
HETATM   15  C   UNL     1      -8.828   8.408  70.184  1.00  0.00    -0.141 A  
HETATM   16  C   UNL     1     -10.101  10.652  69.085  1.00  0.00    -0.216 A  
HETATM   17  C   UNL     1      -8.434   8.869  68.934  1.00  0.00    -0.131 A  
HETATM   18  C   UNL     1      -9.081   9.978  68.388  1.00  0.00    -0.121 A  
BRANCH  15  19
HETATM   19  S   UNL     1      -7.963   7.047  70.940  1.00  0.00    -0.098 S  
HETATM   20  O   UNL     1      -8.792   6.585  72.035  1.00  0.00    -0.133 OA 
HETATM   21  O   UNL     1      -6.602   7.490  71.176  1.00  0.00    -0.039 OA 
BRANCH  19  22
HETATM   22  C   UNL     1      -7.937   5.786  69.681  1.00  0.00    -0.100 C  
HETATM   23  C   UNL     1      -6.620   5.793  68.925  1.00  0.00    -0.054 C  
ENDBRANCH  19  22
ENDBRANCH  15  19
BRANCH  16  24
HETATM   24  O   UNL     1     -10.635  11.683  68.361  1.00  0.00    -0.194 OA 
HETATM   25  C   UNL     1     -10.960  11.419  67.001  1.00  0.00    -0.292 C  
ENDBRANCH  16  24
ENDBRANCH  10  13
ENDBRANCH   8   9
ENDBRANCH   7   8
ENDBRANCH   2   3
TORSDOF 7
ENDMDL
MODEL      194
REMARK 921   NORMALIZED FREE ENERGY PREDICTED BY IDOCK:   -3.99 KCAL/MOL
REMARK 922        TOTAL FREE ENERGY PREDICTED BY IDOCK:   -6.49 KCAL/MOL
REMARK 923 INTER-LIGAND FREE ENERGY PREDICTED BY IDOCK:   -5.38 KCAL/MOL
REMARK 924 INTRA-LIGAND FREE ENERGY PREDICTED BY IDOCK:   -1.10 KCAL/MOL
REMARK 927      BINDING AFFINITY PREDICTED BY RF-SCORE:    0.00 PKD
ROOT
HETATM    1  C   UNL     1      -7.338   6.092  63.952  1.00  0.00    -0.067 C  
HETATM    2  C   UNL     1      -8.257   6.757  64.972  1.00  0.00    -0.096 C  
ENDROOT
BRANCH   2   3
HETATM    3  N   UNL     1      -7.825   8.118  65.312  1.00  0.00    -0.107 NA 
HETATM    4  C   UNL     1      -6.431   8.176  65.760  1.00  0.00    -0.052 C  
HETATM    5  C   UNL     1      -6.111   9.650  65.640  1.00  0.00    -0.066 C  
HETATM    6  C   UNL     1      -6.802  10.058  64.351  1.00  0.00    -0.127 C  
HETATM    7  C   UNL     1      -7.948   9.048  64.163  1.00  0.00    -0.144 C  
BRANCH   7   8
HETATM    8  C   UNL     1      -9.333   9.733  64.148  1.00  0.00    -0.175 C  
BRANCH   8   9
HETATM    9  N   UNL     1     -10.001   9.751  65.445  1.00  0.00    -0.355 N  
HETATM   10  C   UNL     1      -9.939  10.844  66.290  1.00  0.00    -0.227 C  
HETATM   11  H   UNL     1     -10.531   8.930  65.738  1.00  0.00     0.000 HD 
HETATM   12  O   UNL     1      -9.316  11.860  66.012  1.00  0.00    -0.229 OA 
BRANCH  10  13
HETATM   13  C   UNL     1     -10.646  10.706  67.600  1.00  0.00    -0.288 A  
HETATM   14  C   UNL     1     -10.417   9.524  68.337  1.00  0.00    -0.261 A  
HETATM   15  C   UNL     1     -10.942   9.373  69.626  1.00  0.00    -0.197 A  
HETATM   16  C   UNL     1     -11.419  11.729  68.182  1.00  0.00    -0.316 A  
HETATM   17  C   UNL     1     -11.701  10.384  70.204  1.00  0.00    -0.394 A  
HETATM   18  C   UNL     1     -11.923  11.558  69.485  1.00  0.00    -0.402 A  
BRANCH  15  19
HETATM   19  S   UNL     1     -10.715   7.832  70.489  1.00  0.00    -0.239 S  
HETATM   20  O   UNL     1     -10.421   6.832  69.482  1.00  0.00    -0.199 OA 
HETATM   21  O   UNL     1     -11.847   7.675  71.381  1.00  0.00    -0.278 OA 
BRANCH  19  22
HETATM   22  C   UNL     1      -9.251   8.088  71.472  1.00  0.00    -0.147 C  
HETATM   23  C   UNL     1      -9.597   8.222  72.945  1.00  0.00    -0.320 C  
ENDBRANCH  19  22
ENDBRANCH  15  19
BRANCH  16  24
HETATM   24  O   UNL     1     -11.709  12.964  67.668  1.00  0.00    -0.338 OA 
HETATM   25  C   UNL     1     -11.829  14.038  68.593  1.00  0.00    -0.361 C  
ENDBRANCH  16  24
ENDBRANCH  10  13
ENDBRANCH   8   9
ENDBRANCH   7   8
ENDBRANCH   2   3
TORSDOF 7
ENDMDL
MODEL      195
REMARK 921   NORMALIZED FREE ENERGY PREDICTED BY IDOCK:   -3.96 KCAL/MOL
REMARK 922        TOTAL FREE ENERGY PREDICTED BY IDOCK:   -6.45 KCAL/MOL
REMARK 923 INTER-LIGAND FREE ENERGY PREDICTED BY IDOCK:   -5.87 KCAL/MOL
REMARK 924 INTRA-LIGAND FREE ENERGY PREDICTED BY IDOCK:   -0.58 KCAL/MOL
REMARK 927      BINDING AFFINITY PREDICTED BY RF-SCORE:    0.00 PKD
ROOT
HETATM    1  C   UNL     1     -10.026   8.718  71.864  1.00  0.00    -0.401 C  
HETATM    2  C   UNL     1     -10.709   8.780  70.502  1.00  0.00    -0.223 C  
ENDROOT
BRANCH   2   3
HETATM    3  N   UNL     1     -12.173   8.770  70.608  1.00  0.00    -0.026 NA 
HETATM    4  C   UNL     1     -12.703   7.468  71.021  1.00  0.00    -0.162 C  
HETATM    5  C   UNL     1     -14.110   7.812  71.455  1.00  0.00    -0.509 C  
HETATM    6  C   UNL     1     -13.944   9.137  72.178  1.00  0.00    -0.466 C  
HETATM    7  C   UNL     1     -12.670   9.768  71.587  1.00  0.00    -0.422 C  
BRANCH   7   8
HETATM    8  C   UNL     1     -12.954  11.124  70.903  1.00  0.00    -0.187 C  
BRANCH   8   9
HETATM    9  N   UNL     1     -12.148  11.369  69.712  1.00  0.00    -0.322 N  
HETATM   10  C   UNL     1     -11.954  12.641  69.204  1.00  0.00    -0.243 C  
HETATM   11  H   UNL     1     -11.712  10.577  69.239  1.00  0.00     0.000 HD 
HETATM   12  O   UNL     1     -12.450  13.638  69.710  1.00  0.00    -0.265 OA 
BRANCH  10  13
HETATM   13  C   UNL     1     -11.130  12.736  67.960  1.00  0.00    -0.284 A  
HETATM   14  C   UNL     1     -10.432  11.577  67.557  1.00  0.00    -0.229 A  
HETATM   15  C   UNL     1      -9.740  11.547  66.340  1.00  0.00    -0.207 A  
HETATM   16  C   UNL     1     -11.113  13.865  67.119  1.00  0.00    -0.300 A  
HETATM   17  C   UNL     1      -9.726  12.659  65.506  1.00  0.00    -0.110 A  
HETATM   18  C   UNL     1     -10.422  13.804  65.894  1.00  0.00    -0.300 A  
BRANCH  15  19
HETATM   19  S   UNL     1      -8.791  10.103  65.908  1.00  0.00    -0.155 S  
HETATM   20  O   UNL     1      -9.129   9.780  64.536  1.00  0.00    -0.224 OA 
HETATM   21  O   UNL     1      -8.990   9.134  66.968  1.00  0.00    -0.121 OA 
BRANCH  19  22
HETATM   22  C   UNL     1      -7.098  10.656  65.956  1.00  0.00    -0.127 C  
HETATM   23  C   UNL     1      -6.716  11.131  67.347  1.00  0.00    -0.084 C  
ENDBRANCH  19  22
ENDBRANCH  15  19
BRANCH  16  24
HETATM   24  O   UNL     1     -11.764  15.056  67.292  1.00  0.00    -0.330 OA 
HETATM   25  C   UNL     1     -10.964  16.232  67.331  1.00  0.00    -0.175 C  
ENDBRANCH  16  24
ENDBRANCH  10  13
ENDBRANCH   8   9
ENDBRANCH   7   8
ENDBRANCH   2   3
TORSDOF 7
ENDMDL
MODEL      196
REMARK 921   NORMALIZED FREE ENERGY PREDICTED BY IDOCK:   -3.95 KCAL/MOL
REMARK 922        TOTAL FREE ENERGY PREDICTED BY IDOCK:   -6.44 KCAL/MOL
REMARK 923 INTER-LIGAND FREE ENERGY PREDICTED BY IDOCK:   -5.67 KCAL/MOL
REMARK 924 INTRA-LIGAND FREE ENERGY PREDICTED BY IDOCK:   -0.77 KCAL/MOL
REMARK 927      BINDING AFFINITY PREDICTED BY RF-SCORE:    0.00 PKD
ROOT
HETATM    1  C   UNL     1     -11.006  15.238  70.219  1.00  0.00    -0.313 C  
HETATM    2  C   UNL     1     -11.836  15.808  69.074  1.00  0.00    -0.355 C  
ENDROOT
BRANCH   2   3
HETATM    3  N   UNL     1     -11.044  16.658  68.176  1.00  0.00    -0.340 NA 
HETATM    4  C   UNL     1     -10.447  17.807  68.863  1.00  0.00    -0.211 C  
HETATM    5  C   UNL     1      -9.388  18.258  67.881  1.00  0.00    -0.284 C  
HETATM    6  C   UNL     1      -8.814  16.954  67.355  1.00  0.00    -0.212 C  
HETATM    7  C   UNL     1      -9.932  15.913  67.536  1.00  0.00    -0.238 C  
BRANCH   7   8
HETATM    8  C   UNL     1     -10.378  15.296  66.192  1.00  0.00    -0.302 C  
BRANCH   8   9
HETATM    9  N   UNL     1     -10.524  13.845  66.223  1.00  0.00    -0.282 N  
HETATM   10  C   UNL     1      -9.496  13.009  66.621  1.00  0.00    -0.256 C  
HETATM   11  H   UNL     1     -11.414  13.433  65.941  1.00  0.00     0.000 HD 
HETATM   12  O   UNL     1      -8.399  13.429  66.964  1.00  0.00    -0.165 OA 
BRANCH  10  13
HETATM   13  C   UNL     1      -9.780  11.543  66.571  1.00  0.00    -0.226 A  
HETATM   14  C   UNL     1      -8.878  10.734  65.846  1.00  0.00    -0.191 A  
HETATM   15  C   UNL     1      -9.005   9.340  65.854  1.00  0.00    -0.184 A  
HETATM   16  C   UNL     1     -10.814  10.923  67.298  1.00  0.00    -0.287 A  
HETATM   17  C   UNL     1     -10.020   8.725  66.575  1.00  0.00    -0.360 A  
HETATM   18  C   UNL     1     -10.909   9.518  67.302  1.00  0.00    -0.188 A  
BRANCH  15  19
HETATM   19  S   UNL     1      -7.910   8.356  64.851  1.00  0.00    -0.128 S  
HETATM   20  O   UNL     1      -8.411   8.431  63.493  1.00  0.00    -0.143 OA 
HETATM   21  O   UNL     1      -7.762   7.076  65.516  1.00  0.00    -0.092 OA 
BRANCH  19  22
HETATM   22  C   UNL     1      -6.351   9.216  64.925  1.00  0.00    -0.066 C  
HETATM   23  C   UNL     1      -5.825   9.518  63.532  1.00  0.00    -0.092 C  
ENDBRANCH  19  22
ENDBRANCH  15  19
BRANCH  16  24
HETATM   24  O   UNL     1     -11.748  11.511  68.106  1.00  0.00    -0.426 OA 
HETATM   25  C   UNL     1     -11.656  11.248  69.501  1.00  0.00    -0.328 C  
ENDBRANCH  16  24
ENDBRANCH  10  13
ENDBRANCH   8   9
ENDBRANCH   7   8
ENDBRANCH   2   3
TORSDOF 7
ENDMDL
MODEL      197
REMARK 921   NORMALIZED FREE ENERGY PREDICTED BY IDOCK:   -3.94 KCAL/MOL
REMARK 922        TOTAL FREE ENERGY PREDICTED BY IDOCK:   -6.42 KCAL/MOL
REMARK 923 INTER-LIGAND FREE ENERGY PREDICTED BY IDOCK:   -5.51 KCAL/MOL
REMARK 924 INTRA-LIGAND FREE ENERGY PREDICTED BY IDOCK:   -0.91 KCAL/MOL
REMARK 927      BINDING AFFINITY PREDICTED BY RF-SCORE:    0.00 PKD
ROOT
HETATM    1  C   UNL     1     -11.141  15.978  70.135  1.00  0.00    -0.372 C  
HETATM    2  C   UNL     1     -11.275  15.847  68.621  1.00  0.00    -0.360 C  
ENDROOT
BRANCH   2   3
HETATM    3  N   UNL     1     -10.029  16.177  67.918  1.00  0.00    -0.236 NA 
HETATM    4  C   UNL     1      -9.652  17.586  68.064  1.00  0.00    -0.282 C  
HETATM    5  C   UNL     1      -8.199  17.579  67.643  1.00  0.00    -0.218 C  
HETATM    6  C   UNL     1      -7.660  16.295  68.251  1.00  0.00    -0.153 C  
HETATM    7  C   UNL     1      -8.881  15.371  68.403  1.00  0.00    -0.177 C  
BRANCH   7   8
HETATM    8  C   UNL     1      -8.733  14.069  67.586  1.00  0.00    -0.189 C  
BRANCH   8   9
HETATM    9  N   UNL     1      -9.024  12.856  68.342  1.00  0.00    -0.320 N  
HETATM   10  C   UNL     1     -10.023  11.975  67.966  1.00  0.00    -0.197 C  
HETATM   11  H   UNL     1      -8.473  12.650  69.175  1.00  0.00     0.000 HD 
HETATM   12  O   UNL     1     -10.730  12.160  66.985  1.00  0.00    -0.226 OA 
BRANCH  10  13
HETATM   13  C   UNL     1     -10.228  10.792  68.855  1.00  0.00    -0.219 A  
HETATM   14  C   UNL     1      -9.338   9.706  68.702  1.00  0.00    -0.143 A  
HETATM   15  C   UNL     1      -9.386   8.614  69.577  1.00  0.00    -0.153 A  
HETATM   16  C   UNL     1     -11.170  10.754  69.900  1.00  0.00    -0.300 A  
HETATM   17  C   UNL     1     -10.312   8.578  70.613  1.00  0.00    -0.232 A  
HETATM   18  C   UNL     1     -11.187   9.652  70.775  1.00  0.00    -0.403 A  
BRANCH  15  19
HETATM   19  S   UNL     1      -8.315   7.220  69.297  1.00  0.00    -0.133 S  
HETATM   20  O   UNL     1      -8.487   6.330  70.428  1.00  0.00    -0.130 OA 
HETATM   21  O   UNL     1      -7.007   7.752  68.965  1.00  0.00    -0.065 OA 
BRANCH  19  22
HETATM   22  C   UNL     1      -8.989   6.429  67.849  1.00  0.00    -0.114 C  
HETATM   23  C   UNL     1      -9.571   5.068  68.190  1.00  0.00    -0.182 C  
ENDBRANCH  19  22
ENDBRANCH  15  19
BRANCH  16  24
HETATM   24  O   UNL     1     -12.075  11.717  70.256  1.00  0.00    -0.338 OA 
HETATM   25  C   UNL     1     -12.917  11.436  71.368  1.00  0.00    -0.365 C  
ENDBRANCH  16  24
ENDBRANCH  10  13
ENDBRANCH   8   9
ENDBRANCH   7   8
ENDBRANCH   2   3
TORSDOF 7
ENDMDL
MODEL      198
REMARK 921   NORMALIZED FREE ENERGY PREDICTED BY IDOCK:   -3.94 KCAL/MOL
REMARK 922        TOTAL FREE ENERGY PREDICTED BY IDOCK:   -6.42 KCAL/MOL
REMARK 923 INTER-LIGAND FREE ENERGY PREDICTED BY IDOCK:   -5.69 KCAL/MOL
REMARK 924 INTRA-LIGAND FREE ENERGY PREDICTED BY IDOCK:   -0.72 KCAL/MOL
REMARK 927      BINDING AFFINITY PREDICTED BY RF-SCORE:    0.00 PKD
ROOT
HETATM    1  C   UNL     1      -7.411   9.006  70.835  1.00  0.00    -0.128 C  
HETATM    2  C   UNL     1      -8.435   8.695  69.748  1.00  0.00    -0.129 C  
ENDROOT
BRANCH   2   3
HETATM    3  N   UNL     1      -9.692   8.172  70.296  1.00  0.00    -0.175 NA 
HETATM    4  C   UNL     1      -9.513   6.914  71.026  1.00  0.00    -0.163 C  
HETATM    5  C   UNL     1     -10.798   6.811  71.817  1.00  0.00    -0.257 C  
HETATM    6  C   UNL     1     -11.055   8.240  72.264  1.00  0.00    -0.429 C  
HETATM    7  C   UNL     1     -10.336   9.126  71.232  1.00  0.00    -0.334 C  
BRANCH   7   8
HETATM    8  C   UNL     1     -11.313  10.062  70.485  1.00  0.00    -0.335 C  
BRANCH   8   9
HETATM    9  N   UNL     1     -10.660  11.016  69.596  1.00  0.00    -0.439 N  
HETATM   10  C   UNL     1     -11.313  12.133  69.106  1.00  0.00    -0.276 C  
HETATM   11  H   UNL     1      -9.689  10.855  69.327  1.00  0.00     0.000 HD 
HETATM   12  O   UNL     1     -12.479  12.387  69.377  1.00  0.00     0.011 OA 
BRANCH  10  13
HETATM   13  C   UNL     1     -10.528  13.004  68.180  1.00  0.00    -0.252 A  
HETATM   14  C   UNL     1      -9.263  13.447  68.625  1.00  0.00     0.001 A  
HETATM   15  C   UNL     1      -8.415  14.162  67.771  1.00  0.00    -0.178 A  
HETATM   16  C   UNL     1     -10.924  13.299  66.862  1.00  0.00    -0.283 A  
HETATM   17  C   UNL     1      -8.802  14.449  66.468  1.00  0.00    -0.122 A  
HETATM   18  C   UNL     1     -10.046  14.006  66.018  1.00  0.00    -0.327 A  
BRANCH  15  19
HETATM   19  S   UNL     1      -6.870  14.788  68.395  1.00  0.00    -0.115 S  
HETATM   20  O   UNL     1      -5.837  14.318  67.494  1.00  0.00    -0.343 OA 
HETATM   21  O   UNL     1      -6.823  14.466  69.808  1.00  0.00    -0.144 OA 
BRANCH  19  22
HETATM   22  C   UNL     1      -7.007  16.556  68.222  1.00  0.00    -0.143 C  
HETATM   23  C   UNL     1      -8.302  17.067  68.829  1.00  0.00    -0.237 C  
ENDBRANCH  19  22
ENDBRANCH  15  19
BRANCH  16  24
HETATM   24  O   UNL     1     -12.070  12.917  66.219  1.00  0.00    -0.415 OA 
HETATM   25  C   UNL     1     -12.656  13.857  65.326  1.00  0.00    -0.478 C  
ENDBRANCH  16  24
ENDBRANCH  10  13
ENDBRANCH   8   9
ENDBRANCH   7   8
ENDBRANCH   2   3
TORSDOF 7
ENDMDL
MODEL      199
REMARK 921   NORMALIZED FREE ENERGY PREDICTED BY IDOCK:   -3.93 KCAL/MOL
REMARK 922        TOTAL FREE ENERGY PREDICTED BY IDOCK:   -6.40 KCAL/MOL
REMARK 923 INTER-LIGAND FREE ENERGY PREDICTED BY IDOCK:   -5.38 KCAL/MOL
REMARK 924 INTRA-LIGAND FREE ENERGY PREDICTED BY IDOCK:   -1.03 KCAL/MOL
REMARK 927      BINDING AFFINITY PREDICTED BY RF-SCORE:    0.00 PKD
ROOT
HETATM    1  C   UNL     1     -10.760  11.330  63.627  1.00  0.00    -0.438 C  
HETATM    2  C   UNL     1      -9.484  10.830  62.957  1.00  0.00    -0.351 C  
ENDROOT
BRANCH   2   3
HETATM    3  N   UNL     1      -8.828   9.765  63.726  1.00  0.00    -0.221 NA 
HETATM    4  C   UNL     1      -8.354   8.666  62.880  1.00  0.00    -0.164 C  
HETATM    5  C   UNL     1      -7.388   7.946  63.795  1.00  0.00    -0.103 C  
HETATM    6  C   UNL     1      -6.676   9.076  64.518  1.00  0.00    -0.078 C  
HETATM    7  C   UNL     1      -7.654  10.263  64.484  1.00  0.00    -0.095 C  
BRANCH   7   8
HETATM    8  C   UNL     1      -8.063  10.724  65.901  1.00  0.00    -0.148 C  
BRANCH   8   9
HETATM    9  N   UNL     1      -8.911   9.775  66.613  1.00  0.00    -0.141 N  
HETATM   10  C   UNL     1      -8.626   9.353  67.899  1.00  0.00    -0.120 C  
HETATM   11  H   UNL     1      -9.743   9.411  66.147  1.00  0.00     0.000 HD 
HETATM   12  O   UNL     1      -7.644   9.738  68.518  1.00  0.00    -0.079 OA 
BRANCH  10  13
HETATM   13  C   UNL     1      -9.568   8.354  68.490  1.00  0.00    -0.155 A  
HETATM   14  C   UNL     1     -10.241   8.722  69.675  1.00  0.00    -0.210 A  
HETATM   15  C   UNL     1     -11.230   7.894  70.221  1.00  0.00    -0.200 A  
HETATM   16  C   UNL     1      -9.904   7.136  67.869  1.00  0.00    -0.144 A  
HETATM   17  C   UNL     1     -11.567   6.694  69.608  1.00  0.00    -0.305 A  
HETATM   18  C   UNL     1     -10.912   6.329  68.431  1.00  0.00    -0.409 A  
BRANCH  15  19
HETATM   19  S   UNL     1     -11.989   8.342  71.768  1.00  0.00    -0.350 S  
HETATM   20  O   UNL     1     -13.248   7.627  71.835  1.00  0.00    -0.310 OA 
HETATM   21  O   UNL     1     -11.954   9.789  71.853  1.00  0.00    -0.365 OA 
BRANCH  19  22
HETATM   22  C   UNL     1     -10.896   7.676  73.007  1.00  0.00    -0.400 C  
HETATM   23  C   UNL     1      -9.530   8.336  72.945  1.00  0.00    -0.321 C  
ENDBRANCH  19  22
ENDBRANCH  15  19
BRANCH  16  24
HETATM   24  O   UNL     1      -9.420   6.624  66.696  1.00  0.00    -0.157 OA 
HETATM   25  C   UNL     1      -8.722   5.386  66.768  1.00  0.00    -0.113 C  
ENDBRANCH  16  24
ENDBRANCH  10  13
ENDBRANCH   8   9
ENDBRANCH   7   8
ENDBRANCH   2   3
TORSDOF 7
ENDMDL
MODEL      200
REMARK 921   NORMALIZED FREE ENERGY PREDICTED BY IDOCK:   -3.93 KCAL/MOL
REMARK 922        TOTAL FREE ENERGY PREDICTED BY IDOCK:   -6.40 KCAL/MOL
REMARK 923 INTER-LIGAND FREE ENERGY PREDICTED BY IDOCK:   -5.81 KCAL/MOL
REMARK 924 INTRA-LIGAND FREE ENERGY PREDICTED BY IDOCK:   -0.59 KCAL/MOL
REMARK 927      BINDING AFFINITY PREDICTED BY RF-SCORE:    0.00 PKD
ROOT
HETATM    1  C   UNL     1     -13.139  11.052  70.567  1.00  0.00    -0.031 C  
HETATM    2  C   UNL     1     -12.295  12.118  71.256  1.00  0.00    -0.070 C  
ENDROOT
BRANCH   2   3
HETATM    3  N   UNL     1     -12.889  13.456  71.154  1.00  0.00    -0.320 NA 
HETATM    4  C   UNL     1     -13.846  13.735  72.227  1.00  0.00    -0.580 C  
HETATM    5  C   UNL     1     -13.985  15.240  72.157  1.00  0.00    -0.650 C  
HETATM    6  C   UNL     1     -12.567  15.714  71.886  1.00  0.00    -0.509 C  
HETATM    7  C   UNL     1     -11.865  14.529  71.201  1.00  0.00    -0.292 C  
BRANCH   7   8
HETATM    8  C   UNL     1     -11.370  14.886  69.781  1.00  0.00    -0.283 C  
BRANCH   8   9
HETATM    9  N   UNL     1     -10.867  13.747  69.022  1.00  0.00    -0.326 N  
HETATM   10  C   UNL     1      -9.569  13.695  68.545  1.00  0.00    -0.165 C  
HETATM   11  H   UNL     1     -11.492  12.962  68.838  1.00  0.00     0.000 HD 
HETATM   12  O   UNL     1      -8.765  14.600  68.719  1.00  0.00    -0.174 OA 
BRANCH  10  13
HETATM   13  C   UNL     1      -9.204  12.478  67.757  1.00  0.00    -0.198 A  
HETATM   14  C   UNL     1      -9.610  12.439  66.405  1.00  0.00    -0.249 A  
HETATM   15  C   UNL     1      -9.201  11.393  65.568  1.00  0.00    -0.177 A  
HETATM   16  C   UNL     1      -8.386  11.444  68.251  1.00  0.00    -0.152 A  
HETATM   17  C   UNL     1      -8.390  10.375  66.052  1.00  0.00    -0.149 A  
HETATM   18  C   UNL     1      -7.978  10.414  67.384  1.00  0.00    -0.107 A  
BRANCH  15  19
HETATM   19  S   UNL     1      -9.810  11.323  63.896  1.00  0.00    -0.328 S  
HETATM   20  O   UNL     1      -9.522   9.990  63.405  1.00  0.00    -0.294 OA 
HETATM   21  O   UNL     1      -9.296  12.492  63.210  1.00  0.00     0.137 OA 
BRANCH  19  22
HETATM   22  C   UNL     1     -11.576  11.493  64.061  1.00  0.00    -0.191 C  
HETATM   23  C   UNL     1     -12.073  12.748  63.365  1.00  0.00    -0.619 C  
ENDBRANCH  19  22
ENDBRANCH  15  19
BRANCH  16  24
HETATM   24  O   UNL     1      -7.839  11.324  69.499  1.00  0.00     0.042 OA 
HETATM   25  C   UNL     1      -6.462  11.655  69.638  1.00  0.00    -0.124 C  
ENDBRANCH  16  24
ENDBRANCH  10  13
ENDBRANCH   8   9
ENDBRANCH   7   8
ENDBRANCH   2   3
TORSDOF 7
ENDMDL
MODEL      201
REMARK 921   NORMALIZED FREE ENERGY PREDICTED BY IDOCK:   -3.91 KCAL/MOL
REMARK 922        TOTAL FREE ENERGY PREDICTED BY IDOCK:   -6.38 KCAL/MOL
REMARK 923 INTER-LIGAND FREE ENERGY PREDICTED BY IDOCK:   -5.74 KCAL/MOL
REMARK 924 INTRA-LIGAND FREE ENERGY PREDICTED BY IDOCK:   -0.64 KCAL/MOL
REMARK 927      BINDING AFFINITY PREDICTED BY RF-SCORE:    0.00 PKD
ROOT
HETATM    1  C   UNL     1     -11.747  12.136  64.352  1.00  0.00    -0.430 C  
HETATM    2  C   UNL     1     -10.993  11.707  65.606  1.00  0.00    -0.266 C  
ENDROOT
BRANCH   2   3
HETATM    3  N   UNL     1     -10.858  12.797  66.580  1.00  0.00    -0.260 NA 
HETATM    4  C   UNL     1     -11.302  14.089  66.051  1.00  0.00    -0.328 C  
HETATM    5  C   UNL     1     -11.464  14.917  67.307  1.00  0.00    -0.350 C  
HETATM    6  C   UNL     1     -12.073  13.940  68.298  1.00  0.00    -0.322 C  
HETATM    7  C   UNL     1     -11.640  12.545  67.815  1.00  0.00    -0.343 C  
BRANCH   7   8
HETATM    8  C   UNL     1     -10.790  11.800  68.869  1.00  0.00    -0.223 C  
BRANCH   8   9
HETATM    9  N   UNL     1     -10.710  10.359  68.658  1.00  0.00    -0.204 N  
HETATM   10  C   UNL     1     -10.550   9.469  69.705  1.00  0.00    -0.236 C  
HETATM   11  H   UNL     1     -10.774   9.996  67.707  1.00  0.00     0.000 HD 
HETATM   12  O   UNL     1     -10.457   9.830  70.870  1.00  0.00    -0.302 OA 
BRANCH  10  13
HETATM   13  C   UNL     1     -10.452   8.024  69.334  1.00  0.00    -0.223 A  
HETATM   14  C   UNL     1      -9.596   7.689  68.262  1.00  0.00    -0.160 A  
HETATM   15  C   UNL     1      -9.354   6.350  67.934  1.00  0.00    -0.114 A  
HETATM   16  C   UNL     1     -11.063   6.988  70.064  1.00  0.00    -0.278 A  
HETATM   17  C   UNL     1      -9.952   5.325  68.656  1.00  0.00    -0.234 A  
HETATM   18  C   UNL     1     -10.791   5.649  69.723  1.00  0.00    -0.370 A  
BRANCH  15  19
HETATM   19  S   UNL     1      -8.347   5.965  66.516  1.00  0.00    -0.114 S  
HETATM   20  O   UNL     1      -9.246   5.479  65.488  1.00  0.00    -0.138 OA 
HETATM   21  O   UNL     1      -7.250   5.143  66.988  1.00  0.00    -0.078 OA 
BRANCH  19  22
HETATM   22  C   UNL     1      -7.695   7.539  65.997  1.00  0.00    -0.094 C  
HETATM   23  C   UNL     1      -8.531   8.137  64.878  1.00  0.00    -0.094 C  
ENDBRANCH  19  22
ENDBRANCH  15  19
BRANCH  16  24
HETATM   24  O   UNL     1     -11.871   7.092  71.163  1.00  0.00    -0.301 OA 
HETATM   25  C   UNL     1     -11.751   6.077  72.154  1.00  0.00    -0.279 C  
ENDBRANCH  16  24
ENDBRANCH  10  13
ENDBRANCH   8   9
ENDBRANCH   7   8
ENDBRANCH   2   3
TORSDOF 7
ENDMDL
MODEL      202
REMARK 921   NORMALIZED FREE ENERGY PREDICTED BY IDOCK:   -3.90 KCAL/MOL
REMARK 922        TOTAL FREE ENERGY PREDICTED BY IDOCK:   -6.37 KCAL/MOL
REMARK 923 INTER-LIGAND FREE ENERGY PREDICTED BY IDOCK:   -5.65 KCAL/MOL
REMARK 924 INTRA-LIGAND FREE ENERGY PREDICTED BY IDOCK:   -0.72 KCAL/MOL
REMARK 927      BINDING AFFINITY PREDICTED BY RF-SCORE:    0.00 PKD
ROOT
HETATM    1  C   UNL     1      -6.968   7.003  65.824  1.00  0.00    -0.060 C  
HETATM    2  C   UNL     1      -8.083   6.078  66.301  1.00  0.00    -0.112 C  
ENDROOT
BRANCH   2   3
HETATM    3  N   UNL     1      -7.744   5.392  67.554  1.00  0.00    -0.092 NA 
HETATM    4  C   UNL     1      -6.425   4.755  67.513  1.00  0.00    -0.045 C  
HETATM    5  C   UNL     1      -6.140   4.504  68.978  1.00  0.00    -0.030 C  
HETATM    6  C   UNL     1      -6.665   5.755  69.660  1.00  0.00    -0.055 C  
HETATM    7  C   UNL     1      -7.742   6.315  68.715  1.00  0.00    -0.100 C  
BRANCH   7   8
HETATM    8  C   UNL     1      -9.134   6.369  69.384  1.00  0.00    -0.140 C  
BRANCH   8   9
HETATM    9  N   UNL     1      -9.633   7.721  69.609  1.00  0.00    -0.163 N  
HETATM   10  C   UNL     1     -10.877   7.964  70.164  1.00  0.00    -0.243 C  
HETATM   11  H   UNL     1      -9.045   8.514  69.349  1.00  0.00     0.000 HD 
HETATM   12  O   UNL     1     -11.640   7.066  70.493  1.00  0.00    -0.308 OA 
BRANCH  10  13
HETATM   13  C   UNL     1     -11.267   9.400  70.305  1.00  0.00    -0.286 A  
HETATM   14  C   UNL     1     -10.913  10.273  69.253  1.00  0.00    -0.284 A  
HETATM   15  C   UNL     1     -11.349  11.603  69.252  1.00  0.00    -0.290 A  
HETATM   16  C   UNL     1     -12.062   9.893  71.357  1.00  0.00    -0.413 A  
HETATM   17  C   UNL     1     -12.138  12.090  70.286  1.00  0.00    -0.395 A  
HETATM   18  C   UNL     1     -12.499  11.231  71.324  1.00  0.00    -0.441 A  
BRANCH  15  19
HETATM   19  S   UNL     1     -10.805  12.701  67.960  1.00  0.00    -0.236 S  
HETATM   20  O   UNL     1     -11.883  12.773  66.994  1.00  0.00    -0.372 OA 
HETATM   21  O   UNL     1      -9.482  12.262  67.562  1.00  0.00    -0.175 OA 
BRANCH  19  22
HETATM   22  C   UNL     1     -10.659  14.287  68.760  1.00  0.00    -0.252 C  
HETATM   23  C   UNL     1     -11.587  15.308  68.125  1.00  0.00    -0.344 C  
ENDBRANCH  19  22
ENDBRANCH  15  19
BRANCH  16  24
HETATM   24  O   UNL     1     -12.560   9.208  72.432  1.00  0.00    -0.368 OA 
HETATM   25  C   UNL     1     -13.955   8.928  72.431  1.00  0.00    -0.448 C  
ENDBRANCH  16  24
ENDBRANCH  10  13
ENDBRANCH   8   9
ENDBRANCH   7   8
ENDBRANCH   2   3
TORSDOF 7
ENDMDL
MODEL      203
REMARK 921   NORMALIZED FREE ENERGY PREDICTED BY IDOCK:   -3.88 KCAL/MOL
REMARK 922        TOTAL FREE ENERGY PREDICTED BY IDOCK:   -6.33 KCAL/MOL
REMARK 923 INTER-LIGAND FREE ENERGY PREDICTED BY IDOCK:   -5.53 KCAL/MOL
REMARK 924 INTRA-LIGAND FREE ENERGY PREDICTED BY IDOCK:   -0.81 KCAL/MOL
REMARK 927      BINDING AFFINITY PREDICTED BY RF-SCORE:    0.00 PKD
ROOT
HETATM    1  C   UNL     1     -11.789   5.774  72.415  1.00  0.00    -0.227 C  
HETATM    2  C   UNL     1     -11.615   6.026  70.921  1.00  0.00    -0.077 C  
ENDROOT
BRANCH   2   3
HETATM    3  N   UNL     1     -11.584   7.456  70.594  1.00  0.00    -0.288 NA 
HETATM    4  C   UNL     1     -12.736   8.186  71.129  1.00  0.00    -0.118 C  
HETATM    5  C   UNL     1     -12.280   9.626  71.039  1.00  0.00    -0.409 C  
HETATM    6  C   UNL     1     -10.818   9.560  71.444  1.00  0.00    -0.382 C  
HETATM    7  C   UNL     1     -10.368   8.125  71.120  1.00  0.00    -0.198 C  
BRANCH   7   8
HETATM    8  C   UNL     1      -9.224   8.093  70.083  1.00  0.00    -0.155 C  
BRANCH   8   9
HETATM    9  N   UNL     1      -9.184   9.257  69.205  1.00  0.00    -0.148 N  
HETATM   10  C   UNL     1      -8.353  10.336  69.451  1.00  0.00    -0.161 C  
HETATM   11  H   UNL     1      -9.787   9.277  68.383  1.00  0.00     0.000 HD 
HETATM   12  O   UNL     1      -7.608  10.389  70.420  1.00  0.00    -0.180 OA 
BRANCH  10  13
HETATM   13  C   UNL     1      -8.443  11.472  68.484  1.00  0.00    -0.143 A  
HETATM   14  C   UNL     1      -9.718  11.773  67.956  1.00  0.00    -0.185 A  
HETATM   15  C   UNL     1      -9.907  12.896  67.142  1.00  0.00    -0.225 A  
HETATM   16  C   UNL     1      -7.363  12.319  68.171  1.00  0.00    -0.105 A  
HETATM   17  C   UNL     1      -8.843  13.736  66.837  1.00  0.00    -0.203 A  
HETATM   18  C   UNL     1      -7.583  13.450  67.363  1.00  0.00    -0.138 A  
BRANCH  15  19
HETATM   19  S   UNL     1     -11.506  13.191  66.416  1.00  0.00    -0.351 S  
HETATM   20  O   UNL     1     -12.011  14.415  67.007  1.00  0.00    -0.409 OA 
HETATM   21  O   UNL     1     -12.254  11.954  66.523  1.00  0.00    -0.483 OA 
BRANCH  19  22
HETATM   22  C   UNL     1     -11.160  13.497  64.695  1.00  0.00    -0.374 C  
HETATM   23  C   UNL     1     -11.040  12.196  63.921  1.00  0.00    -0.470 C  
ENDBRANCH  19  22
ENDBRANCH  15  19
BRANCH  16  24
HETATM   24  O   UNL     1      -6.072  12.242  68.620  1.00  0.00    -0.054 OA 
HETATM   25  C   UNL     1      -5.159  11.482  67.837  1.00  0.00    -0.046 C  
ENDBRANCH  16  24
ENDBRANCH  10  13
ENDBRANCH   8   9
ENDBRANCH   7   8
ENDBRANCH   2   3
TORSDOF 7
ENDMDL
MODEL      204
REMARK 921   NORMALIZED FREE ENERGY PREDICTED BY IDOCK:   -3.88 KCAL/MOL
REMARK 922        TOTAL FREE ENERGY PREDICTED BY IDOCK:   -6.33 KCAL/MOL
REMARK 923 INTER-LIGAND FREE ENERGY PREDICTED BY IDOCK:   -5.66 KCAL/MOL
REMARK 924 INTRA-LIGAND FREE ENERGY PREDICTED BY IDOCK:   -0.68 KCAL/MOL
REMARK 927      BINDING AFFINITY PREDICTED BY RF-SCORE:    0.00 PKD
ROOT
HETATM    1  C   UNL     1     -11.107  13.753  69.193  1.00  0.00    -0.282 C  
HETATM    2  C   UNL     1     -10.624  12.371  68.764  1.00  0.00    -0.183 C  
ENDROOT
BRANCH   2   3
HETATM    3  N   UNL     1     -11.278  11.905  67.535  1.00  0.00    -0.275 NA 
HETATM    4  C   UNL     1     -11.859  12.999  66.752  1.00  0.00    -0.388 C  
HETATM    5  C   UNL     1     -12.077  12.353  65.402  1.00  0.00    -0.428 C  
HETATM    6  C   UNL     1     -10.840  11.491  65.217  1.00  0.00    -0.319 C  
HETATM    7  C   UNL     1     -10.339  11.185  66.640  1.00  0.00    -0.241 C  
BRANCH   7   8
HETATM    8  C   UNL     1     -10.334   9.670  66.943  1.00  0.00    -0.238 C  
BRANCH   8   9
HETATM    9  N   UNL     1     -10.452   9.347  68.361  1.00  0.00    -0.215 N  
HETATM   10  C   UNL     1     -10.047   8.128  68.875  1.00  0.00    -0.202 C  
HETATM   11  H   UNL     1     -10.847  10.043  68.994  1.00  0.00     0.000 HD 
HETATM   12  O   UNL     1      -9.573   7.242  68.177  1.00  0.00    -0.139 OA 
BRANCH  10  13
HETATM   13  C   UNL     1     -10.258   7.927  70.340  1.00  0.00    -0.197 A  
HETATM   14  C   UNL     1      -9.344   7.089  71.016  1.00  0.00    -0.159 A  
HETATM   15  C   UNL     1      -9.400   6.948  72.408  1.00  0.00    -0.136 A  
HETATM   16  C   UNL     1     -11.232   8.613  71.090  1.00  0.00    -0.272 A  
HETATM   17  C   UNL     1     -10.357   7.629  73.151  1.00  0.00    -0.411 A  
HETATM   18  C   UNL     1     -11.256   8.466  72.490  1.00  0.00    -0.406 A  
BRANCH  15  19
HETATM   19  S   UNL     1      -8.295   5.810  73.217  1.00  0.00    -0.116 S  
HETATM   20  O   UNL     1      -9.111   4.984  74.084  1.00  0.00    -0.112 OA 
HETATM   21  O   UNL     1      -7.201   6.594  73.757  1.00  0.00    -0.084 OA 
BRANCH  19  22
HETATM   22  C   UNL     1      -7.665   4.792  71.898  1.00  0.00    -0.098 C  
HETATM   23  C   UNL     1      -8.285   3.406  71.932  1.00  0.00    -0.064 C  
ENDBRANCH  19  22
ENDBRANCH  15  19
BRANCH  16  24
HETATM   24  O   UNL     1     -12.165   9.509  70.643  1.00  0.00    -0.234 OA 
HETATM   25  C   UNL     1     -12.993  10.125  71.623  1.00  0.00    -0.456 C  
ENDBRANCH  16  24
ENDBRANCH  10  13
ENDBRANCH   8   9
ENDBRANCH   7   8
ENDBRANCH   2   3
TORSDOF 7
ENDMDL
MODEL      205
REMARK 921   NORMALIZED FREE ENERGY PREDICTED BY IDOCK:   -3.86 KCAL/MOL
REMARK 922        TOTAL FREE ENERGY PREDICTED BY IDOCK:   -6.31 KCAL/MOL
REMARK 923 INTER-LIGAND FREE ENERGY PREDICTED BY IDOCK:   -5.38 KCAL/MOL
REMARK 924 INTRA-LIGAND FREE ENERGY PREDICTED BY IDOCK:   -0.93 KCAL/MOL
REMARK 927      BINDING AFFINITY PREDICTED BY RF-SCORE:    0.00 PKD
ROOT
HETATM    1  C   UNL     1     -10.135   9.386  65.996  1.00  0.00    -0.302 C  
HETATM    2  C   UNL     1      -9.004  10.222  65.407  1.00  0.00    -0.178 C  
ENDROOT
BRANCH   2   3
HETATM    3  N   UNL     1      -7.716   9.964  66.064  1.00  0.00    -0.105 NA 
HETATM    4  C   UNL     1      -6.954   8.893  65.417  1.00  0.00    -0.080 C  
HETATM    5  C   UNL     1      -5.563   9.100  65.975  1.00  0.00    -0.045 C  
HETATM    6  C   UNL     1      -5.411  10.611  65.995  1.00  0.00    -0.106 C  
HETATM    7  C   UNL     1      -6.845  11.165  66.078  1.00  0.00     0.053 C  
BRANCH   7   8
HETATM    8  C   UNL     1      -7.074  12.001  67.357  1.00  0.00    -0.136 C  
BRANCH   8   9
HETATM    9  N   UNL     1      -7.896  13.188  67.152  1.00  0.00    -0.368 N  
HETATM   10  C   UNL     1      -7.376  14.468  67.228  1.00  0.00    -0.068 C  
HETATM   11  H   UNL     1      -8.888  13.071  66.944  1.00  0.00     0.000 HD 
HETATM   12  O   UNL     1      -6.199  14.688  67.482  1.00  0.00    -0.308 OA 
BRANCH  10  13
HETATM   13  C   UNL     1      -8.345  15.588  67.027  1.00  0.00    -0.265 A  
HETATM   14  C   UNL     1      -7.954  16.869  67.474  1.00  0.00    -0.186 A  
HETATM   15  C   UNL     1      -8.750  17.990  67.212  1.00  0.00    -0.243 A  
HETATM   16  C   UNL     1      -9.553  15.457  66.318  1.00  0.00    -0.313 A  
HETATM   17  C   UNL     1      -9.941  17.864  66.508  1.00  0.00    -0.357 A  
HETATM   18  C   UNL     1     -10.328  16.602  66.055  1.00  0.00    -0.352 A  
BRANCH  15  19
HETATM   19  S   UNL     1      -8.276  19.574  67.874  1.00  0.00    -0.316 S  
HETATM   20  O   UNL     1      -8.544  19.527  69.297  1.00  0.00    -0.221 OA 
HETATM   21  O   UNL     1      -8.894  20.584  67.037  1.00  0.00    -0.317 OA 
BRANCH  19  22
HETATM   22  C   UNL     1      -6.512  19.643  67.635  1.00  0.00    -0.213 C  
HETATM   23  C   UNL     1      -5.778  19.647  68.965  1.00  0.00    -0.252 C  
ENDBRANCH  19  22
ENDBRANCH  15  19
BRANCH  16  24
HETATM   24  O   UNL     1     -10.082  14.328  65.752  1.00  0.00    -0.308 OA 
HETATM   25  C   UNL     1     -11.205  14.499  64.895  1.00  0.00    -0.391 C  
ENDBRANCH  16  24
ENDBRANCH  10  13
ENDBRANCH   8   9
ENDBRANCH   7   8
ENDBRANCH   2   3
TORSDOF 7
ENDMDL
MODEL      206
REMARK 921   NORMALIZED FREE ENERGY PREDICTED BY IDOCK:   -3.85 KCAL/MOL
REMARK 922        TOTAL FREE ENERGY PREDICTED BY IDOCK:   -6.29 KCAL/MOL
REMARK 923 INTER-LIGAND FREE ENERGY PREDICTED BY IDOCK:   -5.24 KCAL/MOL
REMARK 924 INTRA-LIGAND FREE ENERGY PREDICTED BY IDOCK:   -1.05 KCAL/MOL
REMARK 927      BINDING AFFINITY PREDICTED BY RF-SCORE:    0.00 PKD
ROOT
HETATM    1  C   UNL     1      -8.889   3.937  63.850  1.00  0.00    -0.112 C  
HETATM    2  C   UNL     1     -10.048   4.042  64.837  1.00  0.00    -0.205 C  
ENDROOT
BRANCH   2   3
HETATM    3  N   UNL     1      -9.633   4.592  66.132  1.00  0.00    -0.166 NA 
HETATM    4  C   UNL     1      -9.352   3.553  67.126  1.00  0.00    -0.200 C  
HETATM    5  C   UNL     1      -8.570   4.310  68.178  1.00  0.00    -0.107 C  
HETATM    6  C   UNL     1      -7.678   5.230  67.362  1.00  0.00    -0.096 C  
HETATM    7  C   UNL     1      -8.409   5.424  66.022  1.00  0.00    -0.120 C  
BRANCH   7   8
HETATM    8  C   UNL     1      -8.766   6.905  65.762  1.00  0.00    -0.106 C  
BRANCH   8   9
HETATM    9  N   UNL     1      -9.614   7.501  66.788  1.00  0.00    -0.193 N  
HETATM   10  C   UNL     1      -9.328   8.729  67.358  1.00  0.00    -0.137 C  
HETATM   11  H   UNL     1     -10.445   6.996  67.096  1.00  0.00     0.000 HD 
HETATM   12  O   UNL     1      -8.345   9.389  67.047  1.00  0.00    -0.125 OA 
BRANCH  10  13
HETATM   13  C   UNL     1     -10.268   9.199  68.420  1.00  0.00    -0.230 A  
HETATM   14  C   UNL     1     -10.657   8.260  69.401  1.00  0.00    -0.203 A  
HETATM   15  C   UNL     1     -11.435   8.653  70.496  1.00  0.00    -0.188 A  
HETATM   16  C   UNL     1     -10.682  10.537  68.561  1.00  0.00    -0.224 A  
HETATM   17  C   UNL     1     -11.840   9.975  70.640  1.00  0.00    -0.411 A  
HETATM   18  C   UNL     1     -11.451  10.909  69.680  1.00  0.00    -0.377 A  
BRANCH  15  19
HETATM   19  S   UNL     1     -11.989   7.426  71.662  1.00  0.00    -0.324 S  
HETATM   20  O   UNL     1     -13.426   7.323  71.505  1.00  0.00    -0.385 OA 
HETATM   21  O   UNL     1     -11.406   7.767  72.945  1.00  0.00    -0.387 OA 
BRANCH  19  22
HETATM   22  C   UNL     1     -11.250   5.908  71.090  1.00  0.00    -0.211 C  
HETATM   23  C   UNL     1     -10.030   5.547  71.920  1.00  0.00    -0.227 C  
ENDBRANCH  19  22
ENDBRANCH  15  19
BRANCH  16  24
HETATM   24  O   UNL     1     -10.370  11.605  67.764  1.00  0.00    -0.177 OA 
HETATM   25  C   UNL     1     -11.311  11.959  66.757  1.00  0.00    -0.330 C  
ENDBRANCH  16  24
ENDBRANCH  10  13
ENDBRANCH   8   9
ENDBRANCH   7   8
ENDBRANCH   2   3
TORSDOF 7
ENDMDL
MODEL      207
REMARK 921   NORMALIZED FREE ENERGY PREDICTED BY IDOCK:   -3.83 KCAL/MOL
REMARK 922        TOTAL FREE ENERGY PREDICTED BY IDOCK:   -6.26 KCAL/MOL
REMARK 923 INTER-LIGAND FREE ENERGY PREDICTED BY IDOCK:   -5.74 KCAL/MOL
REMARK 924 INTRA-LIGAND FREE ENERGY PREDICTED BY IDOCK:   -0.52 KCAL/MOL
REMARK 927      BINDING AFFINITY PREDICTED BY RF-SCORE:    0.00 PKD
ROOT
HETATM    1  C   UNL     1      -8.804   7.980  73.643  1.00  0.00    -0.326 C  
HETATM    2  C   UNL     1      -8.832   7.651  72.154  1.00  0.00    -0.125 C  
ENDROOT
BRANCH   2   3
HETATM    3  N   UNL     1     -10.028   6.890  71.772  1.00  0.00    -0.174 NA 
HETATM    4  C   UNL     1     -10.832   6.478  72.925  1.00  0.00    -0.258 C  
HETATM    5  C   UNL     1     -12.153   6.111  72.287  1.00  0.00    -0.237 C  
HETATM    6  C   UNL     1     -12.341   7.178  71.223  1.00  0.00    -0.418 C  
HETATM    7  C   UNL     1     -10.923   7.665  70.877  1.00  0.00    -0.250 C  
BRANCH   7   8
HETATM    8  C   UNL     1     -10.569   7.423  69.392  1.00  0.00    -0.226 C  
BRANCH   8   9
HETATM    9  N   UNL     1      -9.925   8.559  68.742  1.00  0.00    -0.181 N  
HETATM   10  C   UNL     1     -10.370   9.857  68.918  1.00  0.00    -0.205 C  
HETATM   11  H   UNL     1      -9.121   8.390  68.137  1.00  0.00     0.000 HD 
HETATM   12  O   UNL     1     -11.332  10.136  69.620  1.00  0.00    -0.246 OA 
BRANCH  10  13
HETATM   13  C   UNL     1      -9.632  10.915  68.163  1.00  0.00    -0.169 A  
HETATM   14  C   UNL     1     -10.404  11.842  67.429  1.00  0.00    -0.228 A  
HETATM   15  C   UNL     1      -9.797  12.934  66.797  1.00  0.00    -0.241 A  
HETATM   16  C   UNL     1      -8.240  11.105  68.243  1.00  0.00    -0.134 A  
HETATM   17  C   UNL     1      -8.424  13.127  66.880  1.00  0.00    -0.081 A  
HETATM   18  C   UNL     1      -7.657  12.220  67.611  1.00  0.00    -0.144 A  
BRANCH  15  19
HETATM   19  S   UNL     1     -10.787  14.029  65.800  1.00  0.00    -0.299 S  
HETATM   20  O   UNL     1     -10.023  15.251  65.641  1.00  0.00    -0.325 OA 
HETATM   21  O   UNL     1     -12.111  14.055  66.389  1.00  0.00    -0.416 OA 
BRANCH  19  22
HETATM   22  C   UNL     1     -10.886  13.217  64.217  1.00  0.00    -0.392 C  
HETATM   23  C   UNL     1     -12.278  12.661  63.973  1.00  0.00    -0.544 C  
ENDBRANCH  19  22
ENDBRANCH  15  19
BRANCH  16  24
HETATM   24  O   UNL     1      -7.326  10.365  68.944  1.00  0.00    -0.081 OA 
HETATM   25  C   UNL     1      -5.978  10.400  68.488  1.00  0.00    -0.043 C  
ENDBRANCH  16  24
ENDBRANCH  10  13
ENDBRANCH   8   9
ENDBRANCH   7   8
ENDBRANCH   2   3
TORSDOF 7
ENDMDL
MODEL      208
REMARK 921   NORMALIZED FREE ENERGY PREDICTED BY IDOCK:   -3.82 KCAL/MOL
REMARK 922        TOTAL FREE ENERGY PREDICTED BY IDOCK:   -6.25 KCAL/MOL
REMARK 923 INTER-LIGAND FREE ENERGY PREDICTED BY IDOCK:   -5.22 KCAL/MOL
REMARK 924 INTRA-LIGAND FREE ENERGY PREDICTED BY IDOCK:   -1.03 KCAL/MOL
REMARK 927      BINDING AFFINITY PREDICTED BY RF-SCORE:    0.00 PKD
ROOT
HETATM    1  C   UNL     1     -10.728   4.331  72.992  1.00  0.00    -0.272 C  
HETATM    2  C   UNL     1     -10.018   3.906  71.711  1.00  0.00    -0.163 C  
ENDROOT
BRANCH   2   3
HETATM    3  N   UNL     1      -9.104   4.938  71.208  1.00  0.00    -0.139 NA 
HETATM    4  C   UNL     1      -7.694   4.556  71.331  1.00  0.00    -0.085 C  
HETATM    5  C   UNL     1      -7.009   5.535  70.403  1.00  0.00    -0.057 C  
HETATM    6  C   UNL     1      -7.957   5.623  69.219  1.00  0.00    -0.096 C  
HETATM    7  C   UNL     1      -9.342   5.248  69.777  1.00  0.00    -0.134 C  
BRANCH   7   8
HETATM    8  C   UNL     1     -10.364   6.396  69.620  1.00  0.00    -0.204 C  
BRANCH   8   9
HETATM    9  N   UNL     1      -9.897   7.498  68.787  1.00  0.00    -0.162 N  
HETATM   10  C   UNL     1     -10.364   7.697  67.499  1.00  0.00    -0.257 C  
HETATM   11  H   UNL     1      -9.204   8.144  69.165  1.00  0.00     0.000 HD 
HETATM   12  O   UNL     1     -11.188   6.961  66.974  1.00  0.00    -0.369 OA 
BRANCH  10  13
HETATM   13  C   UNL     1      -9.771   8.849  66.753  1.00  0.00    -0.282 A  
HETATM   14  C   UNL     1     -10.645   9.888  66.367  1.00  0.00    -0.126 A  
HETATM   15  C   UNL     1     -10.149  11.056  65.775  1.00  0.00    -0.252 A  
HETATM   16  C   UNL     1      -8.390   9.004  66.526  1.00  0.00    -0.115 A  
HETATM   17  C   UNL     1      -8.786  11.214  65.556  1.00  0.00    -0.145 A  
HETATM   18  C   UNL     1      -7.916  10.195  65.944  1.00  0.00    -0.134 A  
BRANCH  15  19
HETATM   19  S   UNL     1     -11.288  12.304  65.213  1.00  0.00    -0.342 S  
HETATM   20  O   UNL     1     -12.232  12.520  66.291  1.00  0.00    -0.600 OA 
HETATM   21  O   UNL     1     -11.745  11.898  63.898  1.00  0.00    -0.403 OA 
BRANCH  19  22
HETATM   22  C   UNL     1     -10.288  13.768  65.037  1.00  0.00    -0.382 C  
HETATM   23  C   UNL     1     -11.034  15.002  65.515  1.00  0.00    -0.364 C  
ENDBRANCH  19  22
ENDBRANCH  15  19
BRANCH  16  24
HETATM   24  O   UNL     1      -7.376   8.153  66.874  1.00  0.00    -0.084 OA 
HETATM   25  C   UNL     1      -6.363   8.669  67.730  1.00  0.00    -0.057 C  
ENDBRANCH  16  24
ENDBRANCH  10  13
ENDBRANCH   8   9
ENDBRANCH   7   8
ENDBRANCH   2   3
TORSDOF 7
ENDMDL
MODEL      209
REMARK 921   NORMALIZED FREE ENERGY PREDICTED BY IDOCK:   -3.82 KCAL/MOL
REMARK 922        TOTAL FREE ENERGY PREDICTED BY IDOCK:   -6.25 KCAL/MOL
REMARK 923 INTER-LIGAND FREE ENERGY PREDICTED BY IDOCK:   -5.49 KCAL/MOL
REMARK 924 INTRA-LIGAND FREE ENERGY PREDICTED BY IDOCK:   -0.76 KCAL/MOL
REMARK 927      BINDING AFFINITY PREDICTED BY RF-SCORE:    0.00 PKD
ROOT
HETATM    1  C   UNL     1     -12.289  12.438  63.507  1.00  0.00    -0.648 C  
HETATM    2  C   UNL     1     -12.659  12.792  64.944  1.00  0.00    -0.470 C  
ENDROOT
BRANCH   2   3
HETATM    3  N   UNL     1     -11.586  13.516  65.636  1.00  0.00    -0.317 NA 
HETATM    4  C   UNL     1     -11.103  14.674  64.880  1.00  0.00    -0.401 C  
HETATM    5  C   UNL     1     -10.352  15.460  65.932  1.00  0.00    -0.359 C  
HETATM    6  C   UNL     1     -11.225  15.322  67.167  1.00  0.00    -0.291 C  
HETATM    7  C   UNL     1     -12.017  14.018  66.965  1.00  0.00    -0.438 C  
BRANCH   7   8
HETATM    8  C   UNL     1     -11.725  12.981  68.072  1.00  0.00    -0.355 C  
BRANCH   8   9
HETATM    9  N   UNL     1     -10.581  12.119  67.793  1.00  0.00    -0.200 N  
HETATM   10  C   UNL     1     -10.681  10.739  67.797  1.00  0.00    -0.251 C  
HETATM   11  H   UNL     1      -9.679  12.548  67.588  1.00  0.00     0.000 HD 
HETATM   12  O   UNL     1     -11.726  10.153  68.043  1.00  0.00    -0.194 OA 
BRANCH  10  13
HETATM   13  C   UNL     1      -9.419   9.986  67.525  1.00  0.00    -0.169 A  
HETATM   14  C   UNL     1      -9.120   9.689  66.178  1.00  0.00    -0.201 A  
HETATM   15  C   UNL     1      -7.900   9.097  65.830  1.00  0.00    -0.105 A  
HETATM   16  C   UNL     1      -8.470   9.669  68.516  1.00  0.00    -0.118 A  
HETATM   17  C   UNL     1      -6.960   8.789  66.805  1.00  0.00    -0.080 A  
HETATM   18  C   UNL     1      -7.245   9.089  68.138  1.00  0.00    -0.079 A  
BRANCH  15  19
HETATM   19  S   UNL     1      -7.597   8.649  64.134  1.00  0.00    -0.128 S  
HETATM   20  O   UNL     1      -6.159   8.671  63.949  1.00  0.00    -0.071 OA 
HETATM   21  O   UNL     1      -8.461   9.477  63.316  1.00  0.00    -0.171 OA 
BRANCH  19  22
HETATM   22  C   UNL     1      -8.154   6.960  64.016  1.00  0.00    -0.008 C  
HETATM   23  C   UNL     1      -7.780   6.172  65.260  1.00  0.00    -0.095 C  
ENDBRANCH  19  22
ENDBRANCH  15  19
BRANCH  16  24
HETATM   24  O   UNL     1      -8.535   9.923  69.859  1.00  0.00    -0.186 OA 
HETATM   25  C   UNL     1      -8.101   8.889  70.735  1.00  0.00    -0.156 C  
ENDBRANCH  16  24
ENDBRANCH  10  13
ENDBRANCH   8   9
ENDBRANCH   7   8
ENDBRANCH   2   3
TORSDOF 7
ENDMDL
MODEL      210
REMARK 921   NORMALIZED FREE ENERGY PREDICTED BY IDOCK:   -3.82 KCAL/MOL
REMARK 922        TOTAL FREE ENERGY PREDICTED BY IDOCK:   -6.25 KCAL/MOL
REMARK 923 INTER-LIGAND FREE ENERGY PREDICTED BY IDOCK:   -6.53 KCAL/MOL
REMARK 924 INTRA-LIGAND FREE ENERGY PREDICTED BY IDOCK:    0.29 KCAL/MOL
REMARK 927      BINDING AFFINITY PREDICTED BY RF-SCORE:    0.00 PKD
ROOT
HETATM    1  C   UNL     1      -6.115  18.320  69.466  1.00  0.00    -0.255 C  
HETATM    2  C   UNL     1      -7.268  19.266  69.785  1.00  0.00     0.090 C  
ENDROOT
BRANCH   2   3
HETATM    3  N   UNL     1      -8.036  19.636  68.590  1.00  0.00    -0.331 NA 
HETATM    4  C   UNL     1      -7.209  20.267  67.557  1.00  0.00    -0.298 C  
HETATM    5  C   UNL     1      -8.087  20.165  66.330  1.00  0.00    -0.268 C  
HETATM    6  C   UNL     1      -8.712  18.787  66.455  1.00  0.00    -0.317 C  
HETATM    7  C   UNL     1      -8.692  18.464  67.960  1.00  0.00    -0.287 C  
BRANCH   7   8
HETATM    8  C   UNL     1     -10.112  18.250  68.530  1.00  0.00    -0.398 C  
BRANCH   8   9
HETATM    9  N   UNL     1     -10.581  16.871  68.456  1.00  0.00    -0.348 N  
HETATM   10  C   UNL     1     -11.157  16.230  69.538  1.00  0.00    -0.330 C  
HETATM   11  H   UNL     1     -10.480  16.362  67.578  1.00  0.00     0.000 HD 
HETATM   12  O   UNL     1     -11.303  16.771  70.626  1.00  0.00    -0.100 OA 
BRANCH  10  13
HETATM   13  C   UNL     1     -11.560  14.806  69.325  1.00  0.00    -0.331 A  
HETATM   14  C   UNL     1     -11.157  14.195  68.117  1.00  0.00    -0.276 A  
HETATM   15  C   UNL     1     -11.387  12.831  67.896  1.00  0.00    -0.293 A  
HETATM   16  C   UNL     1     -12.203  14.022  70.301  1.00  0.00    -0.361 A  
HETATM   17  C   UNL     1     -12.017  12.054  68.860  1.00  0.00    -0.303 A  
HETATM   18  C   UNL     1     -12.409  12.651  70.059  1.00  0.00    -0.164 A  
BRANCH  15  19
HETATM   19  S   UNL     1     -10.954  12.115  66.325  1.00  0.00    -0.309 S  
HETATM   20  O   UNL     1     -10.136  13.092  65.634  1.00  0.00    -0.279 OA 
HETATM   21  O   UNL     1     -12.182  11.624  65.731  1.00  0.00    -0.143 OA 
BRANCH  19  22
HETATM   22  C   UNL     1      -9.929  10.718  66.744  1.00  0.00    -0.206 C  
HETATM   23  C   UNL     1     -10.463   9.995  67.968  1.00  0.00    -0.260 C  
ENDBRANCH  19  22
ENDBRANCH  15  19
BRANCH  16  24
HETATM   24  O   UNL     1     -12.617  14.400  71.549  1.00  0.00    -0.316 OA 
HETATM   25  C   UNL     1     -14.016  14.364  71.806  1.00  0.00    -0.454 C  
ENDBRANCH  16  24
ENDBRANCH  10  13
ENDBRANCH   8   9
ENDBRANCH   7   8
ENDBRANCH   2   3
TORSDOF 7
ENDMDL
MODEL      211
REMARK 921   NORMALIZED FREE ENERGY PREDICTED BY IDOCK:   -3.81 KCAL/MOL
REMARK 922        TOTAL FREE ENERGY PREDICTED BY IDOCK:   -6.24 KCAL/MOL
REMARK 923 INTER-LIGAND FREE ENERGY PREDICTED BY IDOCK:   -5.26 KCAL/MOL
REMARK 924 INTRA-LIGAND FREE ENERGY PREDICTED BY IDOCK:   -0.98 KCAL/MOL
REMARK 927      BINDING AFFINITY PREDICTED BY RF-SCORE:    0.00 PKD
ROOT
HETATM    1  C   UNL     1      -5.455   7.232  67.497  1.00  0.00    -0.025 C  
HETATM    2  C   UNL     1      -6.543   8.234  67.867  1.00  0.00    -0.061 C  
ENDROOT
BRANCH   2   3
HETATM    3  N   UNL     1      -6.604   9.365  66.934  1.00  0.00    -0.067 NA 
HETATM    4  C   UNL     1      -5.281   9.787  66.466  1.00  0.00    -0.044 C  
HETATM    5  C   UNL     1      -5.617  10.629  65.255  1.00  0.00    -0.137 C  
HETATM    6  C   UNL     1      -6.752   9.865  64.596  1.00  0.00    -0.123 C  
HETATM    7  C   UNL     1      -7.409   9.053  65.726  1.00  0.00    -0.089 C  
BRANCH   7   8
HETATM    8  C   UNL     1      -8.891   9.435  65.933  1.00  0.00    -0.162 C  
BRANCH   8   9
HETATM    9  N   UNL     1      -9.168  10.857  65.763  1.00  0.00    -0.194 N  
HETATM   10  C   UNL     1     -10.060  11.536  66.574  1.00  0.00    -0.213 C  
HETATM   11  H   UNL     1      -8.688  11.368  65.023  1.00  0.00     0.000 HD 
HETATM   12  O   UNL     1     -10.680  10.989  67.477  1.00  0.00    -0.211 OA 
BRANCH  10  13
HETATM   13  C   UNL     1     -10.267  12.983  66.262  1.00  0.00    -0.291 A  
HETATM   14  C   UNL     1      -9.329  13.898  66.788  1.00  0.00    -0.286 A  
HETATM   15  C   UNL     1      -9.382  15.253  66.440  1.00  0.00    -0.296 A  
HETATM   16  C   UNL     1     -11.261  13.458  65.386  1.00  0.00    -0.288 A  
HETATM   17  C   UNL     1     -10.358  15.724  65.571  1.00  0.00    -0.430 A  
HETATM   18  C   UNL     1     -11.282  14.823  65.041  1.00  0.00    -0.399 A  
BRANCH  15  19
HETATM   19  S   UNL     1      -8.244  16.396  67.196  1.00  0.00    -0.198 S  
HETATM   20  O   UNL     1      -6.912  15.874  66.957  1.00  0.00    -0.205 OA 
HETATM   21  O   UNL     1      -8.716  16.631  68.546  1.00  0.00    -0.222 OA 
BRANCH  19  22
HETATM   22  C   UNL     1      -8.437  17.898  66.258  1.00  0.00    -0.185 C  
HETATM   23  C   UNL     1      -7.096  18.408  65.758  1.00  0.00    -0.258 C  
ENDBRANCH  19  22
ENDBRANCH  15  19
BRANCH  16  24
HETATM   24  O   UNL     1     -12.220  12.738  64.727  1.00  0.00    -0.406 OA 
HETATM   25  C   UNL     1     -11.904  12.288  63.414  1.00  0.00    -0.473 C  
ENDBRANCH  16  24
ENDBRANCH  10  13
ENDBRANCH   8   9
ENDBRANCH   7   8
ENDBRANCH   2   3
TORSDOF 7
ENDMDL
MODEL      212
REMARK 921   NORMALIZED FREE ENERGY PREDICTED BY IDOCK:   -3.80 KCAL/MOL
REMARK 922        TOTAL FREE ENERGY PREDICTED BY IDOCK:   -6.23 KCAL/MOL
REMARK 923 INTER-LIGAND FREE ENERGY PREDICTED BY IDOCK:   -5.44 KCAL/MOL
REMARK 924 INTRA-LIGAND FREE ENERGY PREDICTED BY IDOCK:   -0.79 KCAL/MOL
REMARK 927      BINDING AFFINITY PREDICTED BY RF-SCORE:    0.00 PKD
ROOT
HETATM    1  C   UNL     1      -7.091   9.227  62.482  1.00  0.00    -0.100 C  
HETATM    2  C   UNL     1      -8.583   9.255  62.793  1.00  0.00    -0.222 C  
ENDROOT
BRANCH   2   3
HETATM    3  N   UNL     1      -8.968  10.430  63.584  1.00  0.00    -0.210 NA 
HETATM    4  C   UNL     1      -9.468  11.532  62.757  1.00  0.00    -0.188 C  
HETATM    5  C   UNL     1     -10.167  12.410  63.772  1.00  0.00    -0.404 C  
HETATM    6  C   UNL     1     -10.852  11.414  64.691  1.00  0.00    -0.359 C  
HETATM    7  C   UNL     1     -10.031  10.117  64.572  1.00  0.00    -0.205 C  
BRANCH   7   8
HETATM    8  C   UNL     1      -9.421   9.687  65.925  1.00  0.00    -0.236 C  
BRANCH   8   9
HETATM    9  N   UNL     1     -10.179  10.136  67.088  1.00  0.00    -0.212 N  
HETATM   10  C   UNL     1      -9.792   9.833  68.381  1.00  0.00    -0.152 C  
HETATM   11  H   UNL     1     -11.022  10.692  66.943  1.00  0.00     0.000 HD 
HETATM   12  O   UNL     1      -8.799   9.164  68.633  1.00  0.00    -0.131 OA 
BRANCH  10  13
HETATM   13  C   UNL     1     -10.683  10.333  69.471  1.00  0.00    -0.280 A  
HETATM   14  C   UNL     1     -10.942  11.721  69.509  1.00  0.00    -0.126 A  
HETATM   15  C   UNL     1     -11.862  12.251  70.421  1.00  0.00    -0.170 A  
HETATM   16  C   UNL     1     -11.363   9.492  70.372  1.00  0.00    -0.264 A  
HETATM   17  C   UNL     1     -12.538  11.422  71.307  1.00  0.00    -0.480 A  
HETATM   18  C   UNL     1     -12.294  10.049  71.269  1.00  0.00    -0.496 A  
BRANCH  15  19
HETATM   19  S   UNL     1     -12.092  14.015  70.507  1.00  0.00    -0.350 S  
HETATM   20  O   UNL     1     -11.580  14.438  71.795  1.00  0.00    -0.070 OA 
HETATM   21  O   UNL     1     -13.468  14.280  70.134  1.00  0.00     0.287 OA 
BRANCH  19  22
HETATM   22  C   UNL     1     -11.025  14.662  69.236  1.00  0.00    -0.260 C  
HETATM   23  C   UNL     1      -9.935  15.538  69.829  1.00  0.00    -0.281 C  
ENDBRANCH  19  22
ENDBRANCH  15  19
BRANCH  16  24
HETATM   24  O   UNL     1     -11.303   8.128  70.462  1.00  0.00    -0.268 OA 
HETATM   25  C   UNL     1     -11.479   7.556  71.753  1.00  0.00    -0.260 C  
ENDBRANCH  16  24
ENDBRANCH  10  13
ENDBRANCH   8   9
ENDBRANCH   7   8
ENDBRANCH   2   3
TORSDOF 7
ENDMDL
MODEL      213
REMARK 921   NORMALIZED FREE ENERGY PREDICTED BY IDOCK:   -3.79 KCAL/MOL
REMARK 922        TOTAL FREE ENERGY PREDICTED BY IDOCK:   -6.21 KCAL/MOL
REMARK 923 INTER-LIGAND FREE ENERGY PREDICTED BY IDOCK:   -5.18 KCAL/MOL
REMARK 924 INTRA-LIGAND FREE ENERGY PREDICTED BY IDOCK:   -1.03 KCAL/MOL
REMARK 927      BINDING AFFINITY PREDICTED BY RF-SCORE:    0.00 PKD
ROOT
HETATM    1  C   UNL     1      -5.507   2.624  66.879  1.00  0.00    -0.017 C  
HETATM    2  C   UNL     1      -6.102   3.948  66.411  1.00  0.00    -0.031 C  
ENDROOT
BRANCH   2   3
HETATM    3  N   UNL     1      -7.219   3.762  65.478  1.00  0.00    -0.070 NA 
HETATM    4  C   UNL     1      -7.483   2.351  65.184  1.00  0.00    -0.067 C  
HETATM    5  C   UNL     1      -8.870   2.398  64.581  1.00  0.00    -0.114 C  
HETATM    6  C   UNL     1      -9.590   3.430  65.430  1.00  0.00    -0.101 C  
HETATM    7  C   UNL     1      -8.484   4.338  65.996  1.00  0.00    -0.113 C  
BRANCH   7   8
HETATM    8  C   UNL     1      -8.649   5.808  65.548  1.00  0.00    -0.151 C  
BRANCH   8   9
HETATM    9  N   UNL     1      -8.922   6.735  66.640  1.00  0.00    -0.138 N  
HETATM   10  C   UNL     1     -10.181   6.867  67.197  1.00  0.00    -0.240 C  
HETATM   11  H   UNL     1      -8.159   7.305  67.005  1.00  0.00     0.000 HD 
HETATM   12  O   UNL     1     -11.147   6.225  66.807  1.00  0.00    -0.343 OA 
BRANCH  10  13
HETATM   13  C   UNL     1     -10.318   7.880  68.288  1.00  0.00    -0.239 A  
HETATM   14  C   UNL     1     -10.864   7.441  69.514  1.00  0.00    -0.201 A  
HETATM   15  C   UNL     1     -10.910   8.296  70.621  1.00  0.00    -0.236 A  
HETATM   16  C   UNL     1      -9.827   9.196  68.197  1.00  0.00    -0.164 A  
HETATM   17  C   UNL     1     -10.420   9.593  70.535  1.00  0.00    -0.367 A  
HETATM   18  C   UNL     1      -9.871  10.030  69.330  1.00  0.00    -0.227 A  
BRANCH  15  19
HETATM   19  S   UNL     1     -11.692   7.742  72.122  1.00  0.00    -0.336 S  
HETATM   20  O   UNL     1     -10.746   7.977  73.195  1.00  0.00    -0.332 OA 
HETATM   21  O   UNL     1     -12.204   6.410  71.865  1.00  0.00    -0.346 OA 
BRANCH  19  22
HETATM   22  C   UNL     1     -13.073   8.848  72.336  1.00  0.00    -0.418 C  
HETATM   23  C   UNL     1     -14.321   8.302  71.664  1.00  0.00    -0.561 C  
ENDBRANCH  19  22
ENDBRANCH  15  19
BRANCH  16  24
HETATM   24  O   UNL     1      -9.211   9.796  67.131  1.00  0.00    -0.136 OA 
HETATM   25  C   UNL     1     -10.052  10.388  66.148  1.00  0.00    -0.237 C  
ENDBRANCH  16  24
ENDBRANCH  10  13
ENDBRANCH   8   9
ENDBRANCH   7   8
ENDBRANCH   2   3
TORSDOF 7
ENDMDL
MODEL      214
REMARK 921   NORMALIZED FREE ENERGY PREDICTED BY IDOCK:   -3.79 KCAL/MOL
REMARK 922        TOTAL FREE ENERGY PREDICTED BY IDOCK:   -6.21 KCAL/MOL
REMARK 923 INTER-LIGAND FREE ENERGY PREDICTED BY IDOCK:   -5.20 KCAL/MOL
REMARK 924 INTRA-LIGAND FREE ENERGY PREDICTED BY IDOCK:   -1.01 KCAL/MOL
REMARK 927      BINDING AFFINITY PREDICTED BY RF-SCORE:    0.00 PKD
ROOT
HETATM    1  C   UNL     1     -10.270  16.035  65.528  1.00  0.00    -0.389 C  
HETATM    2  C   UNL     1     -10.727  15.514  66.886  1.00  0.00    -0.317 C  
ENDROOT
BRANCH   2   3
HETATM    3  N   UNL     1     -10.871  14.053  66.907  1.00  0.00    -0.288 NA 
HETATM    4  C   UNL     1     -11.738  13.553  65.837  1.00  0.00    -0.352 C  
HETATM    5  C   UNL     1     -11.399  12.080  65.804  1.00  0.00    -0.384 C  
HETATM    6  C   UNL     1      -9.894  12.058  66.012  1.00  0.00    -0.258 C  
HETATM    7  C   UNL     1      -9.567  13.360  66.764  1.00  0.00    -0.262 C  
BRANCH   7   8
HETATM    8  C   UNL     1      -8.927  13.091  68.144  1.00  0.00    -0.198 C  
BRANCH   8   9
HETATM    9  N   UNL     1      -9.397  11.870  68.789  1.00  0.00    -0.395 N  
HETATM   10  C   UNL     1      -8.657  10.700  68.780  1.00  0.00    -0.150 C  
HETATM   11  H   UNL     1     -10.300  11.879  69.263  1.00  0.00     0.000 HD 
HETATM   12  O   UNL     1      -7.570  10.610  68.225  1.00  0.00    -0.091 OA 
BRANCH  10  13
HETATM   13  C   UNL     1      -9.280   9.521  69.454  1.00  0.00    -0.181 A  
HETATM   14  C   UNL     1      -8.410   8.516  69.933  1.00  0.00    -0.123 A  
HETATM   15  C   UNL     1      -8.905   7.442  70.683  1.00  0.00    -0.150 A  
HETATM   16  C   UNL     1     -10.655   9.420  69.739  1.00  0.00    -0.231 A  
HETATM   17  C   UNL     1     -10.260   7.344  70.970  1.00  0.00    -0.194 A  
HETATM   18  C   UNL     1     -11.123   8.338  70.508  1.00  0.00    -0.259 A  
BRANCH  15  19
HETATM   19  S   UNL     1      -7.795   6.144  71.189  1.00  0.00    -0.113 S  
HETATM   20  O   UNL     1      -6.692   6.152  70.250  1.00  0.00    -0.046 OA 
HETATM   21  O   UNL     1      -8.598   4.952  71.379  1.00  0.00    -0.120 OA 
BRANCH  19  22
HETATM   22  C   UNL     1      -7.187   6.676  72.777  1.00  0.00    -0.080 C  
HETATM   23  C   UNL     1      -5.809   7.302  72.654  1.00  0.00    -0.041 C  
ENDBRANCH  19  22
ENDBRANCH  15  19
BRANCH  16  24
HETATM   24  O   UNL     1     -11.650  10.305  69.423  1.00  0.00    -0.220 OA 
HETATM   25  C   UNL     1     -12.523  10.700  70.474  1.00  0.00    -0.358 C  
ENDBRANCH  16  24
ENDBRANCH  10  13
ENDBRANCH   8   9
ENDBRANCH   7   8
ENDBRANCH   2   3
TORSDOF 7
ENDMDL
MODEL      215
REMARK 921   NORMALIZED FREE ENERGY PREDICTED BY IDOCK:   -3.77 KCAL/MOL
REMARK 922        TOTAL FREE ENERGY PREDICTED BY IDOCK:   -6.18 KCAL/MOL
REMARK 923 INTER-LIGAND FREE ENERGY PREDICTED BY IDOCK:   -5.37 KCAL/MOL
REMARK 924 INTRA-LIGAND FREE ENERGY PREDICTED BY IDOCK:   -0.81 KCAL/MOL
REMARK 927      BINDING AFFINITY PREDICTED BY RF-SCORE:    0.00 PKD
ROOT
HETATM    1  C   UNL     1     -12.104   6.247  72.652  1.00  0.00     0.031 C  
HETATM    2  C   UNL     1     -12.433   6.513  71.187  1.00  0.00    -0.060 C  
ENDROOT
BRANCH   2   3
HETATM    3  N   UNL     1     -12.643   7.939  70.909  1.00  0.00    -0.075 NA 
HETATM    4  C   UNL     1     -13.407   8.615  71.961  1.00  0.00    -0.392 C  
HETATM    5  C   UNL     1     -13.133  10.075  71.676  1.00  0.00    -0.547 C  
HETATM    6  C   UNL     1     -11.663  10.091  71.292  1.00  0.00    -0.452 C  
HETATM    7  C   UNL     1     -11.364   8.676  70.765  1.00  0.00    -0.263 C  
BRANCH   7   8
HETATM    8  C   UNL     1     -10.894   8.690  69.293  1.00  0.00    -0.065 C  
BRANCH   8   9
HETATM    9  N   UNL     1     -10.508  10.009  68.804  1.00  0.00    -0.198 N  
HETATM   10  C   UNL     1      -9.184  10.369  68.622  1.00  0.00    -0.164 C  
HETATM   11  H   UNL     1     -11.238  10.689  68.590  1.00  0.00     0.000 HD 
HETATM   12  O   UNL     1      -8.255   9.612  68.867  1.00  0.00    -0.104 OA 
BRANCH  10  13
HETATM   13  C   UNL     1      -8.939  11.765  68.147  1.00  0.00    -0.181 A  
HETATM   14  C   UNL     1     -10.039  12.649  68.143  1.00  0.00    -0.231 A  
HETATM   15  C   UNL     1      -9.866  14.003  67.830  1.00  0.00    -0.233 A  
HETATM   16  C   UNL     1      -7.664  12.267  67.824  1.00  0.00    -0.139 A  
HETATM   17  C   UNL     1      -8.608  14.502  67.517  1.00  0.00    -0.198 A  
HETATM   18  C   UNL     1      -7.515  13.635  67.528  1.00  0.00    -0.181 A  
BRANCH  15  19
HETATM   19  S   UNL     1     -11.290  15.069  67.741  1.00  0.00    -0.330 S  
HETATM   20  O   UNL     1     -12.199  14.469  66.785  1.00  0.00    -0.376 OA 
HETATM   21  O   UNL     1     -10.796  16.419  67.547  1.00  0.00    -0.315 OA 
BRANCH  19  22
HETATM   22  C   UNL     1     -12.025  14.962  69.361  1.00  0.00    -0.301 C  
HETATM   23  C   UNL     1     -11.352  15.916  70.332  1.00  0.00    -0.399 C  
ENDBRANCH  19  22
ENDBRANCH  15  19
BRANCH  16  24
HETATM   24  O   UNL     1      -6.469  11.600  67.825  1.00  0.00    -0.058 OA 
HETATM   25  C   UNL     1      -5.969  11.164  66.567  1.00  0.00    -0.143 C  
ENDBRANCH  16  24
ENDBRANCH  10  13
ENDBRANCH   8   9
ENDBRANCH   7   8
ENDBRANCH   2   3
TORSDOF 7
ENDMDL
MODEL      216
REMARK 921   NORMALIZED FREE ENERGY PREDICTED BY IDOCK:   -3.75 KCAL/MOL
REMARK 922        TOTAL FREE ENERGY PREDICTED BY IDOCK:   -6.15 KCAL/MOL
REMARK 923 INTER-LIGAND FREE ENERGY PREDICTED BY IDOCK:   -5.01 KCAL/MOL
REMARK 924 INTRA-LIGAND FREE ENERGY PREDICTED BY IDOCK:   -1.14 KCAL/MOL
REMARK 927      BINDING AFFINITY PREDICTED BY RF-SCORE:    0.00 PKD
ROOT
HETATM    1  C   UNL     1     -10.074   4.756  70.112  1.00  0.00    -0.310 C  
HETATM    2  C   UNL     1     -10.988   5.951  69.860  1.00  0.00    -0.374 C  
ENDROOT
BRANCH   2   3
HETATM    3  N   UNL     1     -10.678   7.088  70.735  1.00  0.00    -0.223 NA 
HETATM    4  C   UNL     1     -11.008   6.829  72.139  1.00  0.00    -0.238 C  
HETATM    5  C   UNL     1     -10.240   7.916  72.859  1.00  0.00    -0.397 C  
HETATM    6  C   UNL     1      -8.926   7.984  72.100  1.00  0.00    -0.221 C  
HETATM    7  C   UNL     1      -9.241   7.455  70.690  1.00  0.00    -0.157 C  
BRANCH   7   8
HETATM    8  C   UNL     1      -8.972   8.513  69.596  1.00  0.00    -0.145 C  
BRANCH   8   9
HETATM    9  N   UNL     1      -9.516   9.832  69.899  1.00  0.00    -0.222 N  
HETATM   10  C   UNL     1     -10.600  10.356  69.217  1.00  0.00    -0.232 C  
HETATM   11  H   UNL     1      -9.084  10.386  70.638  1.00  0.00     0.000 HD 
HETATM   12  O   UNL     1     -11.165   9.755  68.313  1.00  0.00    -0.155 OA 
BRANCH  10  13
HETATM   13  C   UNL     1     -11.027  11.732  69.613  1.00  0.00    -0.056 A  
HETATM   14  C   UNL     1     -10.344  12.817  69.021  1.00  0.00     0.040 A  
HETATM   15  C   UNL     1     -10.765  14.133  69.246  1.00  0.00    -0.144 A  
HETATM   16  C   UNL     1     -12.136  11.998  70.439  1.00  0.00    -0.321 A  
HETATM   17  C   UNL     1     -11.862  14.397  70.055  1.00  0.00    -0.377 A  
HETATM   18  C   UNL     1     -12.547  13.329  70.635  1.00  0.00    -0.305 A  
BRANCH  15  19
HETATM   19  S   UNL     1      -9.823  15.481  68.562  1.00  0.00    -0.207 S  
HETATM   20  O   UNL     1      -8.446  15.272  68.964  1.00  0.00    -0.188 OA 
HETATM   21  O   UNL     1     -10.519  16.704  68.912  1.00  0.00    -0.279 OA 
BRANCH  19  22
HETATM   22  C   UNL     1      -9.936  15.250  66.799  1.00  0.00    -0.242 C  
HETATM   23  C   UNL     1     -11.385  15.194  66.346  1.00  0.00    -0.225 C  
ENDBRANCH  19  22
ENDBRANCH  15  19
BRANCH  16  24
HETATM   24  O   UNL     1     -12.964  11.099  71.056  1.00  0.00    -0.335 OA 
HETATM   25  C   UNL     1     -12.544  10.591  72.316  1.00  0.00     0.297 C  
ENDBRANCH  16  24
ENDBRANCH  10  13
ENDBRANCH   8   9
ENDBRANCH   7   8
ENDBRANCH   2   3
TORSDOF 7
ENDMDL
MODEL      217
REMARK 921   NORMALIZED FREE ENERGY PREDICTED BY IDOCK:   -3.75 KCAL/MOL
REMARK 922        TOTAL FREE ENERGY PREDICTED BY IDOCK:   -6.15 KCAL/MOL
REMARK 923 INTER-LIGAND FREE ENERGY PREDICTED BY IDOCK:   -5.24 KCAL/MOL
REMARK 924 INTRA-LIGAND FREE ENERGY PREDICTED BY IDOCK:   -0.91 KCAL/MOL
REMARK 927      BINDING AFFINITY PREDICTED BY RF-SCORE:    0.00 PKD
ROOT
HETATM    1  C   UNL     1     -12.231  13.134  63.212  1.00  0.00    -0.438 C  
HETATM    2  C   UNL     1     -10.915  12.548  63.714  1.00  0.00    -0.447 C  
ENDROOT
BRANCH   2   3
HETATM    3  N   UNL     1     -10.773  12.656  65.171  1.00  0.00    -0.284 NA 
HETATM    4  C   UNL     1     -11.992  13.141  65.825  1.00  0.00    -0.423 C  
HETATM    5  C   UNL     1     -11.752  12.772  67.273  1.00  0.00    -0.440 C  
HETATM    6  C   UNL     1     -11.098  11.404  67.187  1.00  0.00    -0.366 C  
HETATM    7  C   UNL     1     -10.435  11.355  65.799  1.00  0.00    -0.262 C  
BRANCH   7   8
HETATM    8  C   UNL     1      -8.905  11.164  65.890  1.00  0.00    -0.186 C  
BRANCH   8   9
HETATM    9  N   UNL     1      -8.238  12.116  66.771  1.00  0.00    -0.341 N  
HETATM   10  C   UNL     1      -6.874  12.079  66.999  1.00  0.00    -0.097 C  
HETATM   11  H   UNL     1      -8.796  12.834  67.234  1.00  0.00     0.000 HD 
HETATM   12  O   UNL     1      -6.141  11.243  66.487  1.00  0.00    -0.131 OA 
BRANCH  10  13
HETATM   13  C   UNL     1      -6.335  13.098  67.950  1.00  0.00    -0.139 A  
HETATM   14  C   UNL     1      -6.539  14.457  67.625  1.00  0.00    -0.172 A  
HETATM   15  C   UNL     1      -6.174  15.468  68.523  1.00  0.00    -0.098 A  
HETATM   16  C   UNL     1      -5.752  12.777  69.191  1.00  0.00    -0.076 A  
HETATM   17  C   UNL     1      -5.605  15.153  69.750  1.00  0.00    -0.109 A  
HETATM   18  C   UNL     1      -5.410  13.812  70.081  1.00  0.00    -0.102 A  
BRANCH  15  19
HETATM   19  S   UNL     1      -6.357  17.173  68.042  1.00  0.00    -0.144 S  
HETATM   20  O   UNL     1      -5.284  17.458  67.109  1.00  0.00    -0.115 OA 
HETATM   21  O   UNL     1      -6.502  17.943  69.261  1.00  0.00    -0.243 OA 
BRANCH  19  22
HETATM   22  C   UNL     1      -7.901  17.219  67.154  1.00  0.00    -0.198 C  
HETATM   23  C   UNL     1      -8.992  17.869  67.987  1.00  0.00    -0.267 C  
ENDBRANCH  19  22
ENDBRANCH  15  19
BRANCH  16  24
HETATM   24  O   UNL     1      -5.524  11.536  69.720  1.00  0.00    -0.062 OA 
HETATM   25  C   UNL     1      -6.649  10.834  70.236  1.00  0.00    -0.097 C  
ENDBRANCH  16  24
ENDBRANCH  10  13
ENDBRANCH   8   9
ENDBRANCH   7   8
ENDBRANCH   2   3
TORSDOF 7
ENDMDL
MODEL      218
REMARK 921   NORMALIZED FREE ENERGY PREDICTED BY IDOCK:   -3.72 KCAL/MOL
REMARK 922        TOTAL FREE ENERGY PREDICTED BY IDOCK:   -6.11 KCAL/MOL
REMARK 923 INTER-LIGAND FREE ENERGY PREDICTED BY IDOCK:   -5.33 KCAL/MOL
REMARK 924 INTRA-LIGAND FREE ENERGY PREDICTED BY IDOCK:   -0.78 KCAL/MOL
REMARK 927      BINDING AFFINITY PREDICTED BY RF-SCORE:    0.00 PKD
ROOT
HETATM    1  C   UNL     1      -8.821   4.640  63.907  1.00  0.00    -0.135 C  
HETATM    2  C   UNL     1      -8.672   4.744  65.421  1.00  0.00    -0.138 C  
ENDROOT
BRANCH   2   3
HETATM    3  N   UNL     1      -9.494   5.816  65.993  1.00  0.00    -0.128 NA 
HETATM    4  C   UNL     1     -10.405   5.338  67.037  1.00  0.00    -0.236 C  
HETATM    5  C   UNL     1     -10.806   6.620  67.732  1.00  0.00    -0.372 C  
HETATM    6  C   UNL     1      -9.515   7.420  67.772  1.00  0.00    -0.154 C  
HETATM    7  C   UNL     1      -8.671   6.891  66.599  1.00  0.00    -0.128 C  
BRANCH   7   8
HETATM    8  C   UNL     1      -8.351   7.995  65.567  1.00  0.00    -0.147 C  
BRANCH   8   9
HETATM    9  N   UNL     1      -9.026   9.262  65.822  1.00  0.00    -0.178 N  
HETATM   10  C   UNL     1      -8.832  10.375  65.022  1.00  0.00    -0.191 C  
HETATM   11  H   UNL     1      -9.662   9.331  66.617  1.00  0.00     0.000 HD 
HETATM   12  O   UNL     1      -8.079  10.372  64.058  1.00  0.00    -0.152 OA 
BRANCH  10  13
HETATM   13  C   UNL     1      -9.566  11.613  65.425  1.00  0.00    -0.228 A  
HETATM   14  C   UNL     1      -9.082  12.314  66.551  1.00  0.00    -0.188 A  
HETATM   15  C   UNL     1      -9.638  13.546  66.917  1.00  0.00    -0.258 A  
HETATM   16  C   UNL     1     -10.622  12.171  64.680  1.00  0.00    -0.300 A  
HETATM   17  C   UNL     1     -10.676  14.102  66.180  1.00  0.00    -0.297 A  
HETATM   18  C   UNL     1     -11.152  13.419  65.061  1.00  0.00    -0.332 A  
BRANCH  15  19
HETATM   19  S   UNL     1      -9.069  14.357  68.397  1.00  0.00    -0.194 S  
HETATM   20  O   UNL     1      -7.871  13.658  68.819  1.00  0.00    -0.123 OA 
HETATM   21  O   UNL     1     -10.211  14.469  69.283  1.00  0.00    -0.203 OA 
BRANCH  19  22
HETATM   22  C   UNL     1      -8.607  15.991  67.857  1.00  0.00    -0.164 C  
HETATM   23  C   UNL     1      -7.687  16.661  68.863  1.00  0.00    -0.239 C  
ENDBRANCH  19  22
ENDBRANCH  15  19
BRANCH  16  24
HETATM   24  O   UNL     1     -11.194  11.690  63.534  1.00  0.00    -0.410 OA 
HETATM   25  C   UNL     1     -12.588  11.915  63.362  1.00  0.00    -0.431 C  
ENDBRANCH  16  24
ENDBRANCH  10  13
ENDBRANCH   8   9
ENDBRANCH   7   8
ENDBRANCH   2   3
TORSDOF 7
ENDMDL
MODEL      219
REMARK 921   NORMALIZED FREE ENERGY PREDICTED BY IDOCK:   -3.71 KCAL/MOL
REMARK 922        TOTAL FREE ENERGY PREDICTED BY IDOCK:   -6.10 KCAL/MOL
REMARK 923 INTER-LIGAND FREE ENERGY PREDICTED BY IDOCK:   -5.05 KCAL/MOL
REMARK 924 INTRA-LIGAND FREE ENERGY PREDICTED BY IDOCK:   -1.04 KCAL/MOL
REMARK 927      BINDING AFFINITY PREDICTED BY RF-SCORE:    0.00 PKD
ROOT
HETATM    1  C   UNL     1      -7.184   7.771  64.195  1.00  0.00    -0.080 C  
HETATM    2  C   UNL     1      -8.078   7.053  63.191  1.00  0.00    -0.007 C  
ENDROOT
BRANCH   2   3
HETATM    3  N   UNL     1      -8.044   5.594  63.352  1.00  0.00    -0.108 NA 
HETATM    4  C   UNL     1      -6.892   4.977  62.689  1.00  0.00    -0.030 C  
HETATM    5  C   UNL     1      -6.843   3.607  63.329  1.00  0.00    -0.043 C  
HETATM    6  C   UNL     1      -7.172   3.884  64.786  1.00  0.00    -0.067 C  
HETATM    7  C   UNL     1      -7.987   5.190  64.779  1.00  0.00    -0.104 C  
BRANCH   7   8
HETATM    8  C   UNL     1      -9.407   4.994  65.357  1.00  0.00    -0.113 C  
BRANCH   8   9
HETATM    9  N   UNL     1      -9.952   6.180  66.007  1.00  0.00    -0.393 N  
HETATM   10  C   UNL     1      -9.434   6.676  67.190  1.00  0.00    -0.136 C  
HETATM   11  H   UNL     1     -10.742   6.660  65.575  1.00  0.00     0.000 HD 
HETATM   12  O   UNL     1      -8.495   6.150  67.771  1.00  0.00    -0.115 OA 
BRANCH  10  13
HETATM   13  C   UNL     1     -10.116   7.880  67.756  1.00  0.00    -0.246 A  
HETATM   14  C   UNL     1     -10.468   7.840  69.123  1.00  0.00    -0.219 A  
HETATM   15  C   UNL     1     -10.997   8.971  69.757  1.00  0.00    -0.166 A  
HETATM   16  C   UNL     1     -10.312   9.076  67.040  1.00  0.00    -0.269 A  
HETATM   17  C   UNL     1     -11.185  10.154  69.053  1.00  0.00    -0.223 A  
HETATM   18  C   UNL     1     -10.830  10.203  67.705  1.00  0.00    -0.346 A  
BRANCH  15  19
HETATM   19  S   UNL     1     -11.520   8.858  71.456  1.00  0.00    -0.349 S  
HETATM   20  O   UNL     1     -12.387   9.993  71.699  1.00  0.00    -0.378 OA 
HETATM   21  O   UNL     1     -10.326   8.653  72.253  1.00  0.00    -0.327 OA 
BRANCH  19  22
HETATM   22  C   UNL     1     -12.504   7.374  71.517  1.00  0.00    -0.361 C  
HETATM   23  C   UNL     1     -11.750   6.245  72.199  1.00  0.00    -0.368 C  
ENDBRANCH  19  22
ENDBRANCH  15  19
BRANCH  16  24
HETATM   24  O   UNL     1      -9.987   9.342  65.737  1.00  0.00    -0.309 OA 
HETATM   25  C   UNL     1     -10.098  10.693  65.306  1.00  0.00    -0.297 C  
ENDBRANCH  16  24
ENDBRANCH  10  13
ENDBRANCH   8   9
ENDBRANCH   7   8
ENDBRANCH   2   3
TORSDOF 7
ENDMDL
MODEL      220
REMARK 921   NORMALIZED FREE ENERGY PREDICTED BY IDOCK:   -3.69 KCAL/MOL
REMARK 922        TOTAL FREE ENERGY PREDICTED BY IDOCK:   -6.07 KCAL/MOL
REMARK 923 INTER-LIGAND FREE ENERGY PREDICTED BY IDOCK:   -5.72 KCAL/MOL
REMARK 924 INTRA-LIGAND FREE ENERGY PREDICTED BY IDOCK:   -0.35 KCAL/MOL
REMARK 927      BINDING AFFINITY PREDICTED BY RF-SCORE:    0.00 PKD
ROOT
HETATM    1  C   UNL     1     -11.792  16.305  68.940  1.00  0.00    -0.060 C  
HETATM    2  C   UNL     1     -10.952  16.091  70.194  1.00  0.00    -0.367 C  
ENDROOT
BRANCH   2   3
HETATM    3  N   UNL     1     -11.731  15.521  71.300  1.00  0.00    -0.359 NA 
HETATM    4  C   UNL     1     -12.070  16.513  72.325  1.00  0.00    -0.214 C  
HETATM    5  C   UNL     1     -13.176  15.824  73.092  1.00  0.00    -0.694 C  
HETATM    6  C   UNL     1     -13.988  15.140  72.005  1.00  0.00    -0.629 C  
HETATM    7  C   UNL     1     -13.009  14.926  70.837  1.00  0.00    -0.380 C  
BRANCH   7   8
HETATM    8  C   UNL     1     -12.832  13.431  70.491  1.00  0.00    -0.024 C  
BRANCH   8   9
HETATM    9  N   UNL     1     -11.672  13.148  69.654  1.00  0.00    -0.369 N  
HETATM   10  C   UNL     1     -11.372  11.870  69.218  1.00  0.00    -0.277 C  
HETATM   11  H   UNL     1     -11.061  13.919  69.380  1.00  0.00     0.000 HD 
HETATM   12  O   UNL     1     -12.051  10.895  69.513  1.00  0.00    -0.322 OA 
BRANCH  10  13
HETATM   13  C   UNL     1     -10.133  11.727  68.393  1.00  0.00    -0.201 A  
HETATM   14  C   UNL     1      -9.157  10.812  68.846  1.00  0.00    -0.170 A  
HETATM   15  C   UNL     1      -8.028  10.530  68.068  1.00  0.00    -0.106 A  
HETATM   16  C   UNL     1      -9.948  12.356  67.148  1.00  0.00    -0.207 A  
HETATM   17  C   UNL     1      -7.846  11.145  66.835  1.00  0.00    -0.152 A  
HETATM   18  C   UNL     1      -8.812  12.043  66.378  1.00  0.00    -0.126 A  
BRANCH  15  19
HETATM   19  S   UNL     1      -6.770   9.446  68.711  1.00  0.00    -0.052 S  
HETATM   20  O   UNL     1      -6.013  10.217  69.678  1.00  0.00    -0.040 OA 
HETATM   21  O   UNL     1      -6.113   8.837  67.571  1.00  0.00    -0.050 OA 
BRANCH  19  22
HETATM   22  C   UNL     1      -7.678   8.185  69.583  1.00  0.00    -0.101 C  
HETATM   23  C   UNL     1      -7.527   6.834  68.905  1.00  0.00    -0.096 C  
ENDBRANCH  19  22
ENDBRANCH  15  19
BRANCH  16  24
HETATM   24  O   UNL     1     -10.792  13.220  66.505  1.00  0.00    -0.278 OA 
HETATM   25  C   UNL     1     -11.880  12.649  65.787  1.00  0.00    -0.444 C  
ENDBRANCH  16  24
ENDBRANCH  10  13
ENDBRANCH   8   9
ENDBRANCH   7   8
ENDBRANCH   2   3
TORSDOF 7
ENDMDL
MODEL      221
REMARK 921   NORMALIZED FREE ENERGY PREDICTED BY IDOCK:   -3.63 KCAL/MOL
REMARK 922        TOTAL FREE ENERGY PREDICTED BY IDOCK:   -5.99 KCAL/MOL
REMARK 923 INTER-LIGAND FREE ENERGY PREDICTED BY IDOCK:   -5.21 KCAL/MOL
REMARK 924 INTRA-LIGAND FREE ENERGY PREDICTED BY IDOCK:   -0.78 KCAL/MOL
REMARK 927      BINDING AFFINITY PREDICTED BY RF-SCORE:    0.00 PKD
ROOT
HETATM    1  C   UNL     1      -7.579  13.239  67.426  1.00  0.00    -0.137 C  
HETATM    2  C   UNL     1      -8.795  12.331  67.283  1.00  0.00    -0.190 C  
ENDROOT
BRANCH   2   3
HETATM    3  N   UNL     1     -10.026  13.081  67.009  1.00  0.00    -0.238 NA 
HETATM    4  C   UNL     1      -9.869  14.053  65.923  1.00  0.00    -0.281 C  
HETATM    5  C   UNL     1     -11.302  14.370  65.559  1.00  0.00    -0.334 C  
HETATM    6  C   UNL     1     -11.998  13.023  65.649  1.00  0.00    -0.479 C  
HETATM    7  C   UNL     1     -11.153  12.192  66.631  1.00  0.00    -0.306 C  
BRANCH   7   8
HETATM    8  C   UNL     1     -11.961  11.761  67.876  1.00  0.00    -0.098 C  
BRANCH   8   9
HETATM    9  N   UNL     1     -11.633  10.426  68.364  1.00  0.00    -0.513 N  
HETATM   10  C   UNL     1     -11.390  10.170  69.701  1.00  0.00    -0.235 C  
HETATM   11  H   UNL     1     -11.583   9.656  67.697  1.00  0.00     0.000 HD 
HETATM   12  O   UNL     1     -11.424  11.043  70.558  1.00  0.00    -0.294 OA 
BRANCH  10  13
HETATM   13  C   UNL     1     -11.035   8.760  70.050  1.00  0.00    -0.216 A  
HETATM   14  C   UNL     1      -9.712   8.343  69.787  1.00  0.00    -0.180 A  
HETATM   15  C   UNL     1      -9.268   7.080  70.197  1.00  0.00    -0.152 A  
HETATM   16  C   UNL     1     -11.902   7.881  70.726  1.00  0.00    -0.176 A  
HETATM   17  C   UNL     1     -10.120   6.213  70.869  1.00  0.00    -0.237 A  
HETATM   18  C   UNL     1     -11.425   6.623  71.140  1.00  0.00    -0.370 A  
BRANCH  15  19
HETATM   19  S   UNL     1      -7.624   6.549  69.764  1.00  0.00    -0.099 S  
HETATM   20  O   UNL     1      -6.832   7.750  69.590  1.00  0.00    -0.042 OA 
HETATM   21  O   UNL     1      -7.760   5.588  68.687  1.00  0.00    -0.085 OA 
BRANCH  19  22
HETATM   22  C   UNL     1      -7.040   5.694  71.214  1.00  0.00    -0.072 C  
HETATM   23  C   UNL     1      -7.060   6.603  72.431  1.00  0.00    -0.073 C  
ENDBRANCH  19  22
ENDBRANCH  15  19
BRANCH  16  24
HETATM   24  O   UNL     1     -13.191   8.108  71.126  1.00  0.00    -0.172 OA 
HETATM   25  C   UNL     1     -13.902   7.005  71.676  1.00  0.00    -0.236 C  
ENDBRANCH  16  24
ENDBRANCH  10  13
ENDBRANCH   8   9
ENDBRANCH   7   8
ENDBRANCH   2   3
TORSDOF 7
ENDMDL
MODEL      222
REMARK 921   NORMALIZED FREE ENERGY PREDICTED BY IDOCK:   -3.63 KCAL/MOL
REMARK 922        TOTAL FREE ENERGY PREDICTED BY IDOCK:   -5.98 KCAL/MOL
REMARK 923 INTER-LIGAND FREE ENERGY PREDICTED BY IDOCK:   -5.06 KCAL/MOL
REMARK 924 INTRA-LIGAND FREE ENERGY PREDICTED BY IDOCK:   -0.92 KCAL/MOL
REMARK 927      BINDING AFFINITY PREDICTED BY RF-SCORE:    0.00 PKD
ROOT
HETATM    1  C   UNL     1      -6.970   3.430  63.987  1.00  0.00    -0.049 C  
HETATM    2  C   UNL     1      -7.187   3.875  65.429  1.00  0.00    -0.068 C  
ENDROOT
BRANCH   2   3
HETATM    3  N   UNL     1      -8.419   4.655  65.596  1.00  0.00    -0.116 NA 
HETATM    4  C   UNL     1      -9.587   4.007  64.995  1.00  0.00    -0.180 C  
HETATM    5  C   UNL     1     -10.738   4.746  65.640  1.00  0.00    -0.188 C  
HETATM    6  C   UNL     1     -10.282   4.928  67.077  1.00  0.00    -0.233 C  
HETATM    7  C   UNL     1      -8.744   4.890  67.025  1.00  0.00    -0.103 C  
BRANCH   7   8
HETATM    8  C   UNL     1      -8.110   6.205  67.530  1.00  0.00    -0.109 C  
BRANCH   8   9
HETATM    9  N   UNL     1      -9.070   7.152  68.086  1.00  0.00    -0.134 N  
HETATM   10  C   UNL     1      -8.678   8.352  68.654  1.00  0.00    -0.133 C  
HETATM   11  H   UNL     1     -10.064   6.923  68.056  1.00  0.00     0.000 HD 
HETATM   12  O   UNL     1      -7.505   8.691  68.734  1.00  0.00    -0.088 OA 
BRANCH  10  13
HETATM   13  C   UNL     1      -9.769   9.207  69.212  1.00  0.00    -0.164 A  
HETATM   14  C   UNL     1      -9.955  10.479  68.629  1.00  0.00    -0.188 A  
HETATM   15  C   UNL     1     -11.032  11.289  69.011  1.00  0.00    -0.236 A  
HETATM   16  C   UNL     1     -10.683   8.768  70.188  1.00  0.00    -0.224 A  
HETATM   17  C   UNL     1     -11.938  10.855  69.970  1.00  0.00    -0.429 A  
HETATM   18  C   UNL     1     -11.766   9.594  70.543  1.00  0.00    -0.312 A  
BRANCH  15  19
HETATM   19  S   UNL     1     -11.181  12.926  68.327  1.00  0.00    -0.292 S  
HETATM   20  O   UNL     1      -9.874  13.543  68.437  1.00  0.00    -0.232 OA 
HETATM   21  O   UNL     1     -12.343  13.537  68.943  1.00  0.00    -0.248 OA 
BRANCH  19  22
HETATM   22  C   UNL     1     -11.533  12.654  66.601  1.00  0.00    -0.351 C  
HETATM   23  C   UNL     1     -11.782  13.967  65.880  1.00  0.00    -0.373 C  
ENDBRANCH  19  22
ENDBRANCH  15  19
BRANCH  16  24
HETATM   24  O   UNL     1     -10.718   7.558  70.828  1.00  0.00    -0.222 OA 
HETATM   25  C   UNL     1     -11.683   6.615  70.377  1.00  0.00    -0.386 C  
ENDBRANCH  16  24
ENDBRANCH  10  13
ENDBRANCH   8   9
ENDBRANCH   7   8
ENDBRANCH   2   3
TORSDOF 7
ENDMDL
MODEL      223
REMARK 921   NORMALIZED FREE ENERGY PREDICTED BY IDOCK:   -3.60 KCAL/MOL
REMARK 922        TOTAL FREE ENERGY PREDICTED BY IDOCK:   -5.94 KCAL/MOL
REMARK 923 INTER-LIGAND FREE ENERGY PREDICTED BY IDOCK:   -4.95 KCAL/MOL
REMARK 924 INTRA-LIGAND FREE ENERGY PREDICTED BY IDOCK:   -0.99 KCAL/MOL
REMARK 927      BINDING AFFINITY PREDICTED BY RF-SCORE:    0.00 PKD
ROOT
HETATM    1  C   UNL     1     -13.652   9.224  71.770  1.00  0.00    -0.465 C  
HETATM    2  C   UNL     1     -12.310   9.949  71.760  1.00  0.00    -0.368 C  
ENDROOT
BRANCH   2   3
HETATM    3  N   UNL     1     -11.194   9.056  71.426  1.00  0.00    -0.296 NA 
HETATM    4  C   UNL     1     -10.242   9.664  70.491  1.00  0.00    -0.287 C  
HETATM    5  C   UNL     1      -9.030   8.770  70.633  1.00  0.00    -0.219 C  
HETATM    6  C   UNL     1      -8.975   8.483  72.124  1.00  0.00    -0.300 C  
HETATM    7  C   UNL     1     -10.420   8.653  72.626  1.00  0.00    -0.035 C  
BRANCH   7   8
HETATM    8  C   UNL     1     -10.983   7.350  73.237  1.00  0.00    -0.318 C  
BRANCH   8   9
HETATM    9  N   UNL     1     -10.791   6.170  72.402  1.00  0.00    -0.230 N  
HETATM   10  C   UNL     1      -9.945   5.138  72.768  1.00  0.00    -0.161 C  
HETATM   11  H   UNL     1     -11.297   6.103  71.519  1.00  0.00     0.000 HD 
HETATM   12  O   UNL     1      -9.298   5.152  73.807  1.00  0.00    -0.131 OA 
BRANCH  10  13
HETATM   13  C   UNL     1      -9.823   4.008  71.797  1.00  0.00    -0.249 A  
HETATM   14  C   UNL     1      -9.428   4.328  70.480  1.00  0.00    -0.244 A  
HETATM   15  C   UNL     1      -9.173   3.316  69.546  1.00  0.00    -0.155 A  
HETATM   16  C   UNL     1      -9.962   2.654  72.154  1.00  0.00    -0.166 A  
HETATM   17  C   UNL     1      -9.303   1.978  69.898  1.00  0.00    -0.164 A  
HETATM   18  C   UNL     1      -9.684   1.656  71.201  1.00  0.00    -0.190 A  
BRANCH  15  19
HETATM   19  S   UNL     1      -8.770   3.755  67.868  1.00  0.00    -0.112 S  
HETATM   20  O   UNL     1      -9.654   2.987  67.014  1.00  0.00    -0.118 OA 
HETATM   21  O   UNL     1      -7.331   3.643  67.735  1.00  0.00    -0.061 OA 
BRANCH  19  22
HETATM   22  C   UNL     1      -9.219   5.475  67.741  1.00  0.00    -0.107 C  
HETATM   23  C   UNL     1     -10.701   5.635  67.451  1.00  0.00    -0.283 C  
ENDBRANCH  19  22
ENDBRANCH  15  19
BRANCH  16  24
HETATM   24  O   UNL     1     -10.275   2.132  73.380  1.00  0.00    -0.100 OA 
HETATM   25  C   UNL     1     -11.656   1.976  73.685  1.00  0.00    -0.189 C  
ENDBRANCH  16  24
ENDBRANCH  10  13
ENDBRANCH   8   9
ENDBRANCH   7   8
ENDBRANCH   2   3
TORSDOF 7
ENDMDL
MODEL      224
REMARK 921   NORMALIZED FREE ENERGY PREDICTED BY IDOCK:   -3.59 KCAL/MOL
REMARK 922        TOTAL FREE ENERGY PREDICTED BY IDOCK:   -5.93 KCAL/MOL
REMARK 923 INTER-LIGAND FREE ENERGY PREDICTED BY IDOCK:   -5.30 KCAL/MOL
REMARK 924 INTRA-LIGAND FREE ENERGY PREDICTED BY IDOCK:   -0.63 KCAL/MOL
REMARK 927      BINDING AFFINITY PREDICTED BY RF-SCORE:    0.00 PKD
ROOT
HETATM    1  C   UNL     1      -5.957   4.408  67.006  1.00  0.00    -0.024 C  
HETATM    2  C   UNL     1      -7.148   4.532  66.061  1.00  0.00    -0.071 C  
ENDROOT
BRANCH   2   3
HETATM    3  N   UNL     1      -8.242   3.619  66.414  1.00  0.00    -0.099 NA 
HETATM    4  C   UNL     1      -7.766   2.293  66.818  1.00  0.00    -0.070 C  
HETATM    5  C   UNL     1      -8.978   1.710  67.510  1.00  0.00    -0.160 C  
HETATM    6  C   UNL     1      -9.544   2.886  68.285  1.00  0.00    -0.118 C  
HETATM    7  C   UNL     1      -9.067   4.140  67.532  1.00  0.00    -0.140 C  
BRANCH   7   8
HETATM    8  C   UNL     1     -10.246   4.988  67.004  1.00  0.00    -0.208 C  
BRANCH   8   9
HETATM    9  N   UNL     1     -10.211   6.383  67.427  1.00  0.00    -0.155 N  
HETATM   10  C   UNL     1     -10.719   6.796  68.646  1.00  0.00    -0.234 C  
HETATM   11  H   UNL     1      -9.799   7.078  66.804  1.00  0.00     0.000 HD 
HETATM   12  O   UNL     1     -11.237   6.023  69.441  1.00  0.00    -0.395 OA 
BRANCH  10  13
HETATM   13  C   UNL     1     -10.644   8.261  68.931  1.00  0.00    -0.160 A  
HETATM   14  C   UNL     1     -10.537   9.130  67.823  1.00  0.00    -0.289 A  
HETATM   15  C   UNL     1     -10.585  10.519  67.997  1.00  0.00    -0.214 A  
HETATM   16  C   UNL     1     -10.794   8.816  70.216  1.00  0.00    -0.231 A  
HETATM   17  C   UNL     1     -10.739  11.068  69.264  1.00  0.00    -0.263 A  
HETATM   18  C   UNL     1     -10.855  10.214  70.362  1.00  0.00    -0.365 A  
BRANCH  15  19
HETATM   19  S   UNL     1     -10.351  11.586  66.591  1.00  0.00    -0.234 S  
HETATM   20  O   UNL     1      -9.109  12.299  66.814  1.00  0.00    -0.202 OA 
HETATM   21  O   UNL     1     -11.594  12.306  66.395  1.00  0.00    -0.366 OA 
BRANCH  19  22
HETATM   22  C   UNL     1     -10.121  10.469  65.222  1.00  0.00    -0.300 C  
HETATM   23  C   UNL     1     -10.459  11.142  63.903  1.00  0.00    -0.445 C  
ENDBRANCH  19  22
ENDBRANCH  15  19
BRANCH  16  24
HETATM   24  O   UNL     1     -10.972   8.159  71.403  1.00  0.00    -0.228 OA 
HETATM   25  C   UNL     1     -12.302   8.072  71.902  1.00  0.00    -0.323 C  
ENDBRANCH  16  24
ENDBRANCH  10  13
ENDBRANCH   8   9
ENDBRANCH   7   8
ENDBRANCH   2   3
TORSDOF 7
ENDMDL
MODEL      225
REMARK 921   NORMALIZED FREE ENERGY PREDICTED BY IDOCK:   -3.58 KCAL/MOL
REMARK 922        TOTAL FREE ENERGY PREDICTED BY IDOCK:   -5.92 KCAL/MOL
REMARK 923 INTER-LIGAND FREE ENERGY PREDICTED BY IDOCK:   -4.87 KCAL/MOL
REMARK 924 INTRA-LIGAND FREE ENERGY PREDICTED BY IDOCK:   -1.05 KCAL/MOL
REMARK 927      BINDING AFFINITY PREDICTED BY RF-SCORE:    0.00 PKD
ROOT
HETATM    1  C   UNL     1      -7.965  12.584  67.505  1.00  0.00    -0.175 C  
HETATM    2  C   UNL     1      -7.043  11.393  67.261  1.00  0.00    -0.119 C  
ENDROOT
BRANCH   2   3
HETATM    3  N   UNL     1      -7.431  10.618  66.077  1.00  0.00    -0.140 NA 
HETATM    4  C   UNL     1      -6.290  10.281  65.221  1.00  0.00    -0.125 C  
HETATM    5  C   UNL     1      -6.850   9.177  64.351  1.00  0.00    -0.087 C  
HETATM    6  C   UNL     1      -7.697   8.363  65.314  1.00  0.00    -0.098 C  
HETATM    7  C   UNL     1      -8.092   9.339  66.436  1.00  0.00    -0.107 C  
BRANCH   7   8
HETATM    8  C   UNL     1      -9.623   9.517  66.542  1.00  0.00    -0.201 C  
BRANCH   8   9
HETATM    9  N   UNL     1     -10.141   9.416  67.902  1.00  0.00    -0.183 N  
HETATM   10  C   UNL     1     -10.446   8.199  68.485  1.00  0.00    -0.162 C  
HETATM   11  H   UNL     1     -10.282  10.271  68.441  1.00  0.00     0.000 HD 
HETATM   12  O   UNL     1     -10.311   7.133  67.899  1.00  0.00    -0.176 OA 
BRANCH  10  13
HETATM   13  C   UNL     1     -10.998   8.252  69.873  1.00  0.00    -0.166 A  
HETATM   14  C   UNL     1     -10.628   7.214  70.756  1.00  0.00    -0.240 A  
HETATM   15  C   UNL     1     -11.002   7.257  72.105  1.00  0.00    -0.239 A  
HETATM   16  C   UNL     1     -11.755   9.329  70.372  1.00  0.00    -0.114 A  
HETATM   17  C   UNL     1     -11.744   8.322  72.600  1.00  0.00    -0.406 A  
HETATM   18  C   UNL     1     -12.104   9.356  71.735  1.00  0.00    -0.454 A  
BRANCH  15  19
HETATM   19  S   UNL     1     -10.602   5.886  73.168  1.00  0.00    -0.260 S  
HETATM   20  O   UNL     1     -11.669   4.917  73.015  1.00  0.00    -0.278 OA 
HETATM   21  O   UNL     1     -10.285   6.438  74.470  1.00  0.00    -0.342 OA 
BRANCH  19  22
HETATM   22  C   UNL     1      -9.114   5.201  72.465  1.00  0.00    -0.133 C  
HETATM   23  C   UNL     1      -7.885   5.669  73.224  1.00  0.00    -0.106 C  
ENDBRANCH  19  22
ENDBRANCH  15  19
BRANCH  16  24
HETATM   24  O   UNL     1     -12.163  10.454  69.707  1.00  0.00    -0.211 OA 
HETATM   25  C   UNL     1     -12.214  11.664  70.452  1.00  0.00    -0.347 C  
ENDBRANCH  16  24
ENDBRANCH  10  13
ENDBRANCH   8   9
ENDBRANCH   7   8
ENDBRANCH   2   3
TORSDOF 7
ENDMDL
MODEL      226
REMARK 921   NORMALIZED FREE ENERGY PREDICTED BY IDOCK:   -3.54 KCAL/MOL
REMARK 922        TOTAL FREE ENERGY PREDICTED BY IDOCK:   -5.86 KCAL/MOL
REMARK 923 INTER-LIGAND FREE ENERGY PREDICTED BY IDOCK:   -4.76 KCAL/MOL
REMARK 924 INTRA-LIGAND FREE ENERGY PREDICTED BY IDOCK:   -1.10 KCAL/MOL
REMARK 927      BINDING AFFINITY PREDICTED BY RF-SCORE:    0.00 PKD
ROOT
HETATM    1  C   UNL     1      -8.098  16.946  68.046  1.00  0.00    -0.194 C  
HETATM    2  C   UNL     1      -9.267  16.382  68.846  1.00  0.00    -0.259 C  
ENDROOT
BRANCH   2   3
HETATM    3  N   UNL     1     -10.048  15.401  68.081  1.00  0.00    -0.221 NA 
HETATM    4  C   UNL     1     -11.349  15.922  67.652  1.00  0.00    -0.151 C  
HETATM    5  C   UNL     1     -11.755  14.939  66.577  1.00  0.00    -0.204 C  
HETATM    6  C   UNL     1     -10.456  14.663  65.840  1.00  0.00    -0.325 C  
HETATM    7  C   UNL     1      -9.339  14.952  66.858  1.00  0.00    -0.241 C  
BRANCH   7   8
HETATM    8  C   UNL     1      -8.475  13.704  67.144  1.00  0.00    -0.174 C  
BRANCH   8   9
HETATM    9  N   UNL     1      -9.088  12.754  68.065  1.00  0.00    -0.201 N  
HETATM   10  C   UNL     1      -9.612  11.546  67.638  1.00  0.00    -0.171 C  
HETATM   11  H   UNL     1      -9.133  12.987  69.058  1.00  0.00     0.000 HD 
HETATM   12  O   UNL     1      -9.603  11.201  66.464  1.00  0.00    -0.189 OA 
BRANCH  10  13
HETATM   13  C   UNL     1     -10.238  10.689  68.691  1.00  0.00    -0.196 A  
HETATM   14  C   UNL     1      -9.726   9.383  68.849  1.00  0.00    -0.166 A  
HETATM   15  C   UNL     1     -10.174   8.562  69.892  1.00  0.00    -0.204 A  
HETATM   16  C   UNL     1     -11.211  11.151  69.596  1.00  0.00    -0.264 A  
HETATM   17  C   UNL     1     -11.130   9.018  70.790  1.00  0.00    -0.328 A  
HETATM   18  C   UNL     1     -11.632  10.312  70.645  1.00  0.00    -0.435 A  
BRANCH  15  19
HETATM   19  S   UNL     1      -9.579   6.888  70.004  1.00  0.00    -0.155 S  
HETATM   20  O   UNL     1      -9.915   6.243  68.750  1.00  0.00    -0.139 OA 
HETATM   21  O   UNL     1     -10.057   6.353  71.264  1.00  0.00    -0.185 OA 
BRANCH  19  22
HETATM   22  C   UNL     1      -7.807   7.053  70.095  1.00  0.00    -0.109 C  
HETATM   23  C   UNL     1      -7.135   5.695  70.193  1.00  0.00    -0.066 C  
ENDBRANCH  19  22
ENDBRANCH  15  19
BRANCH  16  24
HETATM   24  O   UNL     1     -11.789  12.390  69.656  1.00  0.00    -0.305 OA 
HETATM   25  C   UNL     1     -11.969  12.959  70.948  1.00  0.00     0.119 C  
ENDBRANCH  16  24
ENDBRANCH  10  13
ENDBRANCH   8   9
ENDBRANCH   7   8
ENDBRANCH   2   3
TORSDOF 7
ENDMDL
MODEL      227
REMARK 921   NORMALIZED FREE ENERGY PREDICTED BY IDOCK:   -3.54 KCAL/MOL
REMARK 922        TOTAL FREE ENERGY PREDICTED BY IDOCK:   -5.86 KCAL/MOL
REMARK 923 INTER-LIGAND FREE ENERGY PREDICTED BY IDOCK:   -4.78 KCAL/MOL
REMARK 924 INTRA-LIGAND FREE ENERGY PREDICTED BY IDOCK:   -1.08 KCAL/MOL
REMARK 927      BINDING AFFINITY PREDICTED BY RF-SCORE:    0.00 PKD
ROOT
HETATM    1  C   UNL     1     -12.145  13.349  65.221  1.00  0.00    -0.446 C  
HETATM    2  C   UNL     1     -12.021  12.423  66.427  1.00  0.00    -0.274 C  
ENDROOT
BRANCH   2   3
HETATM    3  N   UNL     1     -11.113  12.953  67.451  1.00  0.00    -0.263 NA 
HETATM    4  C   UNL     1     -10.557  14.261  67.093  1.00  0.00    -0.279 C  
HETATM    5  C   UNL     1     -10.029  14.764  68.418  1.00  0.00    -0.223 C  
HETATM    6  C   UNL     1     -11.094  14.330  69.411  1.00  0.00    -0.283 C  
HETATM    7  C   UNL     1     -11.784  13.116  68.764  1.00  0.00    -0.324 C  
BRANCH   7   8
HETATM    8  C   UNL     1     -11.642  11.839  69.622  1.00  0.00    -0.323 C  
BRANCH   8   9
HETATM    9  N   UNL     1     -10.472  11.031  69.296  1.00  0.00    -0.332 N  
HETATM   10  C   UNL     1     -10.166   9.868  69.981  1.00  0.00    -0.271 C  
HETATM   11  H   UNL     1      -9.860  11.333  68.539  1.00  0.00     0.000 HD 
HETATM   12  O   UNL     1     -10.848   9.448  70.906  1.00  0.00    -0.267 OA 
BRANCH  10  13
HETATM   13  C   UNL     1      -8.919   9.162  69.558  1.00  0.00    -0.151 A  
HETATM   14  C   UNL     1      -9.058   7.851  69.052  1.00  0.00    -0.144 A  
HETATM   15  C   UNL     1      -7.955   7.171  68.521  1.00  0.00    -0.124 A  
HETATM   16  C   UNL     1      -7.650   9.771  69.526  1.00  0.00    -0.114 A  
HETATM   17  C   UNL     1      -6.703   7.772  68.483  1.00  0.00    -0.058 A  
HETATM   18  C   UNL     1      -6.562   9.070  68.973  1.00  0.00    -0.048 A  
BRANCH  15  19
HETATM   19  S   UNL     1      -8.146   5.485  67.980  1.00  0.00    -0.096 S  
HETATM   20  O   UNL     1      -9.080   4.858  68.894  1.00  0.00    -0.103 OA 
HETATM   21  O   UNL     1      -6.812   4.946  67.798  1.00  0.00    -0.057 OA 
BRANCH  19  22
HETATM   22  C   UNL     1      -8.925   5.618  66.383  1.00  0.00    -0.134 C  
HETATM   23  C   UNL     1     -10.435   5.499  66.498  1.00  0.00    -0.331 C  
ENDBRANCH  19  22
ENDBRANCH  15  19
BRANCH  16  24
HETATM   24  O   UNL     1      -7.313  11.041  69.908  1.00  0.00    -0.045 OA 
HETATM   25  C   UNL     1      -7.223  12.023  68.882  1.00  0.00    -0.089 C  
ENDBRANCH  16  24
ENDBRANCH  10  13
ENDBRANCH   8   9
ENDBRANCH   7   8
ENDBRANCH   2   3
TORSDOF 7
ENDMDL
MODEL      228
REMARK 921   NORMALIZED FREE ENERGY PREDICTED BY IDOCK:   -3.49 KCAL/MOL
REMARK 922        TOTAL FREE ENERGY PREDICTED BY IDOCK:   -5.78 KCAL/MOL
REMARK 923 INTER-LIGAND FREE ENERGY PREDICTED BY IDOCK:   -4.94 KCAL/MOL
REMARK 924 INTRA-LIGAND FREE ENERGY PREDICTED BY IDOCK:   -0.84 KCAL/MOL
REMARK 927      BINDING AFFINITY PREDICTED BY RF-SCORE:    0.00 PKD
ROOT
HETATM    1  C   UNL     1      -8.513  15.071  66.931  1.00  0.00    -0.269 C  
HETATM    2  C   UNL     1      -9.194  13.709  67.024  1.00  0.00    -0.250 C  
ENDROOT
BRANCH   2   3
HETATM    3  N   UNL     1     -10.648  13.796  66.846  1.00  0.00    -0.275 NA 
HETATM    4  C   UNL     1     -11.041  14.828  65.882  1.00  0.00    -0.340 C  
HETATM    5  C   UNL     1     -12.471  14.450  65.564  1.00  0.00    -0.356 C  
HETATM    6  C   UNL     1     -12.429  12.933  65.496  1.00  0.00    -0.462 C  
HETATM    7  C   UNL     1     -11.232  12.518  66.369  1.00  0.00    -0.306 C  
BRANCH   7   8
HETATM    8  C   UNL     1     -11.658  11.625  67.557  1.00  0.00    -0.272 C  
BRANCH   8   9
HETATM    9  N   UNL     1     -10.683  10.599  67.909  1.00  0.00    -0.227 N  
HETATM   10  C   UNL     1     -10.523  10.150  69.208  1.00  0.00    -0.225 C  
HETATM   11  H   UNL     1     -10.100  10.199  67.173  1.00  0.00     0.000 HD 
HETATM   12  O   UNL     1     -11.179  10.588  70.143  1.00  0.00    -0.281 OA 
BRANCH  10  13
HETATM   13  C   UNL     1      -9.463   9.118  69.423  1.00  0.00    -0.161 A  
HETATM   14  C   UNL     1      -9.779   7.785  69.082  1.00  0.00    -0.161 A  
HETATM   15  C   UNL     1      -8.803   6.783  69.138  1.00  0.00    -0.134 A  
HETATM   16  C   UNL     1      -8.149   9.421  69.828  1.00  0.00    -0.133 A  
HETATM   17  C   UNL     1      -7.504   7.081  69.531  1.00  0.00    -0.096 A  
HETATM   18  C   UNL     1      -7.183   8.398  69.861  1.00  0.00    -0.055 A  
BRANCH  15  19
HETATM   19  S   UNL     1      -9.260   5.097  68.793  1.00  0.00    -0.125 S  
HETATM   20  O   UNL     1     -10.314   4.753  69.727  1.00  0.00    -0.227 OA 
HETATM   21  O   UNL     1      -8.032   4.328  68.746  1.00  0.00    -0.072 OA 
BRANCH  19  22
HETATM   22  C   UNL     1      -9.955   5.153  67.154  1.00  0.00    -0.191 C  
HETATM   23  C   UNL     1      -8.885   5.433  66.113  1.00  0.00    -0.139 C  
ENDBRANCH  19  22
ENDBRANCH  15  19
BRANCH  16  24
HETATM   24  O   UNL     1      -7.624  10.645  70.143  1.00  0.00    -0.083 OA 
HETATM   25  C   UNL     1      -6.324  10.939  69.645  1.00  0.00    -0.100 C  
ENDBRANCH  16  24
ENDBRANCH  10  13
ENDBRANCH   8   9
ENDBRANCH   7   8
ENDBRANCH   2   3
TORSDOF 7
ENDMDL
MODEL      229
REMARK 921   NORMALIZED FREE ENERGY PREDICTED BY IDOCK:   -3.48 KCAL/MOL
REMARK 922        TOTAL FREE ENERGY PREDICTED BY IDOCK:   -5.78 KCAL/MOL
REMARK 923 INTER-LIGAND FREE ENERGY PREDICTED BY IDOCK:   -4.78 KCAL/MOL
REMARK 924 INTRA-LIGAND FREE ENERGY PREDICTED BY IDOCK:   -0.99 KCAL/MOL
REMARK 927      BINDING AFFINITY PREDICTED BY RF-SCORE:    0.00 PKD
ROOT
HETATM    1  C   UNL     1      -7.982  15.213  69.444  1.00  0.00    -0.205 C  
HETATM    2  C   UNL     1      -9.041  15.206  68.346  1.00  0.00    -0.185 C  
ENDROOT
BRANCH   2   3
HETATM    3  N   UNL     1     -10.356  14.780  68.838  1.00  0.00    -0.238 NA 
HETATM    4  C   UNL     1     -10.657  15.300  70.174  1.00  0.00    -0.257 C  
HETATM    5  C   UNL     1     -12.153  15.097  70.274  1.00  0.00    -0.385 C  
HETATM    6  C   UNL     1     -12.653  15.459  68.886  1.00  0.00     0.373 C  
HETATM    7  C   UNL     1     -11.457  15.220  67.946  1.00  0.00    -0.316 C  
BRANCH   7   8
HETATM    8  C   UNL     1     -11.764  14.152  66.873  1.00  0.00    -0.414 C  
BRANCH   8   9
HETATM    9  N   UNL     1     -11.390  12.796  67.260  1.00  0.00    -0.295 N  
HETATM   10  C   UNL     1     -10.519  12.029  66.507  1.00  0.00    -0.221 C  
HETATM   11  H   UNL     1     -11.783  12.401  68.114  1.00  0.00     0.000 HD 
HETATM   12  O   UNL     1     -10.015  12.431  65.467  1.00  0.00    -0.260 OA 
BRANCH  10  13
HETATM   13  C   UNL     1     -10.253  10.646  67.010  1.00  0.00    -0.267 A  
HETATM   14  C   UNL     1      -9.400   9.830  66.236  1.00  0.00    -0.230 A  
HETATM   15  C   UNL     1      -9.004   8.570  66.700  1.00  0.00    -0.148 A  
HETATM   16  C   UNL     1     -10.705  10.168  68.254  1.00  0.00    -0.238 A  
HETATM   17  C   UNL     1      -9.443   8.098  67.931  1.00  0.00    -0.162 A  
HETATM   18  C   UNL     1     -10.279   8.904  68.704  1.00  0.00    -0.221 A  
BRANCH  15  19
HETATM   19  S   UNL     1      -8.005   7.527  65.657  1.00  0.00    -0.124 S  
HETATM   20  O   UNL     1      -8.048   8.106  64.329  1.00  0.00    -0.149 OA 
HETATM   21  O   UNL     1      -8.439   6.163  65.884  1.00  0.00    -0.133 OA 
BRANCH  19  22
HETATM   22  C   UNL     1      -6.353   7.712  66.299  1.00  0.00    -0.045 C  
HETATM   23  C   UNL     1      -6.110   9.129  66.787  1.00  0.00    -0.064 C  
ENDBRANCH  19  22
ENDBRANCH  15  19
BRANCH  16  24
HETATM   24  O   UNL     1     -11.482  10.816  69.176  1.00  0.00    -0.257 OA 
HETATM   25  C   UNL     1     -11.340  10.419  70.535  1.00  0.00    -0.341 C  
ENDBRANCH  16  24
ENDBRANCH  10  13
ENDBRANCH   8   9
ENDBRANCH   7   8
ENDBRANCH   2   3
TORSDOF 7
ENDMDL
MODEL      230
REMARK 921   NORMALIZED FREE ENERGY PREDICTED BY IDOCK:   -3.45 KCAL/MOL
REMARK 922        TOTAL FREE ENERGY PREDICTED BY IDOCK:   -5.74 KCAL/MOL
REMARK 923 INTER-LIGAND FREE ENERGY PREDICTED BY IDOCK:   -5.11 KCAL/MOL
REMARK 924 INTRA-LIGAND FREE ENERGY PREDICTED BY IDOCK:   -0.62 KCAL/MOL
REMARK 927      BINDING AFFINITY PREDICTED BY RF-SCORE:    0.00 PKD
ROOT
HETATM    1  C   UNL     1     -12.158  13.724  69.744  1.00  0.00    -0.400 C  
HETATM    2  C   UNL     1     -11.842  12.309  69.273  1.00  0.00    -0.306 C  
ENDROOT
BRANCH   2   3
HETATM    3  N   UNL     1     -11.672  11.371  70.390  1.00  0.00    -0.312 NA 
HETATM    4  C   UNL     1     -12.868  11.268  71.231  1.00  0.00    -0.389 C  
HETATM    5  C   UNL     1     -12.612   9.995  72.006  1.00  0.00    -0.379 C  
HETATM    6  C   UNL     1     -11.990   9.070  70.974  1.00  0.00    -0.323 C  
HETATM    7  C   UNL     1     -11.353   9.999  69.925  1.00  0.00    -0.250 C  
BRANCH   7   8
HETATM    8  C   UNL     1      -9.825   9.791  69.815  1.00  0.00    -0.234 C  
BRANCH   8   9
HETATM    9  N   UNL     1      -9.335   9.708  68.444  1.00  0.00    -0.133 N  
HETATM   10  C   UNL     1      -9.832   8.787  67.538  1.00  0.00    -0.179 C  
HETATM   11  H   UNL     1      -8.601  10.349  68.142  1.00  0.00     0.000 HD 
HETATM   12  O   UNL     1     -10.705   7.981  67.829  1.00  0.00    -0.198 OA 
BRANCH  10  13
HETATM   13  C   UNL     1      -9.211   8.796  66.179  1.00  0.00    -0.273 A  
HETATM   14  C   UNL     1      -8.639   7.589  65.722  1.00  0.00    -0.158 A  
HETATM   15  C   UNL     1      -8.148   7.482  64.414  1.00  0.00    -0.074 A  
HETATM   16  C   UNL     1      -9.274   9.893  65.299  1.00  0.00    -0.226 A  
HETATM   17  C   UNL     1      -8.215   8.561  63.543  1.00  0.00    -0.133 A  
HETATM   18  C   UNL     1      -8.788   9.754  63.986  1.00  0.00    -0.258 A  
BRANCH  15  19
HETATM   19  S   UNL     1      -7.347   5.977  63.902  1.00  0.00    -0.072 S  
HETATM   20  O   UNL     1      -6.162   5.836  64.725  1.00  0.00    -0.028 OA 
HETATM   21  O   UNL     1      -7.243   6.024  62.456  1.00  0.00    -0.046 OA 
BRANCH  19  22
HETATM   22  C   UNL     1      -8.497   4.690  64.345  1.00  0.00    -0.130 C  
HETATM   23  C   UNL     1      -7.901   3.757  65.385  1.00  0.00    -0.089 C  
ENDBRANCH  19  22
ENDBRANCH  15  19
BRANCH  16  24
HETATM   24  O   UNL     1      -9.835  11.122  65.520  1.00  0.00    -0.212 OA 
HETATM   25  C   UNL     1     -10.518  11.728  64.429  1.00  0.00    -0.311 C  
ENDBRANCH  16  24
ENDBRANCH  10  13
ENDBRANCH   8   9
ENDBRANCH   7   8
ENDBRANCH   2   3
TORSDOF 7
ENDMDL
MODEL      231
REMARK 921   NORMALIZED FREE ENERGY PREDICTED BY IDOCK:   -3.45 KCAL/MOL
REMARK 922        TOTAL FREE ENERGY PREDICTED BY IDOCK:   -5.73 KCAL/MOL
REMARK 923 INTER-LIGAND FREE ENERGY PREDICTED BY IDOCK:   -4.72 KCAL/MOL
REMARK 924 INTRA-LIGAND FREE ENERGY PREDICTED BY IDOCK:   -1.01 KCAL/MOL
REMARK 927      BINDING AFFINITY PREDICTED BY RF-SCORE:    0.00 PKD
ROOT
HETATM    1  C   UNL     1      -5.572   6.907  64.251  1.00  0.00    -0.032 C  
HETATM    2  C   UNL     1      -7.088   7.068  64.218  1.00  0.00    -0.059 C  
ENDROOT
BRANCH   2   3
HETATM    3  N   UNL     1      -7.507   8.463  64.399  1.00  0.00    -0.099 NA 
HETATM    4  C   UNL     1      -7.841   9.124  63.134  1.00  0.00    -0.132 C  
HETATM    5  C   UNL     1      -8.615  10.339  63.596  1.00  0.00    -0.196 C  
HETATM    6  C   UNL     1      -9.461   9.807  64.739  1.00  0.00    -0.318 C  
HETATM    7  C   UNL     1      -8.700   8.581  65.274  1.00  0.00    -0.140 C  
BRANCH   7   8
HETATM    8  C   UNL     1      -8.289   8.749  66.754  1.00  0.00    -0.108 C  
BRANCH   8   9
HETATM    9  N   UNL     1      -9.265   9.468  67.564  1.00  0.00    -0.126 N  
HETATM   10  C   UNL     1      -8.961  10.658  68.200  1.00  0.00    -0.141 C  
HETATM   11  H   UNL     1     -10.204   9.081  67.665  1.00  0.00     0.000 HD 
HETATM   12  O   UNL     1      -7.856  11.179  68.134  1.00  0.00    -0.107 OA 
BRANCH  10  13
HETATM   13  C   UNL     1     -10.052  11.265  69.022  1.00  0.00    -0.147 A  
HETATM   14  C   UNL     1     -10.358  12.624  68.788  1.00  0.00    -0.132 A  
HETATM   15  C   UNL     1     -11.446  13.230  69.427  1.00  0.00    -0.263 A  
HETATM   16  C   UNL     1     -10.856  10.533  69.916  1.00  0.00    -0.276 A  
HETATM   17  C   UNL     1     -12.245  12.508  70.305  1.00  0.00    -0.345 A  
HETATM   18  C   UNL     1     -11.953  11.163  70.533  1.00  0.00    -0.475 A  
BRANCH  15  19
HETATM   19  S   UNL     1     -11.746  14.969  69.183  1.00  0.00    -0.321 S  
HETATM   20  O   UNL     1     -13.153  15.189  69.449  1.00  0.00     0.422 OA 
HETATM   21  O   UNL     1     -11.170  15.321  67.900  1.00  0.00    -0.309 OA 
BRANCH  19  22
HETATM   22  C   UNL     1     -10.799  15.765  70.466  1.00  0.00    -0.301 C  
HETATM   23  C   UNL     1     -11.661  16.057  71.682  1.00  0.00    -0.583 C  
ENDBRANCH  19  22
ENDBRANCH  15  19
BRANCH  16  24
HETATM   24  O   UNL     1     -10.769   9.205  70.236  1.00  0.00    -0.211 OA 
HETATM   25  C   UNL     1     -10.288   8.882  71.535  1.00  0.00    -0.324 C  
ENDBRANCH  16  24
ENDBRANCH  10  13
ENDBRANCH   8   9
ENDBRANCH   7   8
ENDBRANCH   2   3
TORSDOF 7
ENDMDL
MODEL      232
REMARK 921   NORMALIZED FREE ENERGY PREDICTED BY IDOCK:   -3.38 KCAL/MOL
REMARK 922        TOTAL FREE ENERGY PREDICTED BY IDOCK:   -5.64 KCAL/MOL
REMARK 923 INTER-LIGAND FREE ENERGY PREDICTED BY IDOCK:   -5.00 KCAL/MOL
REMARK 924 INTRA-LIGAND FREE ENERGY PREDICTED BY IDOCK:   -0.63 KCAL/MOL
REMARK 927      BINDING AFFINITY PREDICTED BY RF-SCORE:    0.00 PKD
ROOT
HETATM    1  C   UNL     1      -8.299  14.920  67.183  1.00  0.00    -0.247 C  
HETATM    2  C   UNL     1      -8.891  13.517  67.262  1.00  0.00    -0.224 C  
ENDROOT
BRANCH   2   3
HETATM    3  N   UNL     1     -10.355  13.519  67.155  1.00  0.00    -0.249 NA 
HETATM    4  C   UNL     1     -10.869  14.683  66.428  1.00  0.00    -0.315 C  
HETATM    5  C   UNL     1     -12.281  14.259  66.091  1.00  0.00    -0.430 C  
HETATM    6  C   UNL     1     -12.133  12.792  65.724  1.00  0.00    -0.505 C  
HETATM    7  C   UNL     1     -10.867  12.314  66.456  1.00  0.00    -0.259 C  
BRANCH   7   8
HETATM    8  C   UNL     1     -11.167  11.177  67.458  1.00  0.00    -0.301 C  
BRANCH   8   9
HETATM    9  N   UNL     1     -10.337   9.991  67.279  1.00  0.00    -0.222 N  
HETATM   10  C   UNL     1     -10.114   9.087  68.302  1.00  0.00    -0.192 C  
HETATM   11  H   UNL     1      -9.906   9.824  66.369  1.00  0.00     0.000 HD 
HETATM   12  O   UNL     1     -10.589   9.225  69.421  1.00  0.00    -0.218 OA 
BRANCH  10  13
HETATM   13  C   UNL     1      -9.215   7.936  67.981  1.00  0.00    -0.134 A  
HETATM   14  C   UNL     1      -9.694   6.978  67.061  1.00  0.00    -0.216 A  
HETATM   15  C   UNL     1      -8.867   5.940  66.615  1.00  0.00    -0.123 A  
HETATM   16  C   UNL     1      -7.891   7.826  68.448  1.00  0.00    -0.121 A  
HETATM   17  C   UNL     1      -7.559   5.833  67.070  1.00  0.00    -0.099 A  
HETATM   18  C   UNL     1      -7.076   6.782  67.972  1.00  0.00    -0.085 A  
BRANCH  15  19
HETATM   19  S   UNL     1      -9.533   4.695  65.531  1.00  0.00    -0.175 S  
HETATM   20  O   UNL     1      -8.895   4.882  64.243  1.00  0.00    -0.148 OA 
HETATM   21  O   UNL     1     -10.976   4.752  65.658  1.00  0.00    -0.244 OA 
BRANCH  19  22
HETATM   22  C   UNL     1      -8.964   3.155  66.223  1.00  0.00    -0.150 C  
HETATM   23  C   UNL     1      -9.236   3.092  67.716  1.00  0.00    -0.244 C  
ENDBRANCH  19  22
ENDBRANCH  15  19
BRANCH  16  24
HETATM   24  O   UNL     1      -7.219   8.672  69.287  1.00  0.00    -0.061 OA 
HETATM   25  C   UNL     1      -5.844   8.905  69.005  1.00  0.00    -0.040 C  
ENDBRANCH  16  24
ENDBRANCH  10  13
ENDBRANCH   8   9
ENDBRANCH   7   8
ENDBRANCH   2   3
TORSDOF 7
ENDMDL
MODEL      233
REMARK 921   NORMALIZED FREE ENERGY PREDICTED BY IDOCK:   -3.38 KCAL/MOL
REMARK 922        TOTAL FREE ENERGY PREDICTED BY IDOCK:   -5.63 KCAL/MOL
REMARK 923 INTER-LIGAND FREE ENERGY PREDICTED BY IDOCK:   -4.44 KCAL/MOL
REMARK 924 INTRA-LIGAND FREE ENERGY PREDICTED BY IDOCK:   -1.18 KCAL/MOL
REMARK 927      BINDING AFFINITY PREDICTED BY RF-SCORE:    0.00 PKD
ROOT
HETATM    1  C   UNL     1      -8.379   7.713  66.458  1.00  0.00    -0.129 C  
HETATM    2  C   UNL     1      -9.363   6.552  66.374  1.00  0.00    -0.143 C  
ENDROOT
BRANCH   2   3
HETATM    3  N   UNL     1      -8.700   5.275  66.083  1.00  0.00    -0.125 NA 
HETATM    4  C   UNL     1      -8.337   5.132  64.671  1.00  0.00    -0.140 C  
HETATM    5  C   UNL     1      -7.339   3.996  64.704  1.00  0.00    -0.071 C  
HETATM    6  C   UNL     1      -6.528   4.274  65.957  1.00  0.00    -0.040 C  
HETATM    7  C   UNL     1      -7.453   5.100  66.868  1.00  0.00    -0.087 C  
BRANCH   7   8
HETATM    8  C   UNL     1      -7.736   4.389  68.210  1.00  0.00    -0.075 C  
BRANCH   8   9
HETATM    9  N   UNL     1      -8.147   5.288  69.284  1.00  0.00    -0.091 N  
HETATM   10  C   UNL     1      -9.454   5.351  69.732  1.00  0.00    -0.151 C  
HETATM   11  H   UNL     1      -7.446   5.889  69.719  1.00  0.00     0.000 HD 
HETATM   12  O   UNL     1     -10.350   4.668  69.253  1.00  0.00    -0.102 OA 
BRANCH  10  13
HETATM   13  C   UNL     1      -9.733   6.342  70.816  1.00  0.00    -0.202 A  
HETATM   14  C   UNL     1     -11.013   6.938  70.832  1.00  0.00    -0.290 A  
HETATM   15  C   UNL     1     -11.394   7.781  71.884  1.00  0.00    -0.270 A  
HETATM   16  C   UNL     1      -8.844   6.614  71.872  1.00  0.00    -0.132 A  
HETATM   17  C   UNL     1     -10.520   8.046  72.931  1.00  0.00    -0.402 A  
HETATM   18  C   UNL     1      -9.258   7.452  72.925  1.00  0.00    -0.198 A  
BRANCH  15  19
HETATM   19  S   UNL     1     -12.978   8.592  71.825  1.00  0.00    -0.376 S  
HETATM   20  O   UNL     1     -13.266   9.039  73.173  1.00  0.00    -0.200 OA 
HETATM   21  O   UNL     1     -13.885   7.699  71.130  1.00  0.00    -0.264 OA 
BRANCH  19  22
HETATM   22  C   UNL     1     -12.702  10.026  70.804  1.00  0.00    -0.273 C  
HETATM   23  C   UNL     1     -12.921  11.308  71.589  1.00  0.00    -0.537 C  
ENDBRANCH  19  22
ENDBRANCH  15  19
BRANCH  16  24
HETATM   24  O   UNL     1      -7.593   6.098  72.077  1.00  0.00    -0.094 OA 
HETATM   25  C   UNL     1      -6.513   7.023  72.138  1.00  0.00    -0.052 C  
ENDBRANCH  16  24
ENDBRANCH  10  13
ENDBRANCH   8   9
ENDBRANCH   7   8
ENDBRANCH   2   3
TORSDOF 7
ENDMDL
MODEL      234
REMARK 921   NORMALIZED FREE ENERGY PREDICTED BY IDOCK:   -3.37 KCAL/MOL
REMARK 922        TOTAL FREE ENERGY PREDICTED BY IDOCK:   -5.62 KCAL/MOL
REMARK 923 INTER-LIGAND FREE ENERGY PREDICTED BY IDOCK:   -4.69 KCAL/MOL
REMARK 924 INTRA-LIGAND FREE ENERGY PREDICTED BY IDOCK:   -0.93 KCAL/MOL
REMARK 927      BINDING AFFINITY PREDICTED BY RF-SCORE:    0.00 PKD
ROOT
HETATM    1  C   UNL     1     -12.896   8.002  71.690  1.00  0.00    -0.350 C  
HETATM    2  C   UNL     1     -12.021   9.002  70.942  1.00  0.00    -0.225 C  
ENDROOT
BRANCH   2   3
HETATM    3  N   UNL     1     -12.668  10.312  70.794  1.00  0.00    -0.348 NA 
HETATM    4  C   UNL     1     -13.176  10.840  72.063  1.00  0.00    -0.361 C  
HETATM    5  C   UNL     1     -13.395  12.302  71.744  1.00  0.00    -0.353 C  
HETATM    6  C   UNL     1     -12.197  12.659  70.881  1.00  0.00    -0.280 C  
HETATM    7  C   UNL     1     -11.745  11.334  70.242  1.00  0.00    -0.324 C  
BRANCH   7   8
HETATM    8  C   UNL     1     -11.820  11.374  68.699  1.00  0.00    -0.310 C  
BRANCH   8   9
HETATM    9  N   UNL     1     -10.591  10.960  68.033  1.00  0.00    -0.188 N  
HETATM   10  C   UNL     1      -9.601  11.862  67.685  1.00  0.00    -0.185 C  
HETATM   11  H   UNL     1     -10.456   9.972  67.816  1.00  0.00     0.000 HD 
HETATM   12  O   UNL     1      -9.695  13.062  67.905  1.00  0.00    -0.205 OA 
BRANCH  10  13
HETATM   13  C   UNL     1      -8.411  11.297  66.978  1.00  0.00    -0.150 A  
HETATM   14  C   UNL     1      -8.577  10.932  65.625  1.00  0.00    -0.163 A  
HETATM   15  C   UNL     1      -7.482  10.512  64.859  1.00  0.00     0.006 A  
HETATM   16  C   UNL     1      -7.126  11.225  67.548  1.00  0.00    -0.099 A  
HETATM   17  C   UNL     1      -6.212  10.446  65.418  1.00  0.00    -0.127 A  
HETATM   18  C   UNL     1      -6.040  10.814  66.753  1.00  0.00    -0.082 A  
BRANCH  15  19
HETATM   19  S   UNL     1      -7.743   9.967  63.184  1.00  0.00    -0.147 S  
HETATM   20  O   UNL     1      -6.910  10.803  62.342  1.00  0.00    -0.132 OA 
HETATM   21  O   UNL     1      -9.177   9.904  62.979  1.00  0.00    -0.266 OA 
BRANCH  19  22
HETATM   22  C   UNL     1      -7.092   8.309  63.152  1.00  0.00    -0.091 C  
HETATM   23  C   UNL     1      -7.900   7.386  64.047  1.00  0.00    -0.120 C  
ENDBRANCH  19  22
ENDBRANCH  15  19
BRANCH  16  24
HETATM   24  O   UNL     1      -6.741  11.584  68.811  1.00  0.00    -0.066 OA 
HETATM   25  C   UNL     1      -6.773  10.572  69.811  1.00  0.00    -0.126 C  
ENDBRANCH  16  24
ENDBRANCH  10  13
ENDBRANCH   8   9
ENDBRANCH   7   8
ENDBRANCH   2   3
TORSDOF 7
ENDMDL
MODEL      235
REMARK 921   NORMALIZED FREE ENERGY PREDICTED BY IDOCK:   -3.37 KCAL/MOL
REMARK 922        TOTAL FREE ENERGY PREDICTED BY IDOCK:   -5.61 KCAL/MOL
REMARK 923 INTER-LIGAND FREE ENERGY PREDICTED BY IDOCK:   -4.60 KCAL/MOL
REMARK 924 INTRA-LIGAND FREE ENERGY PREDICTED BY IDOCK:   -1.01 KCAL/MOL
REMARK 927      BINDING AFFINITY PREDICTED BY RF-SCORE:    0.00 PKD
ROOT
HETATM    1  C   UNL     1      -5.368  18.927  71.576  1.00  0.00    -0.284 C  
HETATM    2  C   UNL     1      -6.514  19.552  70.787  1.00  0.00     0.195 C  
ENDROOT
BRANCH   2   3
HETATM    3  N   UNL     1      -6.491  19.170  69.369  1.00  0.00    -0.298 NA 
HETATM    4  C   UNL     1      -5.175  19.356  68.753  1.00  0.00    -0.190 C  
HETATM    5  C   UNL     1      -5.289  18.534  67.488  1.00  0.00    -0.150 C  
HETATM    6  C   UNL     1      -6.058  17.302  67.935  1.00  0.00    -0.148 C  
HETATM    7  C   UNL     1      -6.866  17.749  69.166  1.00  0.00    -0.227 C  
BRANCH   7   8
HETATM    8  C   UNL     1      -8.388  17.602  68.949  1.00  0.00    -0.139 C  
BRANCH   8   9
HETATM    9  N   UNL     1      -8.757  16.524  68.037  1.00  0.00    -0.186 N  
HETATM   10  C   UNL     1      -9.003  15.237  68.479  1.00  0.00    -0.187 C  
HETATM   11  H   UNL     1      -8.837  16.727  67.040  1.00  0.00     0.000 HD 
HETATM   12  O   UNL     1      -8.918  14.916  69.657  1.00  0.00    -0.051 OA 
BRANCH  10  13
HETATM   13  C   UNL     1      -9.340  14.230  67.427  1.00  0.00    -0.203 A  
HETATM   14  C   UNL     1      -9.135  12.870  67.744  1.00  0.00    -0.197 A  
HETATM   15  C   UNL     1      -9.540  11.862  66.861  1.00  0.00    -0.200 A  
HETATM   16  C   UNL     1      -9.954  14.556  66.203  1.00  0.00    -0.311 A  
HETATM   17  C   UNL     1     -10.151  12.181  65.655  1.00  0.00    -0.274 A  
HETATM   18  C   UNL     1     -10.365  13.523  65.340  1.00  0.00    -0.329 A  
BRANCH  15  19
HETATM   19  S   UNL     1      -9.179  10.162  67.249  1.00  0.00    -0.138 S  
HETATM   20  O   UNL     1     -10.251   9.369  66.679  1.00  0.00    -0.252 OA 
HETATM   21  O   UNL     1      -8.889  10.104  68.668  1.00  0.00    -0.125 OA 
BRANCH  19  22
HETATM   22  C   UNL     1      -7.681   9.811  66.350  1.00  0.00    -0.102 C  
HETATM   23  C   UNL     1      -6.683  10.949  66.484  1.00  0.00    -0.133 C  
ENDBRANCH  19  22
ENDBRANCH  15  19
BRANCH  16  24
HETATM   24  O   UNL     1     -10.294  15.796  65.733  1.00  0.00    -0.322 OA 
HETATM   25  C   UNL     1     -11.210  15.846  64.645  1.00  0.00    -0.351 C  
ENDBRANCH  16  24
ENDBRANCH  10  13
ENDBRANCH   8   9
ENDBRANCH   7   8
ENDBRANCH   2   3
TORSDOF 7
ENDMDL
MODEL      236
REMARK 921   NORMALIZED FREE ENERGY PREDICTED BY IDOCK:   -3.35 KCAL/MOL
REMARK 922        TOTAL FREE ENERGY PREDICTED BY IDOCK:   -5.58 KCAL/MOL
REMARK 923 INTER-LIGAND FREE ENERGY PREDICTED BY IDOCK:   -4.67 KCAL/MOL
REMARK 924 INTRA-LIGAND FREE ENERGY PREDICTED BY IDOCK:   -0.91 KCAL/MOL
REMARK 927      BINDING AFFINITY PREDICTED BY RF-SCORE:    0.00 PKD
ROOT
HETATM    1  C   UNL     1     -10.165   6.360  67.610  1.00  0.00    -0.206 C  
HETATM    2  C   UNL     1     -10.306   7.844  67.929  1.00  0.00    -0.221 C  
ENDROOT
BRANCH   2   3
HETATM    3  N   UNL     1      -9.017   8.478  68.230  1.00  0.00    -0.139 NA 
HETATM    4  C   UNL     1      -8.443   8.022  69.499  1.00  0.00    -0.131 C  
HETATM    5  C   UNL     1      -7.000   8.462  69.381  1.00  0.00    -0.050 C  
HETATM    6  C   UNL     1      -6.660   8.175  67.929  1.00  0.00    -0.061 C  
HETATM    7  C   UNL     1      -8.003   8.213  67.179  1.00  0.00    -0.105 C  
BRANCH   7   8
HETATM    8  C   UNL     1      -8.032   9.310  66.091  1.00  0.00    -0.107 C  
BRANCH   8   9
HETATM    9  N   UNL     1      -8.408  10.629  66.586  1.00  0.00    -0.131 N  
HETATM   10  C   UNL     1      -7.471  11.612  66.850  1.00  0.00    -0.131 C  
HETATM   11  H   UNL     1      -9.396  10.834  66.742  1.00  0.00     0.000 HD 
HETATM   12  O   UNL     1      -6.270  11.437  66.695  1.00  0.00    -0.135 OA 
BRANCH  10  13
HETATM   13  C   UNL     1      -8.001  12.903  67.383  1.00  0.00    -0.178 A  
HETATM   14  C   UNL     1      -9.381  12.963  67.678  1.00  0.00    -0.195 A  
HETATM   15  C   UNL     1      -9.930  14.094  68.295  1.00  0.00    -0.241 A  
HETATM   16  C   UNL     1      -7.188  14.004  67.714  1.00  0.00    -0.165 A  
HETATM   17  C   UNL     1      -9.129  15.179  68.628  1.00  0.00    -0.195 A  
HETATM   18  C   UNL     1      -7.763  15.122  68.347  1.00  0.00    -0.118 A  
BRANCH  15  19
HETATM   19  S   UNL     1     -11.688  14.175  68.566  1.00  0.00    -0.356 S  
HETATM   20  O   UNL     1     -12.312  13.490  67.451  1.00  0.00    -0.278 OA 
HETATM   21  O   UNL     1     -12.008  15.559  68.857  1.00  0.00    -0.351 OA 
BRANCH  19  22
HETATM   22  C   UNL     1     -11.954  13.211  70.040  1.00  0.00    -0.321 C  
HETATM   23  C   UNL     1     -11.914  11.723  69.736  1.00  0.00    -0.392 C  
ENDBRANCH  19  22
ENDBRANCH  15  19
BRANCH  16  24
HETATM   24  O   UNL     1      -5.833  14.126  67.569  1.00  0.00    -0.343 OA 
HETATM   25  C   UNL     1      -5.241  15.341  68.014  1.00  0.00    -0.123 C  
ENDBRANCH  16  24
ENDBRANCH  10  13
ENDBRANCH   8   9
ENDBRANCH   7   8
ENDBRANCH   2   3
TORSDOF 7
ENDMDL
MODEL      237
REMARK 921   NORMALIZED FREE ENERGY PREDICTED BY IDOCK:   -3.33 KCAL/MOL
REMARK 922        TOTAL FREE ENERGY PREDICTED BY IDOCK:   -5.56 KCAL/MOL
REMARK 923 INTER-LIGAND FREE ENERGY PREDICTED BY IDOCK:   -4.27 KCAL/MOL
REMARK 924 INTRA-LIGAND FREE ENERGY PREDICTED BY IDOCK:   -1.29 KCAL/MOL
REMARK 927      BINDING AFFINITY PREDICTED BY RF-SCORE:    0.00 PKD
ROOT
HETATM    1  C   UNL     1      -9.984   9.253  66.178  1.00  0.00    -0.348 C  
HETATM    2  C   UNL     1      -9.210  10.493  65.745  1.00  0.00    -0.182 C  
ENDROOT
BRANCH   2   3
HETATM    3  N   UNL     1      -7.943  10.645  66.470  1.00  0.00    -0.132 NA 
HETATM    4  C   UNL     1      -6.772  10.407  65.622  1.00  0.00    -0.127 C  
HETATM    5  C   UNL     1      -5.651  11.014  66.437  1.00  0.00    -0.127 C  
HETATM    6  C   UNL     1      -6.273  12.275  67.011  1.00  0.00    -0.052 C  
HETATM    7  C   UNL     1      -7.788  12.003  67.048  1.00  0.00    -0.138 C  
BRANCH   7   8
HETATM    8  C   UNL     1      -8.356  12.064  68.483  1.00  0.00    -0.104 C  
BRANCH   8   9
HETATM    9  N   UNL     1      -8.077  10.878  69.285  1.00  0.00    -0.338 N  
HETATM   10  C   UNL     1      -9.083  10.056  69.760  1.00  0.00    -0.193 C  
HETATM   11  H   UNL     1      -7.107  10.646  69.501  1.00  0.00     0.000 HD 
HETATM   12  O   UNL     1     -10.268  10.274  69.549  1.00  0.00    -0.216 OA 
BRANCH  10  13
HETATM   13  C   UNL     1      -8.648   8.895  70.594  1.00  0.00    -0.224 A  
HETATM   14  C   UNL     1      -9.416   7.713  70.507  1.00  0.00    -0.164 A  
HETATM   15  C   UNL     1      -9.004   6.545  71.160  1.00  0.00    -0.145 A  
HETATM   16  C   UNL     1      -7.464   8.880  71.355  1.00  0.00    -0.079 A  
HETATM   17  C   UNL     1      -7.833   6.527  71.907  1.00  0.00    -0.103 A  
HETATM   18  C   UNL     1      -7.065   7.689  71.989  1.00  0.00    -0.065 A  
BRANCH  15  19
HETATM   19  S   UNL     1     -10.045   5.101  71.108  1.00  0.00    -0.224 S  
HETATM   20  O   UNL     1      -9.207   3.972  71.463  1.00  0.00    -0.114 OA 
HETATM   21  O   UNL     1     -10.748   5.132  69.841  1.00  0.00    -0.237 OA 
BRANCH  19  22
HETATM   22  C   UNL     1     -11.225   5.359  72.418  1.00  0.00    -0.210 C  
HETATM   23  C   UNL     1     -11.113   4.277  73.478  1.00  0.00    -0.377 C  
ENDBRANCH  19  22
ENDBRANCH  15  19
BRANCH  16  24
HETATM   24  O   UNL     1      -6.554   9.889  71.521  1.00  0.00    -0.311 OA 
HETATM   25  C   UNL     1      -5.329   9.557  72.163  1.00  0.00    -0.065 C  
ENDBRANCH  16  24
ENDBRANCH  10  13
ENDBRANCH   8   9
ENDBRANCH   7   8
ENDBRANCH   2   3
TORSDOF 7
ENDMDL
MODEL      238
REMARK 921   NORMALIZED FREE ENERGY PREDICTED BY IDOCK:   -3.33 KCAL/MOL
REMARK 922        TOTAL FREE ENERGY PREDICTED BY IDOCK:   -5.56 KCAL/MOL
REMARK 923 INTER-LIGAND FREE ENERGY PREDICTED BY IDOCK:   -4.76 KCAL/MOL
REMARK 924 INTRA-LIGAND FREE ENERGY PREDICTED BY IDOCK:   -0.80 KCAL/MOL
REMARK 927      BINDING AFFINITY PREDICTED BY RF-SCORE:    0.00 PKD
ROOT
HETATM    1  C   UNL     1      -7.713  11.411  66.897  1.00  0.00    -0.155 C  
HETATM    2  C   UNL     1      -6.889  10.462  66.033  1.00  0.00    -0.128 C  
ENDROOT
BRANCH   2   3
HETATM    3  N   UNL     1      -7.638   9.970  64.871  1.00  0.00    -0.136 NA 
HETATM    4  C   UNL     1      -6.868  10.045  63.626  1.00  0.00    -0.130 C  
HETATM    5  C   UNL     1      -7.647   9.131  62.706  1.00  0.00    -0.107 C  
HETATM    6  C   UNL     1      -8.045   7.976  63.608  1.00  0.00    -0.099 C  
HETATM    7  C   UNL     1      -8.058   8.556  65.033  1.00  0.00    -0.148 C  
BRANCH   7   8
HETATM    8  C   UNL     1      -9.454   8.463  65.688  1.00  0.00     0.085 C  
BRANCH   8   9
HETATM    9  N   UNL     1      -9.442   7.906  67.036  1.00  0.00    -0.163 N  
HETATM   10  C   UNL     1     -10.285   6.877  67.416  1.00  0.00    -0.203 C  
HETATM   11  H   UNL     1      -8.791   8.288  67.722  1.00  0.00     0.000 HD 
HETATM   12  O   UNL     1     -11.098   6.374  66.652  1.00  0.00    -0.292 OA 
BRANCH  10  13
HETATM   13  C   UNL     1     -10.183   6.430  68.839  1.00  0.00    -0.215 A  
HETATM   14  C   UNL     1     -10.485   7.382  69.837  1.00  0.00    -0.238 A  
HETATM   15  C   UNL     1     -10.533   7.009  71.186  1.00  0.00    -0.211 A  
HETATM   16  C   UNL     1      -9.925   5.101  69.223  1.00  0.00    -0.210 A  
HETATM   17  C   UNL     1     -10.284   5.697  71.568  1.00  0.00    -0.263 A  
HETATM   18  C   UNL     1      -9.995   4.750  70.585  1.00  0.00    -0.300 A  
BRANCH  15  19
HETATM   19  S   UNL     1     -10.821   8.253  72.428  1.00  0.00    -0.341 S  
HETATM   20  O   UNL     1      -9.528   8.817  72.759  1.00  0.00    -0.236 OA 
HETATM   21  O   UNL     1     -11.649   7.646  73.451  1.00  0.00    -0.147 OA 
BRANCH  19  22
HETATM   22  C   UNL     1     -11.780   9.500  71.590  1.00  0.00    -0.390 C  
HETATM   23  C   UNL     1     -13.258   9.363  71.913  1.00  0.00    -0.507 C  
ENDBRANCH  19  22
ENDBRANCH  15  19
BRANCH  16  24
HETATM   24  O   UNL     1      -9.673   4.023  68.419  1.00  0.00    -0.143 OA 
HETATM   25  C   UNL     1      -8.337   3.534  68.391  1.00  0.00    -0.082 C  
ENDBRANCH  16  24
ENDBRANCH  10  13
ENDBRANCH   8   9
ENDBRANCH   7   8
ENDBRANCH   2   3
TORSDOF 7
ENDMDL
MODEL      239
REMARK 921   NORMALIZED FREE ENERGY PREDICTED BY IDOCK:   -3.33 KCAL/MOL
REMARK 922        TOTAL FREE ENERGY PREDICTED BY IDOCK:   -5.55 KCAL/MOL
REMARK 923 INTER-LIGAND FREE ENERGY PREDICTED BY IDOCK:   -4.69 KCAL/MOL
REMARK 924 INTRA-LIGAND FREE ENERGY PREDICTED BY IDOCK:   -0.86 KCAL/MOL
REMARK 927      BINDING AFFINITY PREDICTED BY RF-SCORE:    0.00 PKD
ROOT
HETATM    1  C   UNL     1      -8.978   4.923  63.697  1.00  0.00    -0.024 C  
HETATM    2  C   UNL     1      -8.538   5.051  65.151  1.00  0.00    -0.148 C  
ENDROOT
BRANCH   2   3
HETATM    3  N   UNL     1      -9.389   5.971  65.916  1.00  0.00    -0.082 NA 
HETATM    4  C   UNL     1      -9.958   5.352  67.116  1.00  0.00    -0.174 C  
HETATM    5  C   UNL     1     -10.414   6.552  67.916  1.00  0.00    -0.273 C  
HETATM    6  C   UNL     1      -9.300   7.563  67.703  1.00  0.00    -0.151 C  
HETATM    7  C   UNL     1      -8.650   7.177  66.363  1.00  0.00    -0.134 C  
BRANCH   7   8
HETATM    8  C   UNL     1      -8.752   8.310  65.317  1.00  0.00    -0.086 C  
BRANCH   8   9
HETATM    9  N   UNL     1      -9.685   9.371  65.679  1.00  0.00    -0.356 N  
HETATM   10  C   UNL     1      -9.706  10.589  65.023  1.00  0.00    -0.292 C  
HETATM   11  H   UNL     1     -10.345   9.209  66.440  1.00  0.00     0.000 HD 
HETATM   12  O   UNL     1      -8.941  10.859  64.107  1.00  0.00    -0.174 OA 
BRANCH  10  13
HETATM   13  C   UNL     1     -10.696  11.591  65.524  1.00  0.00    -0.328 A  
HETATM   14  C   UNL     1     -10.613  11.956  66.885  1.00  0.00    -0.264 A  
HETATM   15  C   UNL     1     -11.421  12.977  67.401  1.00  0.00    -0.332 A  
HETATM   16  C   UNL     1     -11.610  12.268  64.694  1.00  0.00    -0.344 A  
HETATM   17  C   UNL     1     -12.320  13.650  66.583  1.00  0.00    -0.381 A  
HETATM   18  C   UNL     1     -12.399  13.301  65.234  1.00  0.00    -0.525 A  
BRANCH  15  19
HETATM   19  S   UNL     1     -11.361  13.345  69.142  1.00  0.00    -0.272 S  
HETATM   20  O   UNL     1     -12.611  14.000  69.472  1.00  0.00    -0.222 OA 
HETATM   21  O   UNL     1     -10.092  14.001  69.392  1.00  0.00     0.054 OA 
BRANCH  19  22
HETATM   22  C   UNL     1     -11.337  11.747  69.931  1.00  0.00    -0.121 C  
HETATM   23  C   UNL     1     -12.558  11.555  70.814  1.00  0.00    -0.390 C  
ENDBRANCH  19  22
ENDBRANCH  15  19
BRANCH  16  24
HETATM   24  O   UNL     1     -11.804  12.112  63.349  1.00  0.00    -0.463 OA 
HETATM   25  C   UNL     1     -13.132  11.843  62.913  1.00  0.00     0.790 C  
ENDBRANCH  16  24
ENDBRANCH  10  13
ENDBRANCH   8   9
ENDBRANCH   7   8
ENDBRANCH   2   3
TORSDOF 7
ENDMDL
MODEL      240
REMARK 921   NORMALIZED FREE ENERGY PREDICTED BY IDOCK:   -3.32 KCAL/MOL
REMARK 922        TOTAL FREE ENERGY PREDICTED BY IDOCK:   -5.55 KCAL/MOL
REMARK 923 INTER-LIGAND FREE ENERGY PREDICTED BY IDOCK:   -4.53 KCAL/MOL
REMARK 924 INTRA-LIGAND FREE ENERGY PREDICTED BY IDOCK:   -1.03 KCAL/MOL
REMARK 927      BINDING AFFINITY PREDICTED BY RF-SCORE:    0.00 PKD
ROOT
HETATM    1  C   UNL     1     -11.514  15.553  64.525  1.00  0.00    -0.311 C  
HETATM    2  C   UNL     1     -11.268  14.057  64.685  1.00  0.00    -0.374 C  
ENDROOT
BRANCH   2   3
HETATM    3  N   UNL     1     -10.937  13.688  66.067  1.00  0.00    -0.286 NA 
HETATM    4  C   UNL     1     -11.429  14.660  67.047  1.00  0.00    -0.368 C  
HETATM    5  C   UNL     1     -11.350  13.885  68.343  1.00  0.00    -0.316 C  
HETATM    6  C   UNL     1     -11.807  12.491  67.950  1.00  0.00    -0.383 C  
HETATM    7  C   UNL     1     -11.503  12.370  66.446  1.00  0.00    -0.373 C  
BRANCH   7   8
HETATM    8  C   UNL     1     -10.506  11.230  66.142  1.00  0.00    -0.254 C  
BRANCH   8   9
HETATM    9  N   UNL     1      -9.388  11.153  67.076  1.00  0.00    -0.168 N  
HETATM   10  C   UNL     1      -9.045   9.976  67.719  1.00  0.00    -0.131 C  
HETATM   11  H   UNL     1      -8.841  11.994  67.261  1.00  0.00     0.000 HD 
HETATM   12  O   UNL     1      -9.659   8.931  67.555  1.00  0.00    -0.138 OA 
BRANCH  10  13
HETATM   13  C   UNL     1      -7.896  10.056  68.672  1.00  0.00    -0.091 A  
HETATM   14  C   UNL     1      -7.981   9.285  69.852  1.00  0.00    -0.113 A  
HETATM   15  C   UNL     1      -6.896   9.209  70.734  1.00  0.00    -0.087 A  
HETATM   16  C   UNL     1      -6.703  10.752  68.401  1.00  0.00    -0.059 A  
HETATM   17  C   UNL     1      -5.716   9.891  70.465  1.00  0.00    -0.062 A  
HETATM   18  C   UNL     1      -5.623  10.646  69.296  1.00  0.00    -0.037 A  
BRANCH  15  19
HETATM   19  S   UNL     1      -7.071   8.307  72.260  1.00  0.00    -0.091 S  
HETATM   20  O   UNL     1      -8.267   8.810  72.905  1.00  0.00    -0.410 OA 
HETATM   21  O   UNL     1      -5.788   8.361  72.932  1.00  0.00    -0.059 OA 
BRANCH  19  22
HETATM   22  C   UNL     1      -7.372   6.627  71.747  1.00  0.00    -0.086 C  
HETATM   23  C   UNL     1      -7.213   5.663  72.911  1.00  0.00    -0.091 C  
ENDBRANCH  19  22
ENDBRANCH  15  19
BRANCH  16  24
HETATM   24  O   UNL     1      -6.395  11.501  67.297  1.00  0.00    -0.082 OA 
HETATM   25  C   UNL     1      -6.342  12.913  67.467  1.00  0.00    -0.158 C  
ENDBRANCH  16  24
ENDBRANCH  10  13
ENDBRANCH   8   9
ENDBRANCH   7   8
ENDBRANCH   2   3
TORSDOF 7
ENDMDL
MODEL      241
REMARK 921   NORMALIZED FREE ENERGY PREDICTED BY IDOCK:   -3.32 KCAL/MOL
REMARK 922        TOTAL FREE ENERGY PREDICTED BY IDOCK:   -5.55 KCAL/MOL
REMARK 923 INTER-LIGAND FREE ENERGY PREDICTED BY IDOCK:   -4.80 KCAL/MOL
REMARK 924 INTRA-LIGAND FREE ENERGY PREDICTED BY IDOCK:   -0.74 KCAL/MOL
REMARK 927      BINDING AFFINITY PREDICTED BY RF-SCORE:    0.00 PKD
ROOT
HETATM    1  C   UNL     1     -11.217  10.760  67.381  1.00  0.00    -0.315 C  
HETATM    2  C   UNL     1     -10.129  10.398  66.375  1.00  0.00    -0.228 C  
ENDROOT
BRANCH   2   3
HETATM    3  N   UNL     1      -8.921   9.871  67.022  1.00  0.00    -0.138 NA 
HETATM    4  C   UNL     1      -8.215   8.891  66.192  1.00  0.00    -0.116 C  
HETATM    5  C   UNL     1      -6.855   8.825  66.851  1.00  0.00    -0.070 C  
HETATM    6  C   UNL     1      -6.567  10.271  67.215  1.00  0.00    -0.068 C  
HETATM    7  C   UNL     1      -7.946  10.941  67.347  1.00  0.00    -0.113 C  
BRANCH   7   8
HETATM    8  C   UNL     1      -8.189  11.501  68.767  1.00  0.00    -0.082 C  
BRANCH   8   9
HETATM    9  N   UNL     1      -7.756  12.882  68.943  1.00  0.00    -0.320 N  
HETATM   10  C   UNL     1      -8.310  13.926  68.223  1.00  0.00    -0.163 C  
HETATM   11  H   UNL     1      -7.021  13.086  69.621  1.00  0.00     0.000 HD 
HETATM   12  O   UNL     1      -9.188  13.758  67.388  1.00  0.00    -0.203 OA 
BRANCH  10  13
HETATM   13  C   UNL     1      -7.744  15.284  68.487  1.00  0.00    -0.128 A  
HETATM   14  C   UNL     1      -8.128  16.325  67.615  1.00  0.00    -0.161 A  
HETATM   15  C   UNL     1      -7.741  17.647  67.866  1.00  0.00    -0.216 A  
HETATM   16  C   UNL     1      -6.958  15.597  69.612  1.00  0.00    -0.167 A  
HETATM   17  C   UNL     1      -6.970  17.959  68.979  1.00  0.00    -0.243 A  
HETATM   18  C   UNL     1      -6.595  16.936  69.850  1.00  0.00     0.105 A  
BRANCH  15  19
HETATM   19  S   UNL     1      -8.162  18.920  66.695  1.00  0.00    -0.295 S  
HETATM   20  O   UNL     1      -7.535  18.553  65.440  1.00  0.00    -0.484 OA 
HETATM   21  O   UNL     1      -7.866  20.191  67.327  1.00  0.00    -0.287 OA 
BRANCH  19  22
HETATM   22  C   UNL     1      -9.928  18.780  66.505  1.00  0.00    -0.380 C  
HETATM   23  C   UNL     1     -10.643  19.042  67.819  1.00  0.00    -0.488 C  
ENDBRANCH  19  22
ENDBRANCH  15  19
BRANCH  16  24
HETATM   24  O   UNL     1      -6.530  14.756  70.604  1.00  0.00    -0.123 OA 
HETATM   25  C   UNL     1      -5.127  14.552  70.720  1.00  0.00    -0.118 C  
ENDBRANCH  16  24
ENDBRANCH  10  13
ENDBRANCH   8   9
ENDBRANCH   7   8
ENDBRANCH   2   3
TORSDOF 7
ENDMDL
MODEL      242
REMARK 921   NORMALIZED FREE ENERGY PREDICTED BY IDOCK:   -3.31 KCAL/MOL
REMARK 922        TOTAL FREE ENERGY PREDICTED BY IDOCK:   -5.53 KCAL/MOL
REMARK 923 INTER-LIGAND FREE ENERGY PREDICTED BY IDOCK:   -4.57 KCAL/MOL
REMARK 924 INTRA-LIGAND FREE ENERGY PREDICTED BY IDOCK:   -0.96 KCAL/MOL
REMARK 927      BINDING AFFINITY PREDICTED BY RF-SCORE:    0.00 PKD
ROOT
HETATM    1  C   UNL     1     -11.182  10.532  67.281  1.00  0.00    -0.202 C  
HETATM    2  C   UNL     1     -10.024   9.989  66.452  1.00  0.00    -0.237 C  
ENDROOT
BRANCH   2   3
HETATM    3  N   UNL     1      -8.959   9.415  67.284  1.00  0.00    -0.130 NA 
HETATM    4  C   UNL     1      -8.524   8.095  66.818  1.00  0.00    -0.123 C  
HETATM    5  C   UNL     1      -7.202   7.918  67.532  1.00  0.00    -0.088 C  
HETATM    6  C   UNL     1      -6.573   9.298  67.463  1.00  0.00    -0.064 C  
HETATM    7  C   UNL     1      -7.752  10.278  67.323  1.00  0.00    -0.095 C  
BRANCH   7   8
HETATM    8  C   UNL     1      -7.823  11.278  68.498  1.00  0.00    -0.138 C  
BRANCH   8   9
HETATM    9  N   UNL     1      -8.301  12.604  68.123  1.00  0.00    -0.169 N  
HETATM   10  C   UNL     1      -7.525  13.739  68.282  1.00  0.00    -0.120 C  
HETATM   11  H   UNL     1      -9.237  12.697  67.730  1.00  0.00     0.000 HD 
HETATM   12  O   UNL     1      -6.397  13.706  68.754  1.00  0.00    -0.082 OA 
BRANCH  10  13
HETATM   13  C   UNL     1      -8.159  15.032  67.884  1.00  0.00    -0.142 A  
HETATM   14  C   UNL     1      -7.313  16.029  67.350  1.00  0.00    -0.216 A  
HETATM   15  C   UNL     1      -7.846  17.219  66.840  1.00  0.00    -0.218 A  
HETATM   16  C   UNL     1      -9.548  15.258  67.899  1.00  0.00    -0.199 A  
HETATM   17  C   UNL     1      -9.217  17.442  66.849  1.00  0.00    -0.266 A  
HETATM   18  C   UNL     1     -10.059  16.457  67.366  1.00  0.00    -0.262 A  
BRANCH  15  19
HETATM   19  S   UNL     1      -6.745  18.495  66.264  1.00  0.00    -0.242 S  
HETATM   20  O   UNL     1      -6.322  18.108  64.933  1.00  0.00    -0.256 OA 
HETATM   21  O   UNL     1      -5.771  18.718  67.314  1.00  0.00    -0.152 OA 
BRANCH  19  22
HETATM   22  C   UNL     1      -7.776  19.942  66.130  1.00  0.00    -0.325 C  
HETATM   23  C   UNL     1      -7.400  20.981  67.172  1.00  0.00    -0.304 C  
ENDBRANCH  19  22
ENDBRANCH  15  19
BRANCH  16  24
HETATM   24  O   UNL     1     -10.537  14.408  68.313  1.00  0.00    -0.234 OA 
HETATM   25  C   UNL     1     -11.559  14.956  69.138  1.00  0.00    -0.307 C  
ENDBRANCH  16  24
ENDBRANCH  10  13
ENDBRANCH   8   9
ENDBRANCH   7   8
ENDBRANCH   2   3
TORSDOF 7
ENDMDL
MODEL      243
REMARK 921   NORMALIZED FREE ENERGY PREDICTED BY IDOCK:   -3.28 KCAL/MOL
REMARK 922        TOTAL FREE ENERGY PREDICTED BY IDOCK:   -5.50 KCAL/MOL
REMARK 923 INTER-LIGAND FREE ENERGY PREDICTED BY IDOCK:   -4.82 KCAL/MOL
REMARK 924 INTRA-LIGAND FREE ENERGY PREDICTED BY IDOCK:   -0.68 KCAL/MOL
REMARK 927      BINDING AFFINITY PREDICTED BY RF-SCORE:    0.00 PKD
ROOT
HETATM    1  C   UNL     1     -12.853   7.256  71.565  1.00  0.00    -0.430 C  
HETATM    2  C   UNL     1     -11.662   6.475  72.110  1.00  0.00    -0.311 C  
ENDROOT
BRANCH   2   3
HETATM    3  N   UNL     1     -10.518   6.485  71.191  1.00  0.00    -0.216 NA 
HETATM    4  C   UNL     1     -10.456   5.286  70.349  1.00  0.00    -0.251 C  
HETATM    5  C   UNL     1      -9.502   5.707  69.253  1.00  0.00    -0.167 C  
HETATM    6  C   UNL     1      -9.895   7.147  68.975  1.00  0.00    -0.156 C  
HETATM    7  C   UNL     1     -10.543   7.652  70.276  1.00  0.00    -0.230 C  
BRANCH   7   8
HETATM    8  C   UNL     1      -9.778   8.850  70.882  1.00  0.00    -0.239 C  
BRANCH   8   9
HETATM    9  N   UNL     1      -9.661   9.995  69.987  1.00  0.00    -0.378 N  
HETATM   10  C   UNL     1      -8.435  10.472  69.557  1.00  0.00    -0.044 C  
HETATM   11  H   UNL     1     -10.511  10.461  69.667  1.00  0.00     0.000 HD 
HETATM   12  O   UNL     1      -7.374   9.972  69.905  1.00  0.00    -0.125 OA 
BRANCH  10  13
HETATM   13  C   UNL     1      -8.469  11.672  68.668  1.00  0.00    -0.094 A  
HETATM   14  C   UNL     1      -9.631  12.474  68.707  1.00  0.00     0.079 A  
HETATM   15  C   UNL     1      -9.690  13.680  67.998  1.00  0.00    -0.226 A  
HETATM   16  C   UNL     1      -7.372  12.105  67.898  1.00  0.00    -0.108 A  
HETATM   17  C   UNL     1      -8.607  14.111  67.243  1.00  0.00    -0.231 A  
HETATM   18  C   UNL     1      -7.453  13.329  67.208  1.00  0.00    -0.069 A  
BRANCH  15  19
HETATM   19  S   UNL     1     -11.204  14.617  67.993  1.00  0.00    -0.307 S  
HETATM   20  O   UNL     1     -10.899  15.904  68.586  1.00  0.00    -0.259 OA 
HETATM   21  O   UNL     1     -12.231  13.765  68.560  1.00  0.00    -0.348 OA 
BRANCH  19  22
HETATM   22  C   UNL     1     -11.565  14.865  66.265  1.00  0.00    -0.233 C  
HETATM   23  C   UNL     1     -11.857  13.545  65.572  1.00  0.00    -0.388 C  
ENDBRANCH  19  22
ENDBRANCH  15  19
BRANCH  16  24
HETATM   24  O   UNL     1      -6.144  11.514  67.771  1.00  0.00    -0.047 OA 
HETATM   25  C   UNL     1      -5.136  12.255  67.093  1.00  0.00    -0.041 C  
ENDBRANCH  16  24
ENDBRANCH  10  13
ENDBRANCH   8   9
ENDBRANCH   7   8
ENDBRANCH   2   3
TORSDOF 7
ENDMDL
MODEL      244
REMARK 921   NORMALIZED FREE ENERGY PREDICTED BY IDOCK:   -3.28 KCAL/MOL
REMARK 922        TOTAL FREE ENERGY PREDICTED BY IDOCK:   -5.49 KCAL/MOL
REMARK 923 INTER-LIGAND FREE ENERGY PREDICTED BY IDOCK:   -4.41 KCAL/MOL
REMARK 924 INTRA-LIGAND FREE ENERGY PREDICTED BY IDOCK:   -1.08 KCAL/MOL
REMARK 927      BINDING AFFINITY PREDICTED BY RF-SCORE:    0.00 PKD
ROOT
HETATM    1  C   UNL     1     -11.096  10.962  67.163  1.00  0.00    -0.308 C  
HETATM    2  C   UNL     1     -10.099  10.334  66.195  1.00  0.00    -0.242 C  
ENDROOT
BRANCH   2   3
HETATM    3  N   UNL     1      -9.150   9.441  66.870  1.00  0.00    -0.133 NA 
HETATM    4  C   UNL     1      -8.731   8.317  66.028  1.00  0.00    -0.155 C  
HETATM    5  C   UNL     1      -7.496   7.816  66.744  1.00  0.00    -0.090 C  
HETATM    6  C   UNL     1      -6.801   9.092  67.187  1.00  0.00    -0.074 C  
HETATM    7  C   UNL     1      -7.915  10.149  67.288  1.00  0.00    -0.110 C  
BRANCH   7   8
HETATM    8  C   UNL     1      -8.055  10.713  68.720  1.00  0.00    -0.139 C  
BRANCH   8   9
HETATM    9  N   UNL     1      -8.932   9.930  69.583  1.00  0.00    -0.205 N  
HETATM   10  C   UNL     1      -8.441   9.001  70.484  1.00  0.00    -0.200 C  
HETATM   11  H   UNL     1      -9.940  10.071  69.521  1.00  0.00     0.000 HD 
HETATM   12  O   UNL     1      -7.246   8.770  70.608  1.00  0.00    -0.051 OA 
BRANCH  10  13
HETATM   13  C   UNL     1      -9.460   8.251  71.280  1.00  0.00    -0.219 A  
HETATM   14  C   UNL     1      -9.133   6.934  71.670  1.00  0.00    -0.139 A  
HETATM   15  C   UNL     1      -9.979   6.210  72.520  1.00  0.00    -0.172 A  
HETATM   16  C   UNL     1     -10.656   8.822  71.754  1.00  0.00    -0.347 A  
HETATM   17  C   UNL     1     -11.156   6.774  72.994  1.00  0.00    -0.252 A  
HETATM   18  C   UNL     1     -11.480   8.078  72.619  1.00  0.00    -0.465 A  
BRANCH  15  19
HETATM   19  S   UNL     1      -9.584   4.519  72.915  1.00  0.00    -0.134 S  
HETATM   20  O   UNL     1      -9.129   4.509  74.291  1.00  0.00    -0.107 OA 
HETATM   21  O   UNL     1      -8.734   4.024  71.850  1.00  0.00    -0.101 OA 
BRANCH  19  22
HETATM   22  C   UNL     1     -11.148   3.669  72.832  1.00  0.00     0.080 C  
HETATM   23  C   UNL     1     -11.151   2.439  73.723  1.00  0.00    -0.299 C  
ENDBRANCH  19  22
ENDBRANCH  15  19
BRANCH  16  24
HETATM   24  O   UNL     1     -11.126  10.090  71.546  1.00  0.00    -0.192 OA 
HETATM   25  C   UNL     1     -12.371  10.215  70.868  1.00  0.00    -0.363 C  
ENDBRANCH  16  24
ENDBRANCH  10  13
ENDBRANCH   8   9
ENDBRANCH   7   8
ENDBRANCH   2   3
TORSDOF 7
ENDMDL
MODEL      245
REMARK 921   NORMALIZED FREE ENERGY PREDICTED BY IDOCK:   -3.28 KCAL/MOL
REMARK 922        TOTAL FREE ENERGY PREDICTED BY IDOCK:   -5.49 KCAL/MOL
REMARK 923 INTER-LIGAND FREE ENERGY PREDICTED BY IDOCK:   -4.95 KCAL/MOL
REMARK 924 INTRA-LIGAND FREE ENERGY PREDICTED BY IDOCK:   -0.54 KCAL/MOL
REMARK 927      BINDING AFFINITY PREDICTED BY RF-SCORE:    0.00 PKD
ROOT
HETATM    1  C   UNL     1     -10.089   8.065  66.514  1.00  0.00    -0.270 C  
HETATM    2  C   UNL     1      -9.173   9.034  65.774  1.00  0.00    -0.232 C  
ENDROOT
BRANCH   2   3
HETATM    3  N   UNL     1      -9.698  10.405  65.765  1.00  0.00    -0.212 NA 
HETATM    4  C   UNL     1      -9.905  10.923  64.410  1.00  0.00    -0.309 C  
HETATM    5  C   UNL     1     -10.806  12.114  64.651  1.00  0.00    -0.351 C  
HETATM    6  C   UNL     1     -11.758  11.626  65.729  1.00  0.00     0.036 C  
HETATM    7  C   UNL     1     -10.998  10.512  66.471  1.00  0.00     0.016 C  
BRANCH   7   8
HETATM    8  C   UNL     1     -10.792  10.842  67.966  1.00  0.00    -0.245 C  
BRANCH   8   9
HETATM    9  N   UNL     1     -10.534  12.253  68.233  1.00  0.00    -0.220 N  
HETATM   10  C   UNL     1     -11.388  13.025  69.001  1.00  0.00    -0.289 C  
HETATM   11  H   UNL     1      -9.697  12.684  67.842  1.00  0.00     0.000 HD 
HETATM   12  O   UNL     1     -12.415  12.581  69.495  1.00  0.00    -0.006 OA 
BRANCH  10  13
HETATM   13  C   UNL     1     -11.012  14.462  69.163  1.00  0.00    -0.288 A  
HETATM   14  C   UNL     1      -9.975  14.956  68.341  1.00  0.00    -0.222 A  
HETATM   15  C   UNL     1      -9.648  16.317  68.344  1.00  0.00    -0.216 A  
HETATM   16  C   UNL     1     -11.708  15.363  69.991  1.00  0.00    -0.326 A  
HETATM   17  C   UNL     1     -10.337  17.209  69.156  1.00  0.00    -0.297 A  
HETATM   18  C   UNL     1     -11.369  16.729  69.963  1.00  0.00     0.278 A  
BRANCH  15  19
HETATM   19  S   UNL     1      -8.272  16.889  67.368  1.00  0.00    -0.186 S  
HETATM   20  O   UNL     1      -8.326  18.337  67.383  1.00  0.00    -0.240 OA 
HETATM   21  O   UNL     1      -8.310  16.159  66.116  1.00  0.00    -0.318 OA 
BRANCH  19  22
HETATM   22  C   UNL     1      -6.835  16.369  68.284  1.00  0.00    -0.133 C  
HETATM   23  C   UNL     1      -6.561  17.303  69.450  1.00  0.00    -0.218 C  
ENDBRANCH  19  22
ENDBRANCH  15  19
BRANCH  16  24
HETATM   24  O   UNL     1     -12.772  15.106  70.811  1.00  0.00    -0.350 OA 
HETATM   25  C   UNL     1     -12.514  15.048  72.209  1.00  0.00    -0.349 C  
ENDBRANCH  16  24
ENDBRANCH  10  13
ENDBRANCH   8   9
ENDBRANCH   7   8
ENDBRANCH   2   3
TORSDOF 7
ENDMDL
MODEL      246
REMARK 921   NORMALIZED FREE ENERGY PREDICTED BY IDOCK:   -3.24 KCAL/MOL
REMARK 922        TOTAL FREE ENERGY PREDICTED BY IDOCK:   -5.44 KCAL/MOL
REMARK 923 INTER-LIGAND FREE ENERGY PREDICTED BY IDOCK:   -4.51 KCAL/MOL
REMARK 924 INTRA-LIGAND FREE ENERGY PREDICTED BY IDOCK:   -0.92 KCAL/MOL
REMARK 927      BINDING AFFINITY PREDICTED BY RF-SCORE:    0.00 PKD
ROOT
HETATM    1  C   UNL     1      -9.634   8.963  65.939  1.00  0.00    -0.293 C  
HETATM    2  C   UNL     1     -10.410   8.172  66.987  1.00  0.00    -0.333 C  
ENDROOT
BRANCH   2   3
HETATM    3  N   UNL     1      -9.947   8.444  68.352  1.00  0.00    -0.181 NA 
HETATM    4  C   UNL     1      -9.254   7.302  68.955  1.00  0.00    -0.139 C  
HETATM    5  C   UNL     1      -8.534   7.937  70.124  1.00  0.00    -0.129 C  
HETATM    6  C   UNL     1      -8.049   9.263  69.563  1.00  0.00    -0.111 C  
HETATM    7  C   UNL     1      -9.010   9.594  68.408  1.00  0.00    -0.123 C  
BRANCH   7   8
HETATM    8  C   UNL     1      -9.770  10.918  68.642  1.00  0.00    -0.185 C  
BRANCH   8   9
HETATM    9  N   UNL     1      -8.905  12.057  68.929  1.00  0.00    -0.375 N  
HETATM   10  C   UNL     1      -8.620  13.023  67.980  1.00  0.00    -0.186 C  
HETATM   11  H   UNL     1      -8.497  12.145  69.860  1.00  0.00     0.000 HD 
HETATM   12  O   UNL     1      -9.065  12.980  66.840  1.00  0.00    -0.222 OA 
BRANCH  10  13
HETATM   13  C   UNL     1      -7.692  14.114  68.406  1.00  0.00    -0.140 A  
HETATM   14  C   UNL     1      -8.101  15.443  68.159  1.00  0.00    -0.136 A  
HETATM   15  C   UNL     1      -7.348  16.522  68.638  1.00  0.00    -0.194 A  
HETATM   16  C   UNL     1      -6.510  13.893  69.138  1.00  0.00    -0.111 A  
HETATM   17  C   UNL     1      -6.185  16.306  69.366  1.00  0.00    -0.177 A  
HETATM   18  C   UNL     1      -5.781  14.995  69.621  1.00  0.00    -0.105 A  
BRANCH  15  19
HETATM   19  S   UNL     1      -7.840  18.184  68.226  1.00  0.00    -0.301 S  
HETATM   20  O   UNL     1      -7.578  18.996  69.397  1.00  0.00    -0.169 OA 
HETATM   21  O   UNL     1      -9.174  18.102  67.664  1.00  0.00    -0.256 OA 
BRANCH  19  22
HETATM   22  C   UNL     1      -6.711  18.672  66.937  1.00  0.00    -0.190 C  
HETATM   23  C   UNL     1      -6.597  17.596  65.872  1.00  0.00    -0.239 C  
ENDBRANCH  19  22
ENDBRANCH  15  19
BRANCH  16  24
HETATM   24  O   UNL     1      -5.974  12.698  69.534  1.00  0.00    -0.095 OA 
HETATM   25  C   UNL     1      -5.659  12.555  70.914  1.00  0.00    -0.124 C  
ENDBRANCH  16  24
ENDBRANCH  10  13
ENDBRANCH   8   9
ENDBRANCH   7   8
ENDBRANCH   2   3
TORSDOF 7
ENDMDL
MODEL      247
REMARK 921   NORMALIZED FREE ENERGY PREDICTED BY IDOCK:   -3.21 KCAL/MOL
REMARK 922        TOTAL FREE ENERGY PREDICTED BY IDOCK:   -5.39 KCAL/MOL
REMARK 923 INTER-LIGAND FREE ENERGY PREDICTED BY IDOCK:   -4.21 KCAL/MOL
REMARK 924 INTRA-LIGAND FREE ENERGY PREDICTED BY IDOCK:   -1.18 KCAL/MOL
REMARK 927      BINDING AFFINITY PREDICTED BY RF-SCORE:    0.00 PKD
ROOT
HETATM    1  C   UNL     1     -12.582  12.657  63.416  1.00  0.00    -0.369 C  
HETATM    2  C   UNL     1     -11.168  12.104  63.280  1.00  0.00    -0.328 C  
ENDROOT
BRANCH   2   3
HETATM    3  N   UNL     1     -10.302  12.498  64.397  1.00  0.00    -0.344 NA 
HETATM    4  C   UNL     1     -10.379  13.930  64.698  1.00  0.00    -0.339 C  
HETATM    5  C   UNL     1      -9.769  14.006  66.080  1.00  0.00    -0.280 C  
HETATM    6  C   UNL     1     -10.315  12.772  66.776  1.00  0.00    -0.248 C  
HETATM    7  C   UNL     1     -10.639  11.776  65.649  1.00  0.00    -0.268 C  
BRANCH   7   8
HETATM    8  C   UNL     1      -9.824  10.469  65.773  1.00  0.00    -0.237 C  
BRANCH   8   9
HETATM    9  N   UNL     1     -10.202   9.639  66.912  1.00  0.00    -0.230 N  
HETATM   10  C   UNL     1      -9.292   9.263  67.884  1.00  0.00    -0.129 C  
HETATM   11  H   UNL     1     -11.169   9.325  66.994  1.00  0.00     0.000 HD 
HETATM   12  O   UNL     1      -8.114   9.593  67.848  1.00  0.00    -0.105 OA 
BRANCH  10  13
HETATM   13  C   UNL     1      -9.815   8.385  68.974  1.00  0.00    -0.184 A  
HETATM   14  C   UNL     1      -8.965   7.359  69.442  1.00  0.00    -0.139 A  
HETATM   15  C   UNL     1      -9.332   6.575  70.542  1.00  0.00    -0.162 A  
HETATM   16  C   UNL     1     -11.042   8.601  69.629  1.00  0.00    -0.013 A  
HETATM   17  C   UNL     1     -10.540   6.790  71.194  1.00  0.00    -0.252 A  
HETATM   18  C   UNL     1     -11.379   7.808  70.742  1.00  0.00    -0.291 A  
BRANCH  15  19
HETATM   19  S   UNL     1      -8.281   5.228  71.045  1.00  0.00    -0.119 S  
HETATM   20  O   UNL     1      -7.958   5.452  72.440  1.00  0.00    -0.101 OA 
HETATM   21  O   UNL     1      -7.232   5.115  70.050  1.00  0.00    -0.056 OA 
BRANCH  19  22
HETATM   22  C   UNL     1      -9.324   3.787  70.933  1.00  0.00    -0.145 C  
HETATM   23  C   UNL     1      -9.813   3.574  69.511  1.00  0.00     0.094 C  
ENDBRANCH  19  22
ENDBRANCH  15  19
BRANCH  16  24
HETATM   24  O   UNL     1     -11.975   9.570  69.376  1.00  0.00     0.380 OA 
HETATM   25  C   UNL     1     -11.926  10.743  70.180  1.00  0.00    -0.349 C  
ENDBRANCH  16  24
ENDBRANCH  10  13
ENDBRANCH   8   9
ENDBRANCH   7   8
ENDBRANCH   2   3
TORSDOF 7
ENDMDL
MODEL      248
REMARK 921   NORMALIZED FREE ENERGY PREDICTED BY IDOCK:   -3.20 KCAL/MOL
REMARK 922        TOTAL FREE ENERGY PREDICTED BY IDOCK:   -5.38 KCAL/MOL
REMARK 923 INTER-LIGAND FREE ENERGY PREDICTED BY IDOCK:   -4.47 KCAL/MOL
REMARK 924 INTRA-LIGAND FREE ENERGY PREDICTED BY IDOCK:   -0.91 KCAL/MOL
REMARK 927      BINDING AFFINITY PREDICTED BY RF-SCORE:    0.00 PKD
ROOT
HETATM    1  C   UNL     1      -6.655   6.138  64.820  1.00  0.00    -0.038 C  
HETATM    2  C   UNL     1      -8.038   6.745  64.606  1.00  0.00    -0.086 C  
ENDROOT
BRANCH   2   3
HETATM    3  N   UNL     1      -7.974   8.151  64.189  1.00  0.00    -0.145 NA 
HETATM    4  C   UNL     1      -8.411   8.352  62.804  1.00  0.00    -0.134 C  
HETATM    5  C   UNL     1      -8.655   9.844  62.753  1.00  0.00    -0.192 C  
HETATM    6  C   UNL     1      -9.301  10.143  64.095  1.00  0.00    -0.340 C  
HETATM    7  C   UNL     1      -8.820   9.026  65.038  1.00  0.00    -0.170 C  
BRANCH   7   8
HETATM    8  C   UNL     1      -8.017   9.580  66.236  1.00  0.00    -0.107 C  
BRANCH   8   9
HETATM    9  N   UNL     1      -8.555  10.817  66.791  1.00  0.00    -0.133 N  
HETATM   10  C   UNL     1      -7.741  11.872  67.164  1.00  0.00    -0.163 C  
HETATM   11  H   UNL     1      -9.564  10.907  66.908  1.00  0.00     0.000 HD 
HETATM   12  O   UNL     1      -6.522  11.834  67.062  1.00  0.00    -0.135 OA 
BRANCH  10  13
HETATM   13  C   UNL     1      -8.430  13.063  67.748  1.00  0.00    -0.188 A  
HETATM   14  C   UNL     1      -7.735  14.292  67.717  1.00  0.00    -0.172 A  
HETATM   15  C   UNL     1      -8.359  15.475  68.130  1.00  0.00    -0.145 A  
HETATM   16  C   UNL     1      -9.761  13.048  68.207  1.00  0.00    -0.221 A  
HETATM   17  C   UNL     1      -9.674  15.463  68.579  1.00  0.00    -0.204 A  
HETATM   18  C   UNL     1     -10.369  14.254  68.602  1.00  0.00    -0.246 A  
BRANCH  15  19
HETATM   19  S   UNL     1      -7.423  16.990  68.170  1.00  0.00    -0.203 S  
HETATM   20  O   UNL     1      -6.566  16.918  69.337  1.00  0.00    -0.223 OA 
HETATM   21  O   UNL     1      -8.370  18.076  68.012  1.00  0.00    -0.247 OA 
BRANCH  19  22
HETATM   22  C   UNL     1      -6.399  16.915  66.714  1.00  0.00    -0.204 C  
HETATM   23  C   UNL     1      -6.672  18.090  65.791  1.00  0.00    -0.292 C  
ENDBRANCH  19  22
ENDBRANCH  15  19
BRANCH  16  24
HETATM   24  O   UNL     1     -10.623  11.986  68.262  1.00  0.00    -0.197 OA 
HETATM   25  C   UNL     1     -11.783  12.051  67.440  1.00  0.00    -0.281 C  
ENDBRANCH  16  24
ENDBRANCH  10  13
ENDBRANCH   8   9
ENDBRANCH   7   8
ENDBRANCH   2   3
TORSDOF 7
ENDMDL
MODEL      249
REMARK 921   NORMALIZED FREE ENERGY PREDICTED BY IDOCK:   -3.18 KCAL/MOL
REMARK 922        TOTAL FREE ENERGY PREDICTED BY IDOCK:   -5.35 KCAL/MOL
REMARK 923 INTER-LIGAND FREE ENERGY PREDICTED BY IDOCK:   -4.48 KCAL/MOL
REMARK 924 INTRA-LIGAND FREE ENERGY PREDICTED BY IDOCK:   -0.87 KCAL/MOL
REMARK 927      BINDING AFFINITY PREDICTED BY RF-SCORE:    0.00 PKD
ROOT
HETATM    1  C   UNL     1      -9.367   9.869  64.251  1.00  0.00    -0.313 C  
HETATM    2  C   UNL     1      -8.766  10.690  65.386  1.00  0.00    -0.185 C  
ENDROOT
BRANCH   2   3
HETATM    3  N   UNL     1      -7.940   9.878  66.289  1.00  0.00    -0.106 NA 
HETATM    4  C   UNL     1      -6.569  10.381  66.410  1.00  0.00    -0.099 C  
HETATM    5  C   UNL     1      -6.073   9.677  67.654  1.00  0.00    -0.052 C  
HETATM    6  C   UNL     1      -7.273   9.712  68.583  1.00  0.00    -0.073 C  
HETATM    7  C   UNL     1      -8.501   9.820  67.661  1.00  0.00    -0.122 C  
BRANCH   7   8
HETATM    8  C   UNL     1      -9.458   8.618  67.820  1.00  0.00    -0.142 C  
BRANCH   8   9
HETATM    9  N   UNL     1      -9.577   8.129  69.190  1.00  0.00    -0.156 N  
HETATM   10  C   UNL     1     -10.462   7.125  69.539  1.00  0.00    -0.225 C  
HETATM   11  H   UNL     1      -8.987   8.542  69.913  1.00  0.00     0.000 HD 
HETATM   12  O   UNL     1     -11.207   6.590  68.729  1.00  0.00    -0.293 OA 
BRANCH  10  13
HETATM   13  C   UNL     1     -10.497   6.750  70.986  1.00  0.00    -0.237 A  
HETATM   14  C   UNL     1      -9.985   5.482  71.337  1.00  0.00    -0.241 A  
HETATM   15  C   UNL     1      -9.869   5.107  72.681  1.00  0.00    -0.161 A  
HETATM   16  C   UNL     1     -10.894   7.630  72.011  1.00  0.00    -0.238 A  
HETATM   17  C   UNL     1     -10.255   5.975  73.695  1.00  0.00    -0.239 A  
HETATM   18  C   UNL     1     -10.752   7.234  73.354  1.00  0.00    -0.415 A  
BRANCH  15  19
HETATM   19  S   UNL     1      -9.311   3.465  73.086  1.00  0.00    -0.098 S  
HETATM   20  O   UNL     1      -9.023   3.463  74.506  1.00  0.00    -0.085 OA 
HETATM   21  O   UNL     1      -8.285   3.117  72.122  1.00  0.00    -0.061 OA 
BRANCH  19  22
HETATM   22  C   UNL     1     -10.733   2.431  72.798  1.00  0.00    -0.076 C  
HETATM   23  C   UNL     1     -11.317   1.926  74.106  1.00  0.00    -0.127 C  
ENDBRANCH  19  22
ENDBRANCH  15  19
BRANCH  16  24
HETATM   24  O   UNL     1     -11.356   8.912  71.891  1.00  0.00    -0.338 OA 
HETATM   25  C   UNL     1     -12.764   9.103  71.966  1.00  0.00    -0.398 C  
ENDBRANCH  16  24
ENDBRANCH  10  13
ENDBRANCH   8   9
ENDBRANCH   7   8
ENDBRANCH   2   3
TORSDOF 7
ENDMDL
MODEL      250
REMARK 921   NORMALIZED FREE ENERGY PREDICTED BY IDOCK:   -3.10 KCAL/MOL
REMARK 922        TOTAL FREE ENERGY PREDICTED BY IDOCK:   -5.24 KCAL/MOL
REMARK 923 INTER-LIGAND FREE ENERGY PREDICTED BY IDOCK:   -4.27 KCAL/MOL
REMARK 924 INTRA-LIGAND FREE ENERGY PREDICTED BY IDOCK:   -0.97 KCAL/MOL
REMARK 927      BINDING AFFINITY PREDICTED BY RF-SCORE:    0.00 PKD
ROOT
HETATM    1  C   UNL     1     -10.442   4.366  72.392  1.00  0.00    -0.219 C  
HETATM    2  C   UNL     1      -9.565   4.425  71.145  1.00  0.00    -0.175 C  
ENDROOT
BRANCH   2   3
HETATM    3  N   UNL     1      -8.731   5.632  71.104  1.00  0.00    -0.133 NA 
HETATM    4  C   UNL     1      -7.365   5.394  71.576  1.00  0.00    -0.085 C  
HETATM    5  C   UNL     1      -6.625   6.607  71.057  1.00  0.00    -0.053 C  
HETATM    6  C   UNL     1      -7.219   6.821  69.676  1.00  0.00    -0.081 C  
HETATM    7  C   UNL     1      -8.622   6.191  69.734  1.00  0.00    -0.132 C  
BRANCH   7   8
HETATM    8  C   UNL     1      -9.738   7.226  69.465  1.00  0.00    -0.158 C  
BRANCH   8   9
HETATM    9  N   UNL     1      -9.248   8.577  69.216  1.00  0.00    -0.153 N  
HETATM   10  C   UNL     1      -9.855   9.424  68.306  1.00  0.00    -0.160 C  
HETATM   11  H   UNL     1      -8.431   8.908  69.729  1.00  0.00     0.000 HD 
HETATM   12  O   UNL     1     -10.832   9.095  67.647  1.00  0.00    -0.234 OA 
BRANCH  10  13
HETATM   13  C   UNL     1      -9.223  10.767  68.132  1.00  0.00    -0.151 A  
HETATM   14  C   UNL     1     -10.083  11.859  67.885  1.00  0.00    -0.199 A  
HETATM   15  C   UNL     1      -9.582  13.166  67.833  1.00  0.00    -0.218 A  
HETATM   16  C   UNL     1      -7.850  11.015  68.319  1.00  0.00    -0.121 A  
HETATM   17  C   UNL     1      -8.228  13.412  68.023  1.00  0.00    -0.161 A  
HETATM   18  C   UNL     1      -7.375  12.339  68.278  1.00  0.00    -0.108 A  
BRANCH  15  19
HETATM   19  S   UNL     1     -10.679  14.508  67.423  1.00  0.00    -0.287 S  
HETATM   20  O   UNL     1     -10.035  15.724  67.880  1.00  0.00    -0.224 OA 
HETATM   21  O   UNL     1     -11.996  14.140  67.906  1.00  0.00    -0.360 OA 
BRANCH  19  22
HETATM   22  C   UNL     1     -10.712  14.523  65.642  1.00  0.00    -0.327 C  
HETATM   23  C   UNL     1     -10.838  15.940  65.109  1.00  0.00    -0.438 C  
ENDBRANCH  19  22
ENDBRANCH  15  19
BRANCH  16  24
HETATM   24  O   UNL     1      -6.864  10.116  68.625  1.00  0.00    -0.056 OA 
HETATM   25  C   UNL     1      -5.573  10.360  68.079  1.00  0.00    -0.040 C  
ENDBRANCH  16  24
ENDBRANCH  10  13
ENDBRANCH   8   9
ENDBRANCH   7   8
ENDBRANCH   2   3
TORSDOF 7
ENDMDL
MODEL      251
REMARK 921   NORMALIZED FREE ENERGY PREDICTED BY IDOCK:   -3.10 KCAL/MOL
REMARK 922        TOTAL FREE ENERGY PREDICTED BY IDOCK:   -5.23 KCAL/MOL
REMARK 923 INTER-LIGAND FREE ENERGY PREDICTED BY IDOCK:   -4.43 KCAL/MOL
REMARK 924 INTRA-LIGAND FREE ENERGY PREDICTED BY IDOCK:   -0.80 KCAL/MOL
REMARK 927      BINDING AFFINITY PREDICTED BY RF-SCORE:    0.00 PKD
ROOT
HETATM    1  C   UNL     1     -12.155  13.046  63.696  1.00  0.00    -0.604 C  
HETATM    2  C   UNL     1     -10.804  12.411  64.012  1.00  0.00    -0.397 C  
ENDROOT
BRANCH   2   3
HETATM    3  N   UNL     1     -10.366  12.681  65.387  1.00  0.00    -0.287 NA 
HETATM    4  C   UNL     1     -11.172  13.713  66.047  1.00  0.00    -0.296 C  
HETATM    5  C   UNL     1     -10.826  13.513  67.506  1.00  0.00    -0.276 C  
HETATM    6  C   UNL     1     -10.760  12.003  67.650  1.00  0.00    -0.252 C  
HETATM    7  C   UNL     1     -10.431  11.471  66.244  1.00  0.00    -0.251 C  
BRANCH   7   8
HETATM    8  C   UNL     1      -9.095  10.696  66.211  1.00  0.00    -0.167 C  
BRANCH   8   9
HETATM    9  N   UNL     1      -9.057   9.541  67.101  1.00  0.00    -0.133 N  
HETATM   10  C   UNL     1      -7.966   8.691  67.157  1.00  0.00    -0.100 C  
HETATM   11  H   UNL     1      -9.860   9.353  67.701  1.00  0.00     0.000 HD 
HETATM   12  O   UNL     1      -6.972   8.845  66.462  1.00  0.00    -0.078 OA 
BRANCH  10  13
HETATM   13  C   UNL     1      -8.082   7.531  68.093  1.00  0.00    -0.124 A  
HETATM   14  C   UNL     1      -8.150   7.818  69.473  1.00  0.00    -0.126 A  
HETATM   15  C   UNL     1      -8.382   6.798  70.404  1.00  0.00    -0.130 A  
HETATM   16  C   UNL     1      -8.245   6.199  67.668  1.00  0.00    -0.113 A  
HETATM   17  C   UNL     1      -8.550   5.483  69.986  1.00  0.00    -0.120 A  
HETATM   18  C   UNL     1      -8.493   5.195  68.623  1.00  0.00    -0.088 A  
BRANCH  15  19
HETATM   19  S   UNL     1      -8.366   7.180  72.143  1.00  0.00    -0.102 S  
HETATM   20  O   UNL     1      -7.320   8.163  72.343  1.00  0.00    -0.094 OA 
HETATM   21  O   UNL     1      -8.340   5.916  72.854  1.00  0.00    -0.118 OA 
BRANCH  19  22
HETATM   22  C   UNL     1      -9.939   7.963  72.438  1.00  0.00    -0.229 C  
HETATM   23  C   UNL     1     -11.038   7.314  71.614  1.00  0.00    -0.262 C  
ENDBRANCH  19  22
ENDBRANCH  15  19
BRANCH  16  24
HETATM   24  O   UNL     1      -8.273   5.718  66.387  1.00  0.00    -0.105 OA 
HETATM   25  C   UNL     1      -9.523   5.754  65.708  1.00  0.00     0.024 C  
ENDBRANCH  16  24
ENDBRANCH  10  13
ENDBRANCH   8   9
ENDBRANCH   7   8
ENDBRANCH   2   3
TORSDOF 7
ENDMDL
MODEL      252
REMARK 921   NORMALIZED FREE ENERGY PREDICTED BY IDOCK:   -3.07 KCAL/MOL
REMARK 922        TOTAL FREE ENERGY PREDICTED BY IDOCK:   -5.20 KCAL/MOL
REMARK 923 INTER-LIGAND FREE ENERGY PREDICTED BY IDOCK:   -4.35 KCAL/MOL
REMARK 924 INTRA-LIGAND FREE ENERGY PREDICTED BY IDOCK:   -0.85 KCAL/MOL
REMARK 927      BINDING AFFINITY PREDICTED BY RF-SCORE:    0.00 PKD
ROOT
HETATM    1  C   UNL     1      -6.956  10.427  66.013  1.00  0.00    -0.129 C  
HETATM    2  C   UNL     1      -6.440   8.993  65.964  1.00  0.00    -0.064 C  
ENDROOT
BRANCH   2   3
HETATM    3  N   UNL     1      -7.469   8.041  65.528  1.00  0.00    -0.078 NA 
HETATM    4  C   UNL     1      -6.982   7.106  64.510  1.00  0.00    -0.051 C  
HETATM    5  C   UNL     1      -8.031   6.017  64.540  1.00  0.00    -0.127 C  
HETATM    6  C   UNL     1      -8.343   5.866  66.019  1.00  0.00    -0.128 C  
HETATM    7  C   UNL     1      -7.987   7.222  66.652  1.00  0.00    -0.114 C  
BRANCH   7   8
HETATM    8  C   UNL     1      -9.210   7.897  67.312  1.00  0.00    -0.142 C  
BRANCH   8   9
HETATM    9  N   UNL     1      -9.554   7.354  68.622  1.00  0.00    -0.146 N  
HETATM   10  C   UNL     1     -10.616   6.487  68.804  1.00  0.00    -0.243 C  
HETATM   11  H   UNL     1      -8.992   7.622  69.430  1.00  0.00     0.000 HD 
HETATM   12  O   UNL     1     -11.340   6.127  67.886  1.00  0.00    -0.208 OA 
BRANCH  10  13
HETATM   13  C   UNL     1     -10.868   6.037  70.207  1.00  0.00    -0.398 A  
HETATM   14  C   UNL     1      -9.983   5.080  70.748  1.00  0.00    -0.291 A  
HETATM   15  C   UNL     1     -10.077   4.700  72.093  1.00  0.00    -0.193 A  
HETATM   16  C   UNL     1     -11.852   6.599  71.042  1.00  0.00    -0.372 A  
HETATM   17  C   UNL     1     -11.043   5.258  72.920  1.00  0.00    -0.365 A  
HETATM   18  C   UNL     1     -11.915   6.212  72.394  1.00  0.00    -0.240 A  
BRANCH  15  19
HETATM   19  S   UNL     1      -9.007   3.421  72.717  1.00  0.00    -0.088 S  
HETATM   20  O   UNL     1      -8.050   4.069  73.591  1.00  0.00    -0.087 OA 
HETATM   21  O   UNL     1      -8.562   2.647  71.575  1.00  0.00    -0.062 OA 
BRANCH  19  22
HETATM   22  C   UNL     1     -10.075   2.398  73.712  1.00  0.00    -0.107 C  
HETATM   23  C   UNL     1     -10.912   1.474  72.844  1.00  0.00    -0.239 C  
ENDBRANCH  19  22
ENDBRANCH  15  19
BRANCH  16  24
HETATM   24  O   UNL     1     -12.762   7.575  70.737  1.00  0.00    -0.123 OA 
HETATM   25  C   UNL     1     -13.226   8.387  71.809  1.00  0.00    -0.355 C  
ENDBRANCH  16  24
ENDBRANCH  10  13
ENDBRANCH   8   9
ENDBRANCH   7   8
ENDBRANCH   2   3
TORSDOF 7
ENDMDL
MODEL      253
REMARK 921   NORMALIZED FREE ENERGY PREDICTED BY IDOCK:   -3.07 KCAL/MOL
REMARK 922        TOTAL FREE ENERGY PREDICTED BY IDOCK:   -5.19 KCAL/MOL
REMARK 923 INTER-LIGAND FREE ENERGY PREDICTED BY IDOCK:   -4.82 KCAL/MOL
REMARK 924 INTRA-LIGAND FREE ENERGY PREDICTED BY IDOCK:   -0.38 KCAL/MOL
REMARK 927      BINDING AFFINITY PREDICTED BY RF-SCORE:    0.00 PKD
ROOT
HETATM    1  C   UNL     1     -12.637   6.842  72.073  1.00  0.00    -0.259 C  
HETATM    2  C   UNL     1     -11.861   7.851  71.232  1.00  0.00    -0.296 C  
ENDROOT
BRANCH   2   3
HETATM    3  N   UNL     1     -10.689   7.254  70.580  1.00  0.00    -0.231 NA 
HETATM    4  C   UNL     1      -9.786   6.598  71.530  1.00  0.00    -0.164 C  
HETATM    5  C   UNL     1      -8.932   5.737  70.625  1.00  0.00    -0.149 C  
HETATM    6  C   UNL     1      -9.923   5.206  69.603  1.00  0.00    -0.313 C  
HETATM    7  C   UNL     1     -11.067   6.235  69.570  1.00  0.00    -0.408 C  
BRANCH   7   8
HETATM    8  C   UNL     1     -11.236   6.874  68.174  1.00  0.00     0.006 C  
BRANCH   8   9
HETATM    9  N   UNL     1     -10.679   8.218  68.063  1.00  0.00    -0.447 N  
HETATM   10  C   UNL     1     -10.293   8.758  66.849  1.00  0.00    -0.274 C  
HETATM   11  H   UNL     1     -10.572   8.778  68.909  1.00  0.00     0.000 HD 
HETATM   12  O   UNL     1     -10.383   8.143  65.795  1.00  0.00     0.720 OA 
BRANCH  10  13
HETATM   13  C   UNL     1      -9.710  10.133  66.894  1.00  0.00    -0.233 A  
HETATM   14  C   UNL     1     -10.613  11.218  66.893  1.00  0.00    -0.300 A  
HETATM   15  C   UNL     1     -10.152  12.530  67.057  1.00  0.00    -0.216 A  
HETATM   16  C   UNL     1      -8.336  10.394  67.058  1.00  0.00    -0.127 A  
HETATM   17  C   UNL     1      -8.798  12.789  67.224  1.00  0.00    -0.198 A  
HETATM   18  C   UNL     1      -7.902  11.720  67.236  1.00  0.00    -0.161 A  
BRANCH  15  19
HETATM   19  S   UNL     1     -11.307  13.882  66.954  1.00  0.00    -0.343 S  
HETATM   20  O   UNL     1     -12.572  13.316  66.530  1.00  0.00    -0.279 OA 
HETATM   21  O   UNL     1     -10.666  14.927  66.179  1.00  0.00    -0.301 OA 
BRANCH  19  22
HETATM   22  C   UNL     1     -11.478  14.447  68.635  1.00  0.00    -0.287 C  
HETATM   23  C   UNL     1     -11.350  15.958  68.721  1.00  0.00    -0.378 C  
ENDBRANCH  19  22
ENDBRANCH  15  19
BRANCH  16  24
HETATM   24  O   UNL     1      -7.310   9.492  67.146  1.00  0.00    -0.087 OA 
HETATM   25  C   UNL     1      -7.451   8.442  68.096  1.00  0.00    -0.097 C  
ENDBRANCH  16  24
ENDBRANCH  10  13
ENDBRANCH   8   9
ENDBRANCH   7   8
ENDBRANCH   2   3
TORSDOF 7
ENDMDL
MODEL      254
REMARK 921   NORMALIZED FREE ENERGY PREDICTED BY IDOCK:   -3.00 KCAL/MOL
REMARK 922        TOTAL FREE ENERGY PREDICTED BY IDOCK:   -5.10 KCAL/MOL
REMARK 923 INTER-LIGAND FREE ENERGY PREDICTED BY IDOCK:   -4.17 KCAL/MOL
REMARK 924 INTRA-LIGAND FREE ENERGY PREDICTED BY IDOCK:   -0.93 KCAL/MOL
REMARK 927      BINDING AFFINITY PREDICTED BY RF-SCORE:    0.00 PKD
ROOT
HETATM    1  C   UNL     1      -8.203   4.927  70.635  1.00  0.00    -0.096 C  
HETATM    2  C   UNL     1      -7.976   6.434  70.699  1.00  0.00    -0.112 C  
ENDROOT
BRANCH   2   3
HETATM    3  N   UNL     1      -8.716   7.157  69.658  1.00  0.00    -0.141 NA 
HETATM    4  C   UNL     1      -8.953   6.345  68.462  1.00  0.00    -0.125 C  
HETATM    5  C   UNL     1     -10.044   7.116  67.754  1.00  0.00    -0.215 C  
HETATM    6  C   UNL     1     -10.945   7.575  68.887  1.00  0.00     0.029 C  
HETATM    7  C   UNL     1     -10.044   7.619  70.134  1.00  0.00    -0.199 C  
BRANCH   7   8
HETATM    8  C   UNL     1      -9.954   9.038  70.739  1.00  0.00    -0.245 C  
BRANCH   8   9
HETATM    9  N   UNL     1     -10.489  10.086  69.877  1.00  0.00    -0.257 N  
HETATM   10  C   UNL     1      -9.710  10.739  68.939  1.00  0.00    -0.198 C  
HETATM   11  H   UNL     1     -11.471  10.347  69.970  1.00  0.00     0.000 HD 
HETATM   12  O   UNL     1      -8.523  10.487  68.776  1.00  0.00    -0.125 OA 
BRANCH  10  13
HETATM   13  C   UNL     1     -10.387  11.813  68.150  1.00  0.00    -0.213 A  
HETATM   14  C   UNL     1     -10.695  13.014  68.826  1.00  0.00    -0.250 A  
HETATM   15  C   UNL     1     -11.215  14.111  68.129  1.00  0.00    -0.276 A  
HETATM   16  C   UNL     1     -10.618  11.736  66.764  1.00  0.00    -0.238 A  
HETATM   17  C   UNL     1     -11.439  14.039  66.760  1.00  0.00    -0.379 A  
HETATM   18  C   UNL     1     -11.128  12.859  66.085  1.00  0.00    -0.314 A  
BRANCH  15  19
HETATM   19  S   UNL     1     -11.682  15.576  69.028  1.00  0.00    -0.366 S  
HETATM   20  O   UNL     1     -13.018  15.925  68.588  1.00  0.00     1.161 OA 
HETATM   21  O   UNL     1     -10.589  16.520  68.895  1.00  0.00    -0.282 OA 
BRANCH  19  22
HETATM   22  C   UNL     1     -11.769  15.044  70.726  1.00  0.00    -0.320 C  
HETATM   23  C   UNL     1     -11.497  16.198  71.676  1.00  0.00    -0.396 C  
ENDBRANCH  19  22
ENDBRANCH  15  19
BRANCH  16  24
HETATM   24  O   UNL     1     -10.338  10.697  65.918  1.00  0.00    -0.255 OA 
HETATM   25  C   UNL     1     -10.322  10.984  64.524  1.00  0.00    -0.354 C  
ENDBRANCH  16  24
ENDBRANCH  10  13
ENDBRANCH   8   9
ENDBRANCH   7   8
ENDBRANCH   2   3
TORSDOF 7
ENDMDL
MODEL      255
REMARK 921   NORMALIZED FREE ENERGY PREDICTED BY IDOCK:   -2.99 KCAL/MOL
REMARK 922        TOTAL FREE ENERGY PREDICTED BY IDOCK:   -5.08 KCAL/MOL
REMARK 923 INTER-LIGAND FREE ENERGY PREDICTED BY IDOCK:   -4.20 KCAL/MOL
REMARK 924 INTRA-LIGAND FREE ENERGY PREDICTED BY IDOCK:   -0.88 KCAL/MOL
REMARK 927      BINDING AFFINITY PREDICTED BY RF-SCORE:    0.00 PKD
ROOT
HETATM    1  C   UNL     1      -8.105  11.824  66.626  1.00  0.00    -0.094 C  
HETATM    2  C   UNL     1      -7.231  10.629  66.261  1.00  0.00    -0.137 C  
ENDROOT
BRANCH   2   3
HETATM    3  N   UNL     1      -7.769   9.866  65.128  1.00  0.00    -0.125 NA 
HETATM    4  C   UNL     1      -6.957  10.000  63.916  1.00  0.00    -0.124 C  
HETATM    5  C   UNL     1      -7.443   8.846  63.068  1.00  0.00    -0.100 C  
HETATM    6  C   UNL     1      -7.626   7.721  64.071  1.00  0.00    -0.113 C  
HETATM    7  C   UNL     1      -7.864   8.415  65.424  1.00  0.00    -0.108 C  
BRANCH   7   8
HETATM    8  C   UNL     1      -9.242   8.060  66.027  1.00  0.00    -0.120 C  
BRANCH   8   9
HETATM    9  N   UNL     1      -9.293   8.139  67.482  1.00  0.00    -0.139 N  
HETATM   10  C   UNL     1     -10.087   7.297  68.239  1.00  0.00    -0.170 C  
HETATM   11  H   UNL     1      -8.723   8.839  67.958  1.00  0.00     0.000 HD 
HETATM   12  O   UNL     1     -10.804   6.440  67.739  1.00  0.00    -0.271 OA 
BRANCH  10  13
HETATM   13  C   UNL     1     -10.062   7.516  69.717  1.00  0.00    -0.194 A  
HETATM   14  C   UNL     1     -10.468   6.440  70.537  1.00  0.00    -0.270 A  
HETATM   15  C   UNL     1     -10.356   6.523  71.930  1.00  0.00    -0.200 A  
HETATM   16  C   UNL     1      -9.547   8.676  70.325  1.00  0.00    -0.170 A  
HETATM   17  C   UNL     1      -9.842   7.665  72.533  1.00  0.00    -0.250 A  
HETATM   18  C   UNL     1      -9.430   8.727  71.727  1.00  0.00    -0.363 A  
BRANCH  15  19
HETATM   19  S   UNL     1     -10.967   5.188  72.938  1.00  0.00    -0.296 S  
HETATM   20  O   UNL     1     -12.403   5.150  72.750  1.00  0.00    -0.013 OA 
HETATM   21  O   UNL     1     -10.398   5.361  74.260  1.00  0.00    -0.249 OA 
BRANCH  19  22
HETATM   22  C   UNL     1     -10.263   3.724  72.206  1.00  0.00    -0.131 C  
HETATM   23  C   UNL     1     -10.765   2.469  72.900  1.00  0.00    -0.199 C  
ENDBRANCH  19  22
ENDBRANCH  15  19
BRANCH  16  24
HETATM   24  O   UNL     1      -9.047   9.797  69.719  1.00  0.00    -0.197 OA 
HETATM   25  C   UNL     1      -7.650  10.034  69.847  1.00  0.00    -0.170 C  
ENDBRANCH  16  24
ENDBRANCH  10  13
ENDBRANCH   8   9
ENDBRANCH   7   8
ENDBRANCH   2   3
TORSDOF 7
ENDMDL
MODEL      256
REMARK 921   NORMALIZED FREE ENERGY PREDICTED BY IDOCK:   -2.97 KCAL/MOL
REMARK 922        TOTAL FREE ENERGY PREDICTED BY IDOCK:   -5.06 KCAL/MOL
REMARK 923 INTER-LIGAND FREE ENERGY PREDICTED BY IDOCK:   -4.08 KCAL/MOL
REMARK 924 INTRA-LIGAND FREE ENERGY PREDICTED BY IDOCK:   -0.98 KCAL/MOL
REMARK 927      BINDING AFFINITY PREDICTED BY RF-SCORE:    0.00 PKD
ROOT
HETATM    1  C   UNL     1     -10.230  15.799  69.630  1.00  0.00    -0.289 C  
HETATM    2  C   UNL     1     -10.009  15.968  68.131  1.00  0.00    -0.228 C  
ENDROOT
BRANCH   2   3
HETATM    3  N   UNL     1      -9.134  14.930  67.573  1.00  0.00    -0.179 NA 
HETATM    4  C   UNL     1      -7.719  15.312  67.586  1.00  0.00    -0.165 C  
HETATM    5  C   UNL     1      -7.021  13.987  67.378  1.00  0.00    -0.067 C  
HETATM    6  C   UNL     1      -7.839  13.020  68.217  1.00  0.00    -0.143 C  
HETATM    7  C   UNL     1      -9.240  13.649  68.315  1.00  0.00    -0.198 C  
BRANCH   7   8
HETATM    8  C   UNL     1     -10.330  12.741  67.702  1.00  0.00    -0.221 C  
BRANCH   8   9
HETATM    9  N   UNL     1     -10.193  11.331  68.048  1.00  0.00    -0.178 N  
HETATM   10  C   UNL     1     -10.551  10.320  67.174  1.00  0.00    -0.260 C  
HETATM   11  H   UNL     1      -9.821  11.082  68.965  1.00  0.00     0.000 HD 
HETATM   12  O   UNL     1     -11.012  10.541  66.063  1.00  0.00    -0.011 OA 
BRANCH  10  13
HETATM   13  C   UNL     1     -10.385   8.923  67.678  1.00  0.00    -0.313 A  
HETATM   14  C   UNL     1      -9.693   8.014  66.848  1.00  0.00    -0.291 A  
HETATM   15  C   UNL     1      -9.388   6.724  67.299  1.00  0.00    -0.134 A  
HETATM   16  C   UNL     1     -10.770   8.506  68.966  1.00  0.00    -0.092 A  
HETATM   17  C   UNL     1      -9.762   6.313  68.572  1.00  0.00    -0.137 A  
HETATM   18  C   UNL     1     -10.439   7.209  69.401  1.00  0.00    -0.232 A  
BRANCH  15  19
HETATM   19  S   UNL     1      -8.600   5.574  66.192  1.00  0.00    -0.134 S  
HETATM   20  O   UNL     1      -7.263   5.351  66.707  1.00  0.00    -0.075 OA 
HETATM   21  O   UNL     1      -8.801   6.075  64.847  1.00  0.00    -0.008 OA 
BRANCH  19  22
HETATM   22  C   UNL     1      -9.534   4.068  66.381  1.00  0.00    -0.191 C  
HETATM   23  C   UNL     1      -9.982   3.528  65.034  1.00  0.00    -0.063 C  
ENDBRANCH  19  22
ENDBRANCH  15  19
BRANCH  16  24
HETATM   24  O   UNL     1     -11.391   9.240  69.940  1.00  0.00    -0.184 OA 
HETATM   25  C   UNL     1     -11.244   8.790  71.282  1.00  0.00    -0.284 C  
ENDBRANCH  16  24
ENDBRANCH  10  13
ENDBRANCH   8   9
ENDBRANCH   7   8
ENDBRANCH   2   3
TORSDOF 7
ENDMDL
MODEL      257
REMARK 921   NORMALIZED FREE ENERGY PREDICTED BY IDOCK:   -2.96 KCAL/MOL
REMARK 922        TOTAL FREE ENERGY PREDICTED BY IDOCK:   -5.04 KCAL/MOL
REMARK 923 INTER-LIGAND FREE ENERGY PREDICTED BY IDOCK:   -4.14 KCAL/MOL
REMARK 924 INTRA-LIGAND FREE ENERGY PREDICTED BY IDOCK:   -0.90 KCAL/MOL
REMARK 927      BINDING AFFINITY PREDICTED BY RF-SCORE:    0.00 PKD
ROOT
HETATM    1  C   UNL     1     -12.373   8.781  71.905  1.00  0.00    -0.429 C  
HETATM    2  C   UNL     1     -11.903  10.021  71.151  1.00  0.00    -0.393 C  
ENDROOT
BRANCH   2   3
HETATM    3  N   UNL     1     -11.086   9.688  69.978  1.00  0.00    -0.249 NA 
HETATM    4  C   UNL     1     -11.479  10.438  68.782  1.00  0.00    -0.175 C  
HETATM    5  C   UNL     1     -10.282  10.254  67.874  1.00  0.00    -0.217 C  
HETATM    6  C   UNL     1      -9.100  10.362  68.821  1.00  0.00    -0.165 C  
HETATM    7  C   UNL     1      -9.645   9.961  70.203  1.00  0.00    -0.185 C  
BRANCH   7   8
HETATM    8  C   UNL     1      -8.928   8.717  70.775  1.00  0.00    -0.192 C  
BRANCH   8   9
HETATM    9  N   UNL     1      -9.177   7.491  70.026  1.00  0.00    -0.151 N  
HETATM   10  C   UNL     1      -8.568   6.292  70.352  1.00  0.00    -0.142 C  
HETATM   11  H   UNL     1      -9.821   7.518  69.236  1.00  0.00     0.000 HD 
HETATM   12  O   UNL     1      -7.778   6.184  71.280  1.00  0.00    -0.102 OA 
BRANCH  10  13
HETATM   13  C   UNL     1      -8.895   5.126  69.476  1.00  0.00    -0.120 A  
HETATM   14  C   UNL     1      -8.574   5.237  68.106  1.00  0.00    -0.099 A  
HETATM   15  C   UNL     1      -8.734   4.145  67.244  1.00  0.00    -0.107 A  
HETATM   16  C   UNL     1      -9.385   3.898  69.960  1.00  0.00    -0.176 A  
HETATM   17  C   UNL     1      -9.212   2.931  67.721  1.00  0.00    -0.250 A  
HETATM   18  C   UNL     1      -9.521   2.812  69.076  1.00  0.00    -0.160 A  
BRANCH  15  19
HETATM   19  S   UNL     1      -8.411   4.349  65.504  1.00  0.00    -0.118 S  
HETATM   20  O   UNL     1      -7.115   3.752  65.250  1.00  0.00    -0.063 OA 
HETATM   21  O   UNL     1      -8.660   5.742  65.188  1.00  0.00    -0.149 OA 
BRANCH  19  22
HETATM   22  C   UNL     1      -9.655   3.355  64.705  1.00  0.00    -0.161 C  
HETATM   23  C   UNL     1      -9.177   2.864  63.350  1.00  0.00    -0.095 C  
ENDBRANCH  19  22
ENDBRANCH  15  19
BRANCH  16  24
HETATM   24  O   UNL     1      -9.697   3.564  71.250  1.00  0.00    -0.166 OA 
HETATM   25  C   UNL     1      -8.795   2.701  71.932  1.00  0.00    -0.074 C  
ENDBRANCH  16  24
ENDBRANCH  10  13
ENDBRANCH   8   9
ENDBRANCH   7   8
ENDBRANCH   2   3
TORSDOF 7
ENDMDL
MODEL      258
REMARK 921   NORMALIZED FREE ENERGY PREDICTED BY IDOCK:   -2.92 KCAL/MOL
REMARK 922        TOTAL FREE ENERGY PREDICTED BY IDOCK:   -4.99 KCAL/MOL
REMARK 923 INTER-LIGAND FREE ENERGY PREDICTED BY IDOCK:   -4.00 KCAL/MOL
REMARK 924 INTRA-LIGAND FREE ENERGY PREDICTED BY IDOCK:   -0.99 KCAL/MOL
REMARK 927      BINDING AFFINITY PREDICTED BY RF-SCORE:    0.00 PKD
ROOT
HETATM    1  C   UNL     1     -10.317  10.366  66.090  1.00  0.00    -0.269 C  
HETATM    2  C   UNL     1      -9.112  10.859  65.295  1.00  0.00    -0.197 C  
ENDROOT
BRANCH   2   3
HETATM    3  N   UNL     1      -8.235   9.762  64.869  1.00  0.00    -0.133 NA 
HETATM    4  C   UNL     1      -8.431   9.392  63.465  1.00  0.00    -0.201 C  
HETATM    5  C   UNL     1      -7.186   8.588  63.163  1.00  0.00    -0.096 C  
HETATM    6  C   UNL     1      -6.089   9.347  63.889  1.00  0.00    -0.091 C  
HETATM    7  C   UNL     1      -6.798  10.099  65.029  1.00  0.00    -0.132 C  
BRANCH   7   8
HETATM    8  C   UNL     1      -6.280   9.672  66.420  1.00  0.00    -0.068 C  
BRANCH   8   9
HETATM    9  N   UNL     1      -7.230   8.878  67.191  1.00  0.00    -0.082 N  
HETATM   10  C   UNL     1      -7.208   7.495  67.188  1.00  0.00    -0.086 C  
HETATM   11  H   UNL     1      -7.934   9.359  67.752  1.00  0.00     0.000 HD 
HETATM   12  O   UNL     1      -6.400   6.849  66.534  1.00  0.00    -0.046 OA 
BRANCH  10  13
HETATM   13  C   UNL     1      -8.263   6.816  68.000  1.00  0.00    -0.114 A  
HETATM   14  C   UNL     1      -8.550   7.360  69.271  1.00  0.00    -0.137 A  
HETATM   15  C   UNL     1      -9.608   6.858  70.040  1.00  0.00    -0.157 A  
HETATM   16  C   UNL     1      -9.055   5.755  67.521  1.00  0.00    -0.106 A  
HETATM   17  C   UNL     1     -10.395   5.815  69.566  1.00  0.00    -0.333 A  
HETATM   18  C   UNL     1     -10.122   5.280  68.307  1.00  0.00    -0.219 A  
BRANCH  15  19
HETATM   19  S   UNL     1      -9.881   7.502  71.677  1.00  0.00    -0.161 S  
HETATM   20  O   UNL     1      -8.843   8.485  71.916  1.00  0.00    -0.182 OA 
HETATM   21  O   UNL     1     -10.039   6.362  72.559  1.00  0.00    -0.175 OA 
BRANCH  19  22
HETATM   22  C   UNL     1     -11.444   8.350  71.564  1.00  0.00    -0.278 C  
HETATM   23  C   UNL     1     -11.305   9.654  70.798  1.00  0.00    -0.409 C  
ENDBRANCH  19  22
ENDBRANCH  15  19
BRANCH  16  24
HETATM   24  O   UNL     1      -8.984   5.130  66.306  1.00  0.00    -0.123 OA 
HETATM   25  C   UNL     1     -10.102   4.341  65.917  1.00  0.00    -0.205 C  
ENDBRANCH  16  24
ENDBRANCH  10  13
ENDBRANCH   8   9
ENDBRANCH   7   8
ENDBRANCH   2   3
TORSDOF 7
ENDMDL
MODEL      259
REMARK 921   NORMALIZED FREE ENERGY PREDICTED BY IDOCK:   -2.90 KCAL/MOL
REMARK 922        TOTAL FREE ENERGY PREDICTED BY IDOCK:   -4.96 KCAL/MOL
REMARK 923 INTER-LIGAND FREE ENERGY PREDICTED BY IDOCK:   -4.03 KCAL/MOL
REMARK 924 INTRA-LIGAND FREE ENERGY PREDICTED BY IDOCK:   -0.94 KCAL/MOL
REMARK 927      BINDING AFFINITY PREDICTED BY RF-SCORE:    0.00 PKD
ROOT
HETATM    1  C   UNL     1     -13.776  12.711  72.224  1.00  0.00    -0.429 C  
HETATM    2  C   UNL     1     -13.272  11.657  71.243  1.00  0.00     0.005 C  
ENDROOT
BRANCH   2   3
HETATM    3  N   UNL     1     -12.876  10.412  71.913  1.00  0.00    -0.441 NA 
HETATM    4  C   UNL     1     -14.005   9.721  72.541  1.00  0.00     0.061 C  
HETATM    5  C   UNL     1     -13.449   8.334  72.775  1.00  0.00     0.127 C  
HETATM    6  C   UNL     1     -12.639   8.062  71.519  1.00  0.00    -0.332 C  
HETATM    7  C   UNL     1     -12.248   9.448  70.976  1.00  0.00    -0.279 C  
BRANCH   7   8
HETATM    8  C   UNL     1     -10.716   9.642  70.923  1.00  0.00    -0.332 C  
BRANCH   8   9
HETATM    9  N   UNL     1     -10.217  10.079  69.624  1.00  0.00    -0.225 N  
HETATM   10  C   UNL     1     -10.115   9.218  68.546  1.00  0.00    -0.190 C  
HETATM   11  H   UNL     1      -9.934  11.052  69.506  1.00  0.00     0.000 HD 
HETATM   12  O   UNL     1     -10.426   8.036  68.614  1.00  0.00    -0.207 OA 
BRANCH  10  13
HETATM   13  C   UNL     1      -9.557   9.799  67.288  1.00  0.00    -0.194 A  
HETATM   14  C   UNL     1      -8.605   9.027  66.586  1.00  0.00    -0.134 A  
HETATM   15  C   UNL     1      -8.127   9.444  65.338  1.00  0.00    -0.118 A  
HETATM   16  C   UNL     1     -10.013  10.999  66.712  1.00  0.00    -0.203 A  
HETATM   17  C   UNL     1      -8.580  10.626  64.766  1.00  0.00    -0.136 A  
HETATM   18  C   UNL     1      -9.528  11.388  65.449  1.00  0.00    -0.240 A  
BRANCH  15  19
HETATM   19  S   UNL     1      -6.856   8.497  64.526  1.00  0.00    -0.069 S  
HETATM   20  O   UNL     1      -6.252   7.656  65.541  1.00  0.00    -0.038 OA 
HETATM   21  O   UNL     1      -6.052   9.433  63.765  1.00  0.00    -0.087 OA 
BRANCH  19  22
HETATM   22  C   UNL     1      -7.743   7.453  63.386  1.00  0.00    -0.125 C  
HETATM   23  C   UNL     1      -8.519   6.374  64.121  1.00  0.00     0.204 C  
ENDBRANCH  19  22
ENDBRANCH  15  19
BRANCH  16  24
HETATM   24  O   UNL     1     -10.965  11.857  67.192  1.00  0.00    -0.241 OA 
HETATM   25  C   UNL     1     -11.772  12.531  66.233  1.00  0.00    -0.404 C  
ENDBRANCH  16  24
ENDBRANCH  10  13
ENDBRANCH   8   9
ENDBRANCH   7   8
ENDBRANCH   2   3
TORSDOF 7
ENDMDL
MODEL      260
REMARK 921   NORMALIZED FREE ENERGY PREDICTED BY IDOCK:   -2.79 KCAL/MOL
REMARK 922        TOTAL FREE ENERGY PREDICTED BY IDOCK:   -4.81 KCAL/MOL
REMARK 923 INTER-LIGAND FREE ENERGY PREDICTED BY IDOCK:   -3.72 KCAL/MOL
REMARK 924 INTRA-LIGAND FREE ENERGY PREDICTED BY IDOCK:   -1.09 KCAL/MOL
REMARK 927      BINDING AFFINITY PREDICTED BY RF-SCORE:    0.00 PKD
ROOT
HETATM    1  C   UNL     1      -7.899   8.230  74.555  1.00  0.00    -0.300 C  
HETATM    2  C   UNL     1      -7.770   7.530  73.207  1.00  0.00    -0.101 C  
ENDROOT
BRANCH   2   3
HETATM    3  N   UNL     1      -9.070   7.313  72.561  1.00  0.00    -0.132 NA 
HETATM    4  C   UNL     1     -10.045   6.677  73.450  1.00  0.00    -0.228 C  
HETATM    5  C   UNL     1     -11.355   6.942  72.740  1.00  0.00    -0.237 C  
HETATM    6  C   UNL     1     -11.197   8.361  72.224  1.00  0.00    -0.446 C  
HETATM    7  C   UNL     1      -9.680   8.581  72.089  1.00  0.00    -0.317 C  
BRANCH   7   8
HETATM    8  C   UNL     1      -9.262   8.890  70.634  1.00  0.00    -0.213 C  
BRANCH   8   9
HETATM    9  N   UNL     1      -9.442   7.772  69.714  1.00  0.00    -0.160 N  
HETATM   10  C   UNL     1      -8.376   7.018  69.255  1.00  0.00    -0.129 C  
HETATM   11  H   UNL     1     -10.383   7.539  69.399  1.00  0.00     0.000 HD 
HETATM   12  O   UNL     1      -7.219   7.243  69.582  1.00  0.00    -0.074 OA 
BRANCH  10  13
HETATM   13  C   UNL     1      -8.708   5.925  68.292  1.00  0.00    -0.112 A  
HETATM   14  C   UNL     1      -8.087   5.969  67.025  1.00  0.00    -0.106 A  
HETATM   15  C   UNL     1      -8.249   4.918  66.113  1.00  0.00    -0.108 A  
HETATM   16  C   UNL     1      -9.500   4.808  68.620  1.00  0.00    -0.150 A  
HETATM   17  C   UNL     1      -9.025   3.813  66.438  1.00  0.00    -0.139 A  
HETATM   18  C   UNL     1      -9.634   3.759  67.692  1.00  0.00    -0.199 A  
BRANCH  15  19
HETATM   19  S   UNL     1      -7.530   5.050  64.489  1.00  0.00    -0.070 S  
HETATM   20  O   UNL     1      -8.293   6.057  63.778  1.00  0.00    -0.074 OA 
HETATM   21  O   UNL     1      -7.414   3.703  63.967  1.00  0.00    -0.064 OA 
BRANCH  19  22
HETATM   22  C   UNL     1      -5.892   5.687  64.782  1.00  0.00    -0.021 C  
HETATM   23  C   UNL     1      -5.134   5.869  63.478  1.00  0.00    -0.016 C  
ENDBRANCH  19  22
ENDBRANCH  15  19
BRANCH  16  24
HETATM   24  O   UNL     1     -10.136   4.543  69.803  1.00  0.00    -0.229 OA 
HETATM   25  C   UNL     1      -9.679   3.419  70.546  1.00  0.00    -0.091 C  
ENDBRANCH  16  24
ENDBRANCH  10  13
ENDBRANCH   8   9
ENDBRANCH   7   8
ENDBRANCH   2   3
TORSDOF 7
ENDMDL
MODEL      261
REMARK 921   NORMALIZED FREE ENERGY PREDICTED BY IDOCK:   -2.73 KCAL/MOL
REMARK 922        TOTAL FREE ENERGY PREDICTED BY IDOCK:   -4.71 KCAL/MOL
REMARK 923 INTER-LIGAND FREE ENERGY PREDICTED BY IDOCK:   -3.88 KCAL/MOL
REMARK 924 INTRA-LIGAND FREE ENERGY PREDICTED BY IDOCK:   -0.83 KCAL/MOL
REMARK 927      BINDING AFFINITY PREDICTED BY RF-SCORE:    0.00 PKD
ROOT
HETATM    1  C   UNL     1     -12.004   5.980  72.677  1.00  0.00    -0.104 C  
HETATM    2  C   UNL     1     -12.353   5.845  71.198  1.00  0.00     0.963 C  
ENDROOT
BRANCH   2   3
HETATM    3  N   UNL     1     -12.343   7.137  70.500  1.00  0.00    -0.154 NA 
HETATM    4  C   UNL     1     -12.478   8.276  71.412  1.00  0.00    -0.292 C  
HETATM    5  C   UNL     1     -12.028   9.436  70.552  1.00  0.00    -0.154 C  
HETATM    6  C   UNL     1     -10.854   8.867  69.775  1.00  0.00    -0.207 C  
HETATM    7  C   UNL     1     -11.092   7.347  69.730  1.00  0.00    -0.152 C  
BRANCH   7   8
HETATM    8  C   UNL     1     -11.235   6.822  68.284  1.00  0.00    -0.058 C  
BRANCH   8   9
HETATM    9  N   UNL     1     -10.895   7.802  67.259  1.00  0.00    -0.528 N  
HETATM   10  C   UNL     1      -9.694   7.764  66.573  1.00  0.00    -0.195 C  
HETATM   11  H   UNL     1     -11.565   8.540  67.041  1.00  0.00     0.000 HD 
HETATM   12  O   UNL     1      -8.839   6.916  66.785  1.00  0.00    -0.117 OA 
BRANCH  10  13
HETATM   13  C   UNL     1      -9.471   8.853  65.573  1.00  0.00    -0.162 A  
HETATM   14  C   UNL     1     -10.250  10.023  65.706  1.00  0.00    -0.270 A  
HETATM   15  C   UNL     1     -10.015  11.134  64.888  1.00  0.00    -0.278 A  
HETATM   16  C   UNL     1      -8.456   8.821  64.598  1.00  0.00    -0.151 A  
HETATM   17  C   UNL     1      -9.010  11.107  63.929  1.00  0.00     0.002 A  
HETATM   18  C   UNL     1      -8.230   9.957  63.799  1.00  0.00    -0.158 A  
BRANCH  15  19
HETATM   19  S   UNL     1     -11.079  12.557  65.017  1.00  0.00    -0.310 S  
HETATM   20  O   UNL     1     -12.423  12.097  64.730  1.00  0.00    -0.437 OA 
HETATM   21  O   UNL     1     -10.472  13.611  64.227  1.00  0.00    -0.392 OA 
BRANCH  19  22
HETATM   22  C   UNL     1     -10.995  13.017  66.736  1.00  0.00    -0.276 C  
HETATM   23  C   UNL     1      -9.722  13.790  67.035  1.00  0.00    -0.251 C  
ENDBRANCH  19  22
ENDBRANCH  15  19
BRANCH  16  24
HETATM   24  O   UNL     1      -7.558   7.819  64.346  1.00  0.00    -0.095 OA 
HETATM   25  C   UNL     1      -7.883   6.905  63.305  1.00  0.00    -0.104 C  
ENDBRANCH  16  24
ENDBRANCH  10  13
ENDBRANCH   8   9
ENDBRANCH   7   8
ENDBRANCH   2   3
TORSDOF 7
ENDMDL
MODEL      262
REMARK 921   NORMALIZED FREE ENERGY PREDICTED BY IDOCK:   -2.70 KCAL/MOL
REMARK 922        TOTAL FREE ENERGY PREDICTED BY IDOCK:   -4.67 KCAL/MOL
REMARK 923 INTER-LIGAND FREE ENERGY PREDICTED BY IDOCK:   -3.94 KCAL/MOL
REMARK 924 INTRA-LIGAND FREE ENERGY PREDICTED BY IDOCK:   -0.73 KCAL/MOL
REMARK 927      BINDING AFFINITY PREDICTED BY RF-SCORE:    0.00 PKD
ROOT
HETATM    1  C   UNL     1      -9.907  12.030  66.144  1.00  0.00    -0.255 C  
HETATM    2  C   UNL     1      -9.821  10.511  66.042  1.00  0.00    -0.222 C  
ENDROOT
BRANCH   2   3
HETATM    3  N   UNL     1      -8.450  10.015  66.216  1.00  0.00    -0.128 NA 
HETATM    4  C   UNL     1      -7.758   9.801  64.942  1.00  0.00    -0.127 C  
HETATM    5  C   UNL     1      -6.309   9.713  65.369  1.00  0.00    -0.076 C  
HETATM    6  C   UNL     1      -6.192  10.779  66.444  1.00  0.00    -0.119 C  
HETATM    7  C   UNL     1      -7.613  10.948  67.010  1.00  0.00    -0.122 C  
BRANCH   7   8
HETATM    8  C   UNL     1      -7.684  10.613  68.517  1.00  0.00    -0.107 C  
BRANCH   8   9
HETATM    9  N   UNL     1      -8.149   9.260  68.804  1.00  0.00    -0.103 N  
HETATM   10  C   UNL     1      -9.340   9.015  69.464  1.00  0.00    -0.160 C  
HETATM   11  H   UNL     1      -7.577   8.469  68.508  1.00  0.00     0.000 HD 
HETATM   12  O   UNL     1     -10.074   9.912  69.857  1.00  0.00    -0.230 OA 
BRANCH  10  13
HETATM   13  C   UNL     1      -9.672   7.580  69.717  1.00  0.00    -0.171 A  
HETATM   14  C   UNL     1      -8.742   6.614  69.274  1.00  0.00    -0.131 A  
HETATM   15  C   UNL     1      -8.918   5.260  69.581  1.00  0.00    -0.107 A  
HETATM   16  C   UNL     1     -10.784   7.156  70.468  1.00  0.00    -0.238 A  
HETATM   17  C   UNL     1     -10.012   4.840  70.327  1.00  0.00    -0.320 A  
HETATM   18  C   UNL     1     -10.930   5.790  70.776  1.00  0.00    -0.312 A  
BRANCH  15  19
HETATM   19  S   UNL     1      -7.779   4.058  68.926  1.00  0.00    -0.053 S  
HETATM   20  O   UNL     1      -7.713   2.978  69.891  1.00  0.00    -0.044 OA 
HETATM   21  O   UNL     1      -6.582   4.778  68.538  1.00  0.00    -0.043 OA 
BRANCH  19  22
HETATM   22  C   UNL     1      -8.577   3.450  67.453  1.00  0.00    -0.107 C  
HETATM   23  C   UNL     1      -8.482   1.936  67.364  1.00  0.00    -0.095 C  
ENDBRANCH  19  22
ENDBRANCH  15  19
BRANCH  16  24
HETATM   24  O   UNL     1     -11.762   7.926  71.036  1.00  0.00    -0.283 OA 
HETATM   25  C   UNL     1     -11.782   8.003  72.457  1.00  0.00    -0.387 C  
ENDBRANCH  16  24
ENDBRANCH  10  13
ENDBRANCH   8   9
ENDBRANCH   7   8
ENDBRANCH   2   3
TORSDOF 7
ENDMDL
MODEL      263
REMARK 921   NORMALIZED FREE ENERGY PREDICTED BY IDOCK:   -2.67 KCAL/MOL
REMARK 922        TOTAL FREE ENERGY PREDICTED BY IDOCK:   -4.63 KCAL/MOL
REMARK 923 INTER-LIGAND FREE ENERGY PREDICTED BY IDOCK:   -3.68 KCAL/MOL
REMARK 924 INTRA-LIGAND FREE ENERGY PREDICTED BY IDOCK:   -0.95 KCAL/MOL
REMARK 927      BINDING AFFINITY PREDICTED BY RF-SCORE:    0.00 PKD
ROOT
HETATM    1  C   UNL     1      -7.315   5.944  64.577  1.00  0.00    -0.067 C  
HETATM    2  C   UNL     1      -8.469   6.916  64.355  1.00  0.00     0.235 C  
ENDROOT
BRANCH   2   3
HETATM    3  N   UNL     1      -8.005   8.283  64.085  1.00  0.00    -0.145 NA 
HETATM    4  C   UNL     1      -8.396   8.762  62.757  1.00  0.00    -0.192 C  
HETATM    5  C   UNL     1      -8.193  10.256  62.877  1.00  0.00    -0.161 C  
HETATM    6  C   UNL     1      -8.691  10.569  64.277  1.00  0.00    -0.184 C  
HETATM    7  C   UNL     1      -8.537   9.259  65.069  1.00  0.00    -0.177 C  
BRANCH   7   8
HETATM    8  C   UNL     1      -7.579   9.413  66.271  1.00  0.00    -0.097 C  
BRANCH   8   9
HETATM    9  N   UNL     1      -7.802   8.442  67.337  1.00  0.00    -0.098 N  
HETATM   10  C   UNL     1      -8.340   8.801  68.560  1.00  0.00    -0.129 C  
HETATM   11  H   UNL     1      -7.553   7.466  67.175  1.00  0.00     0.000 HD 
HETATM   12  O   UNL     1      -8.654   9.952  68.830  1.00  0.00    -0.122 OA 
BRANCH  10  13
HETATM   13  C   UNL     1      -8.480   7.706  69.567  1.00  0.00    -0.132 A  
HETATM   14  C   UNL     1      -9.531   7.819  70.503  1.00  0.00    -0.163 A  
HETATM   15  C   UNL     1      -9.806   6.777  71.397  1.00  0.00    -0.178 A  
HETATM   16  C   UNL     1      -7.709   6.529  69.553  1.00  0.00    -0.100 A  
HETATM   17  C   UNL     1      -9.049   5.613  71.381  1.00  0.00    -0.152 A  
HETATM   18  C   UNL     1      -8.016   5.490  70.452  1.00  0.00    -0.102 A  
BRANCH  15  19
HETATM   19  S   UNL     1     -11.075   6.993  72.628  1.00  0.00    -0.280 S  
HETATM   20  O   UNL     1     -10.448   7.643  73.762  1.00  0.00    -0.259 OA 
HETATM   21  O   UNL     1     -11.737   5.712  72.781  1.00  0.00    -0.283 OA 
BRANCH  19  22
HETATM   22  C   UNL     1     -12.221   8.137  71.885  1.00  0.00    -0.331 C  
HETATM   23  C   UNL     1     -13.537   7.455  71.551  1.00  0.00    -0.454 C  
ENDBRANCH  19  22
ENDBRANCH  15  19
BRANCH  16  24
HETATM   24  O   UNL     1      -6.693   6.195  68.698  1.00  0.00    -0.056 OA 
HETATM   25  C   UNL     1      -6.814   4.961  68.000  1.00  0.00    -0.056 C  
ENDBRANCH  16  24
ENDBRANCH  10  13
ENDBRANCH   8   9
ENDBRANCH   7   8
ENDBRANCH   2   3
TORSDOF 7
ENDMDL
MODEL      264
REMARK 921   NORMALIZED FREE ENERGY PREDICTED BY IDOCK:   -2.60 KCAL/MOL
REMARK 922        TOTAL FREE ENERGY PREDICTED BY IDOCK:   -4.53 KCAL/MOL
REMARK 923 INTER-LIGAND FREE ENERGY PREDICTED BY IDOCK:   -3.84 KCAL/MOL
REMARK 924 INTRA-LIGAND FREE ENERGY PREDICTED BY IDOCK:   -0.69 KCAL/MOL
REMARK 927      BINDING AFFINITY PREDICTED BY RF-SCORE:    0.00 PKD
ROOT
HETATM    1  C   UNL     1      -9.824   4.270  74.562  1.00  0.00    -0.183 C  
HETATM    2  C   UNL     1      -8.751   3.557  73.746  1.00  0.00    -0.088 C  
ENDROOT
BRANCH   2   3
HETATM    3  N   UNL     1      -8.118   4.440  72.759  1.00  0.00    -0.093 NA 
HETATM    4  C   UNL     1      -6.724   4.078  72.485  1.00  0.00    -0.041 C  
HETATM    5  C   UNL     1      -6.443   4.817  71.196  1.00  0.00    -0.019 C  
HETATM    6  C   UNL     1      -7.730   4.653  70.406  1.00  0.00    -0.054 C  
HETATM    7  C   UNL     1      -8.830   4.429  71.458  1.00  0.00    -0.118 C  
BRANCH   7   8
HETATM    8  C   UNL     1      -9.916   5.527  71.410  1.00  0.00    -0.186 C  
BRANCH   8   9
HETATM    9  N   UNL     1      -9.672   6.561  70.410  1.00  0.00    -0.171 N  
HETATM   10  C   UNL     1     -10.648   6.965  69.516  1.00  0.00    -0.236 C  
HETATM   11  H   UNL     1      -8.752   7.000  70.368  1.00  0.00     0.000 HD 
HETATM   12  O   UNL     1     -11.771   6.479  69.499  1.00  0.00    -0.329 OA 
BRANCH  10  13
HETATM   13  C   UNL     1     -10.244   8.011  68.527  1.00  0.00    -0.231 A  
HETATM   14  C   UNL     1      -9.425   7.602  67.452  1.00  0.00    -0.175 A  
HETATM   15  C   UNL     1      -9.107   8.492  66.419  1.00  0.00    -0.184 A  
HETATM   16  C   UNL     1     -10.730   9.332  68.546  1.00  0.00    -0.142 A  
HETATM   17  C   UNL     1      -9.590   9.795  66.433  1.00  0.00    -0.256 A  
HETATM   18  C   UNL     1     -10.407  10.202  67.487  1.00  0.00    -0.279 A  
BRANCH  15  19
HETATM   19  S   UNL     1      -7.993   7.974  65.130  1.00  0.00    -0.133 S  
HETATM   20  O   UNL     1      -8.408   6.642  64.734  1.00  0.00    -0.108 OA 
HETATM   21  O   UNL     1      -6.647   8.218  65.609  1.00  0.00    -0.051 OA 
BRANCH  19  22
HETATM   22  C   UNL     1      -8.327   9.091  63.782  1.00  0.00    -0.176 C  
HETATM   23  C   UNL     1      -8.194   8.388  62.442  1.00  0.00    -0.181 C  
ENDBRANCH  19  22
ENDBRANCH  15  19
BRANCH  16  24
HETATM   24  O   UNL     1     -11.577   9.907  69.455  1.00  0.00    -0.098 OA 
HETATM   25  C   UNL     1     -11.413  11.299  69.701  1.00  0.00    -0.309 C  
ENDBRANCH  16  24
ENDBRANCH  10  13
ENDBRANCH   8   9
ENDBRANCH   7   8
ENDBRANCH   2   3
TORSDOF 7
ENDMDL
MODEL      265
REMARK 921   NORMALIZED FREE ENERGY PREDICTED BY IDOCK:   -2.58 KCAL/MOL
REMARK 922        TOTAL FREE ENERGY PREDICTED BY IDOCK:   -4.51 KCAL/MOL
REMARK 923 INTER-LIGAND FREE ENERGY PREDICTED BY IDOCK:   -3.96 KCAL/MOL
REMARK 924 INTRA-LIGAND FREE ENERGY PREDICTED BY IDOCK:   -0.54 KCAL/MOL
REMARK 927      BINDING AFFINITY PREDICTED BY RF-SCORE:    0.00 PKD
ROOT
HETATM    1  C   UNL     1     -10.489   8.615  66.958  1.00  0.00    -0.354 C  
HETATM    2  C   UNL     1      -9.691   9.652  67.741  1.00  0.00    -0.146 C  
ENDROOT
BRANCH   2   3
HETATM    3  N   UNL     1      -8.294   9.735  67.299  1.00  0.00    -0.121 NA 
HETATM    4  C   UNL     1      -8.162  10.233  65.927  1.00  0.00    -0.148 C  
HETATM    5  C   UNL     1      -6.701  10.619  65.860  1.00  0.00    -0.116 C  
HETATM    6  C   UNL     1      -6.437  11.246  67.218  1.00  0.00    -0.085 C  
HETATM    7  C   UNL     1      -7.486  10.631  68.162  1.00  0.00    -0.090 C  
BRANCH   7   8
HETATM    8  C   UNL     1      -6.836   9.846  69.323  1.00  0.00    -0.057 C  
BRANCH   8   9
HETATM    9  N   UNL     1      -7.597   8.677  69.750  1.00  0.00    -0.077 N  
HETATM   10  C   UNL     1      -6.997   7.453  69.985  1.00  0.00    -0.060 C  
HETATM   11  H   UNL     1      -8.605   8.765  69.880  1.00  0.00     0.000 HD 
HETATM   12  O   UNL     1      -5.796   7.268  69.842  1.00  0.00    -0.023 OA 
BRANCH  10  13
HETATM   13  C   UNL     1      -7.908   6.337  70.386  1.00  0.00    -0.107 A  
HETATM   14  C   UNL     1      -8.993   6.661  71.229  1.00  0.00    -0.144 A  
HETATM   15  C   UNL     1      -9.960   5.699  71.549  1.00  0.00    -0.180 A  
HETATM   16  C   UNL     1      -7.811   5.029  69.877  1.00  0.00    -0.070 A  
HETATM   17  C   UNL     1      -9.869   4.409  71.043  1.00  0.00    -0.260 A  
HETATM   18  C   UNL     1      -8.804   4.086  70.201  1.00  0.00    -0.137 A  
BRANCH  15  19
HETATM   19  S   UNL     1     -11.261   6.113  72.691  1.00  0.00    -0.259 S  
HETATM   20  O   UNL     1     -10.694   7.045  73.647  1.00  0.00    -0.362 OA 
HETATM   21  O   UNL     1     -11.849   4.864  73.134  1.00  0.00    -0.279 OA 
BRANCH  19  22
HETATM   22  C   UNL     1     -12.460   6.983  71.700  1.00  0.00    -0.374 C  
HETATM   23  C   UNL     1     -12.291   8.487  71.831  1.00  0.00    -0.407 C  
ENDBRANCH  19  22
ENDBRANCH  15  19
BRANCH  16  24
HETATM   24  O   UNL     1      -6.881   4.528  69.006  1.00  0.00    -0.048 OA 
HETATM   25  C   UNL     1      -7.371   3.832  67.865  1.00  0.00    -0.062 C  
ENDBRANCH  16  24
ENDBRANCH  10  13
ENDBRANCH   8   9
ENDBRANCH   7   8
ENDBRANCH   2   3
TORSDOF 7
ENDMDL
MODEL      266
REMARK 921   NORMALIZED FREE ENERGY PREDICTED BY IDOCK:   -2.55 KCAL/MOL
REMARK 922        TOTAL FREE ENERGY PREDICTED BY IDOCK:   -4.46 KCAL/MOL
REMARK 923 INTER-LIGAND FREE ENERGY PREDICTED BY IDOCK:   -3.55 KCAL/MOL
REMARK 924 INTRA-LIGAND FREE ENERGY PREDICTED BY IDOCK:   -0.91 KCAL/MOL
REMARK 927      BINDING AFFINITY PREDICTED BY RF-SCORE:    0.00 PKD
ROOT
HETATM    1  C   UNL     1      -9.826   4.270  74.563  1.00  0.00    -0.183 C  
HETATM    2  C   UNL     1      -8.785   3.467  73.791  1.00  0.00    -0.088 C  
ENDROOT
BRANCH   2   3
HETATM    3  N   UNL     1      -8.050   4.288  72.821  1.00  0.00    -0.092 NA 
HETATM    4  C   UNL     1      -6.698   3.786  72.562  1.00  0.00    -0.036 C  
HETATM    5  C   UNL     1      -6.324   4.503  71.283  1.00  0.00    -0.019 C  
HETATM    6  C   UNL     1      -7.610   4.478  70.474  1.00  0.00    -0.053 C  
HETATM    7  C   UNL     1      -8.742   4.360  71.510  1.00  0.00    -0.117 C  
BRANCH   7   8
HETATM    8  C   UNL     1      -9.708   5.565  71.457  1.00  0.00    -0.156 C  
BRANCH   8   9
HETATM    9  N   UNL     1      -9.311   6.604  70.514  1.00  0.00    -0.165 N  
HETATM   10  C   UNL     1     -10.231   7.276  69.729  1.00  0.00    -0.210 C  
HETATM   11  H   UNL     1      -8.323   6.844  70.430  1.00  0.00     0.000 HD 
HETATM   12  O   UNL     1     -11.431   7.038  69.767  1.00  0.00    -0.217 OA 
BRANCH  10  13
HETATM   13  C   UNL     1      -9.676   8.293  68.785  1.00  0.00    -0.160 A  
HETATM   14  C   UNL     1     -10.438   9.463  68.573  1.00  0.00    -0.239 A  
HETATM   15  C   UNL     1      -9.930  10.516  67.802  1.00  0.00    -0.171 A  
HETATM   16  C   UNL     1      -8.398   8.201  68.201  1.00  0.00    -0.129 A  
HETATM   17  C   UNL     1      -8.667  10.429  67.230  1.00  0.00    -0.125 A  
HETATM   18  C   UNL     1      -7.906   9.280  67.444  1.00  0.00    -0.099 A  
BRANCH  15  19
HETATM   19  S   UNL     1     -10.956  11.935  67.476  1.00  0.00    -0.264 S  
HETATM   20  O   UNL     1     -11.559  11.721  66.176  1.00  0.00    -0.418 OA 
HETATM   21  O   UNL     1     -10.145  13.110  67.732  1.00  0.00    -0.217 OA 
BRANCH  19  22
HETATM   22  C   UNL     1     -12.236  11.849  68.712  1.00  0.00     0.051 C  
HETATM   23  C   UNL     1     -11.739  12.363  70.052  1.00  0.00    -0.307 C  
ENDBRANCH  19  22
ENDBRANCH  15  19
BRANCH  16  24
HETATM   24  O   UNL     1      -7.483   7.192  68.328  1.00  0.00    -0.097 OA 
HETATM   25  C   UNL     1      -6.185   7.548  68.789  1.00  0.00    -0.032 C  
ENDBRANCH  16  24
ENDBRANCH  10  13
ENDBRANCH   8   9
ENDBRANCH   7   8
ENDBRANCH   2   3
TORSDOF 7
ENDMDL
MODEL      267
REMARK 921   NORMALIZED FREE ENERGY PREDICTED BY IDOCK:   -2.49 KCAL/MOL
REMARK 922        TOTAL FREE ENERGY PREDICTED BY IDOCK:   -4.38 KCAL/MOL
REMARK 923 INTER-LIGAND FREE ENERGY PREDICTED BY IDOCK:   -3.88 KCAL/MOL
REMARK 924 INTRA-LIGAND FREE ENERGY PREDICTED BY IDOCK:   -0.50 KCAL/MOL
REMARK 927      BINDING AFFINITY PREDICTED BY RF-SCORE:    0.00 PKD
ROOT
HETATM    1  C   UNL     1     -14.409  13.891  72.442  1.00  0.00    -0.396 C  
HETATM    2  C   UNL     1     -13.143  13.835  71.594  1.00  0.00    -0.375 C  
ENDROOT
BRANCH   2   3
HETATM    3  N   UNL     1     -12.611  15.170  71.292  1.00  0.00    -0.322 NA 
HETATM    4  C   UNL     1     -12.235  15.916  72.496  1.00  0.00    -0.500 C  
HETATM    5  C   UNL     1     -11.362  17.018  71.937  1.00  0.00     0.783 C  
HETATM    6  C   UNL     1     -10.553  16.316  70.860  1.00  0.00     0.550 C  
HETATM    7  C   UNL     1     -11.405  15.110  70.429  1.00  0.00    -0.290 C  
BRANCH   7   8
HETATM    8  C   UNL     1     -11.790  15.172  68.934  1.00  0.00    -0.310 C  
BRANCH   8   9
HETATM    9  N   UNL     1     -11.489  13.953  68.192  1.00  0.00    -0.293 N  
HETATM   10  C   UNL     1     -10.317  13.242  68.385  1.00  0.00    -0.251 C  
HETATM   11  H   UNL     1     -12.165  13.612  67.508  1.00  0.00     0.000 HD 
HETATM   12  O   UNL     1      -9.456  13.593  69.180  1.00  0.00     0.167 OA 
BRANCH  10  13
HETATM   13  C   UNL     1     -10.132  12.030  67.531  1.00  0.00    -0.205 A  
HETATM   14  C   UNL     1      -9.602  10.878  68.151  1.00  0.00    -0.169 A  
HETATM   15  C   UNL     1      -9.513   9.668  67.451  1.00  0.00    -0.142 A  
HETATM   16  C   UNL     1     -10.564  11.944  66.194  1.00  0.00    -0.258 A  
HETATM   17  C   UNL     1      -9.944   9.579  66.133  1.00  0.00    -0.342 A  
HETATM   18  C   UNL     1     -10.478  10.712  65.519  1.00  0.00    -0.246 A  
BRANCH  15  19
HETATM   19  S   UNL     1      -8.752   8.260  68.231  1.00  0.00    -0.136 S  
HETATM   20  O   UNL     1      -9.581   7.113  67.919  1.00  0.00    -0.132 OA 
HETATM   21  O   UNL     1      -8.488   8.631  69.608  1.00  0.00    -0.124 OA 
BRANCH  19  22
HETATM   22  C   UNL     1      -7.194   8.075  67.386  1.00  0.00    -0.088 C  
HETATM   23  C   UNL     1      -6.157   9.042  67.930  1.00  0.00    -0.051 C  
ENDBRANCH  19  22
ENDBRANCH  15  19
BRANCH  16  24
HETATM   24  O   UNL     1     -11.155  12.916  65.433  1.00  0.00    -0.276 OA 
HETATM   25  C   UNL     1     -12.393  12.589  64.813  1.00  0.00    -0.474 C  
ENDBRANCH  16  24
ENDBRANCH  10  13
ENDBRANCH   8   9
ENDBRANCH   7   8
ENDBRANCH   2   3
TORSDOF 7
ENDMDL
MODEL      268
REMARK 921   NORMALIZED FREE ENERGY PREDICTED BY IDOCK:   -2.46 KCAL/MOL
REMARK 922        TOTAL FREE ENERGY PREDICTED BY IDOCK:   -4.34 KCAL/MOL
REMARK 923 INTER-LIGAND FREE ENERGY PREDICTED BY IDOCK:   -3.64 KCAL/MOL
REMARK 924 INTRA-LIGAND FREE ENERGY PREDICTED BY IDOCK:   -0.70 KCAL/MOL
REMARK 927      BINDING AFFINITY PREDICTED BY RF-SCORE:    0.00 PKD
ROOT
HETATM    1  C   UNL     1      -9.121   5.887  67.117  1.00  0.00    -0.113 C  
HETATM    2  C   UNL     1      -9.008   7.407  67.051  1.00  0.00    -0.130 C  
ENDROOT
BRANCH   2   3
HETATM    3  N   UNL     1      -7.675   7.888  67.433  1.00  0.00    -0.107 NA 
HETATM    4  C   UNL     1      -6.595   7.076  66.866  1.00  0.00    -0.055 C  
HETATM    5  C   UNL     1      -5.390   7.974  67.034  1.00  0.00    -0.032 C  
HETATM    6  C   UNL     1      -5.928   9.355  66.704  1.00  0.00    -0.060 C  
HETATM    7  C   UNL     1      -7.438   9.286  66.997  1.00  0.00    -0.091 C  
BRANCH   7   8
HETATM    8  C   UNL     1      -7.866  10.289  68.091  1.00  0.00    -0.104 C  
BRANCH   8   9
HETATM    9  N   UNL     1      -8.302   9.663  69.334  1.00  0.00    -0.132 N  
HETATM   10  C   UNL     1      -7.434   9.432  70.387  1.00  0.00    -0.135 C  
HETATM   11  H   UNL     1      -9.279   9.386  69.431  1.00  0.00     0.000 HD 
HETATM   12  O   UNL     1      -6.248   9.728  70.342  1.00  0.00    -0.061 OA 
BRANCH  10  13
HETATM   13  C   UNL     1      -8.016   8.754  71.585  1.00  0.00    -0.137 A  
HETATM   14  C   UNL     1      -9.291   8.165  71.439  1.00  0.00    -0.200 A  
HETATM   15  C   UNL     1      -9.849   7.406  72.474  1.00  0.00    -0.169 A  
HETATM   16  C   UNL     1      -7.318   8.569  72.793  1.00  0.00    -0.003 A  
HETATM   17  C   UNL     1      -9.160   7.218  73.666  1.00  0.00    -0.247 A  
HETATM   18  C   UNL     1      -7.895   7.789  73.812  1.00  0.00    -0.207 A  
BRANCH  15  19
HETATM   19  S   UNL     1     -11.499   6.759  72.294  1.00  0.00    -0.269 S  
HETATM   20  O   UNL     1     -12.405   7.875  72.475  1.00  0.00    -0.253 OA 
HETATM   21  O   UNL     1     -11.588   5.587  73.142  1.00  0.00    -0.239 OA 
BRANCH  19  22
HETATM   22  C   UNL     1     -11.584   6.235  70.593  1.00  0.00    -0.281 C  
HETATM   23  C   UNL     1     -10.564   5.147  70.303  1.00  0.00    -0.230 C  
ENDBRANCH  19  22
ENDBRANCH  15  19
BRANCH  16  24
HETATM   24  O   UNL     1      -6.059   9.000  73.115  1.00  0.00    -0.256 OA 
HETATM   25  C   UNL     1      -5.725   9.048  74.498  1.00  0.00    -0.127 C  
ENDBRANCH  16  24
ENDBRANCH  10  13
ENDBRANCH   8   9
ENDBRANCH   7   8
ENDBRANCH   2   3
TORSDOF 7
ENDMDL
MODEL      269
REMARK 921   NORMALIZED FREE ENERGY PREDICTED BY IDOCK:   -2.40 KCAL/MOL
REMARK 922        TOTAL FREE ENERGY PREDICTED BY IDOCK:   -4.26 KCAL/MOL
REMARK 923 INTER-LIGAND FREE ENERGY PREDICTED BY IDOCK:   -3.56 KCAL/MOL
REMARK 924 INTRA-LIGAND FREE ENERGY PREDICTED BY IDOCK:   -0.70 KCAL/MOL
REMARK 927      BINDING AFFINITY PREDICTED BY RF-SCORE:    0.00 PKD
ROOT
HETATM    1  C   UNL     1     -10.095  10.222  66.042  1.00  0.00    -0.311 C  
HETATM    2  C   UNL     1      -9.001  11.071  65.402  1.00  0.00    -0.178 C  
ENDROOT
BRANCH   2   3
HETATM    3  N   UNL     1      -8.149  10.294  64.494  1.00  0.00    -0.162 NA 
HETATM    4  C   UNL     1      -8.415  10.581  63.082  1.00  0.00    -0.167 C  
HETATM    5  C   UNL     1      -7.189  10.019  62.398  1.00  0.00    -0.135 C  
HETATM    6  C   UNL     1      -6.055  10.399  63.335  1.00  0.00    -0.114 C  
HETATM    7  C   UNL     1      -6.706  10.554  64.721  1.00  0.00     0.039 C  
BRANCH   7   8
HETATM    8  C   UNL     1      -6.120   9.565  65.754  1.00  0.00    -0.060 C  
BRANCH   8   9
HETATM    9  N   UNL     1      -7.082   8.592  66.258  1.00  0.00    -0.077 N  
HETATM   10  C   UNL     1      -7.008   7.248  65.936  1.00  0.00    -0.061 C  
HETATM   11  H   UNL     1      -7.834   8.912  66.868  1.00  0.00     0.000 HD 
HETATM   12  O   UNL     1      -6.141   6.791  65.204  1.00  0.00    -0.034 OA 
BRANCH  10  13
HETATM   13  C   UNL     1      -8.082   6.374  66.500  1.00  0.00    -0.111 A  
HETATM   14  C   UNL     1      -8.487   6.624  67.829  1.00  0.00    -0.122 A  
HETATM   15  C   UNL     1      -9.569   5.933  68.388  1.00  0.00    -0.122 A  
HETATM   16  C   UNL     1      -8.782   5.413  65.747  1.00  0.00    -0.149 A  
HETATM   17  C   UNL     1     -10.265   4.988  67.644  1.00  0.00    -0.168 A  
HETATM   18  C   UNL     1      -9.876   4.744  66.327  1.00  0.00    -0.236 A  
BRANCH  15  19
HETATM   19  S   UNL     1      -9.992   6.202  70.096  1.00  0.00    -0.181 S  
HETATM   20  O   UNL     1     -11.424   6.416  70.141  1.00  0.00    -0.385 OA 
HETATM   21  O   UNL     1      -9.077   7.206  70.605  1.00  0.00    -0.156 OA 
BRANCH  19  22
HETATM   22  C   UNL     1      -9.628   4.650  70.892  1.00  0.00    -0.179 C  
HETATM   23  C   UNL     1     -10.161   4.625  72.314  1.00  0.00    -0.256 C  
ENDBRANCH  19  22
ENDBRANCH  15  19
BRANCH  16  24
HETATM   24  O   UNL     1      -8.592   5.065  64.437  1.00  0.00    -0.139 OA 
HETATM   25  C   UNL     1      -9.622   4.307  63.812  1.00  0.00    -0.095 C  
ENDBRANCH  16  24
ENDBRANCH  10  13
ENDBRANCH   8   9
ENDBRANCH   7   8
ENDBRANCH   2   3
TORSDOF 7
ENDMDL
MODEL      270
REMARK 921   NORMALIZED FREE ENERGY PREDICTED BY IDOCK:   -2.36 KCAL/MOL
REMARK 922        TOTAL FREE ENERGY PREDICTED BY IDOCK:   -4.19 KCAL/MOL
REMARK 923 INTER-LIGAND FREE ENERGY PREDICTED BY IDOCK:   -3.70 KCAL/MOL
REMARK 924 INTRA-LIGAND FREE ENERGY PREDICTED BY IDOCK:   -0.49 KCAL/MOL
REMARK 927      BINDING AFFINITY PREDICTED BY RF-SCORE:    0.00 PKD
ROOT
HETATM    1  C   UNL     1     -10.659   8.066  66.956  1.00  0.00    -0.364 C  
HETATM    2  C   UNL     1     -10.333   9.226  67.891  1.00  0.00    -0.227 C  
ENDROOT
BRANCH   2   3
HETATM    3  N   UNL     1      -8.982   9.758  67.676  1.00  0.00    -0.128 NA 
HETATM    4  C   UNL     1      -8.825  10.397  66.367  1.00  0.00    -0.147 C  
HETATM    5  C   UNL     1      -7.556  11.200  66.546  1.00  0.00    -0.135 C  
HETATM    6  C   UNL     1      -7.681  11.749  67.957  1.00  0.00    -0.123 C  
HETATM    7  C   UNL     1      -8.608  10.768  68.696  1.00  0.00    -0.151 C  
BRANCH   7   8
HETATM    8  C   UNL     1      -7.911  10.105  69.905  1.00  0.00    -0.151 C  
BRANCH   8   9
HETATM    9  N   UNL     1      -8.390   8.760  70.203  1.00  0.00    -0.121 N  
HETATM   10  C   UNL     1      -7.708   7.628  69.794  1.00  0.00    -0.098 C  
HETATM   11  H   UNL     1      -9.255   8.650  70.732  1.00  0.00     0.000 HD 
HETATM   12  O   UNL     1      -6.668   7.680  69.150  1.00  0.00    -0.046 OA 
BRANCH  10  13
HETATM   13  C   UNL     1      -8.335   6.317  70.144  1.00  0.00    -0.129 A  
HETATM   14  C   UNL     1      -8.911   6.198  71.428  1.00  0.00    -0.139 A  
HETATM   15  C   UNL     1      -9.624   5.048  71.786  1.00  0.00    -0.154 A  
HETATM   16  C   UNL     1      -8.485   5.255  69.232  1.00  0.00    -0.101 A  
HETATM   17  C   UNL     1      -9.778   4.001  70.886  1.00  0.00    -0.257 A  
HETATM   18  C   UNL     1      -9.220   4.117  69.613  1.00  0.00    -0.210 A  
BRANCH  15  19
HETATM   19  S   UNL     1     -10.254   4.891  73.445  1.00  0.00    -0.190 S  
HETATM   20  O   UNL     1     -11.066   3.691  73.468  1.00  0.00    -0.222 OA 
HETATM   21  O   UNL     1     -10.821   6.176  73.805  1.00  0.00    -0.220 OA 
BRANCH  19  22
HETATM   22  C   UNL     1      -8.806   4.610  74.443  1.00  0.00    -0.108 C  
HETATM   23  C   UNL     1      -7.865   3.621  73.778  1.00  0.00    -0.071 C  
ENDBRANCH  19  22
ENDBRANCH  15  19
BRANCH  16  24
HETATM   24  O   UNL     1      -8.060   5.192  67.933  1.00  0.00    -0.098 OA 
HETATM   25  C   UNL     1      -8.999   4.736  66.966  1.00  0.00    -0.111 C  
ENDBRANCH  16  24
ENDBRANCH  10  13
ENDBRANCH   8   9
ENDBRANCH   7   8
ENDBRANCH   2   3
TORSDOF 7
ENDMDL
MODEL      271
REMARK 921   NORMALIZED FREE ENERGY PREDICTED BY IDOCK:   -2.06 KCAL/MOL
REMARK 922        TOTAL FREE ENERGY PREDICTED BY IDOCK:   -3.78 KCAL/MOL
REMARK 923 INTER-LIGAND FREE ENERGY PREDICTED BY IDOCK:   -3.70 KCAL/MOL
REMARK 924 INTRA-LIGAND FREE ENERGY PREDICTED BY IDOCK:   -0.08 KCAL/MOL
REMARK 927      BINDING AFFINITY PREDICTED BY RF-SCORE:    0.00 PKD
ROOT
HETATM    1  C   UNL     1     -11.596  12.777  64.126  1.00  0.00    -0.456 C  
HETATM    2  C   UNL     1     -11.318  12.883  65.621  1.00  0.00    -0.311 C  
ENDROOT
BRANCH   2   3
HETATM    3  N   UNL     1     -10.650  11.689  66.152  1.00  0.00    -0.253 NA 
HETATM    4  C   UNL     1     -11.213  10.442  65.627  1.00  0.00     0.827 C  
HETATM    5  C   UNL     1     -10.138   9.432  65.963  1.00  0.00    -0.302 C  
HETATM    6  C   UNL     1      -8.847  10.182  65.685  1.00  0.00    -0.185 C  
HETATM    7  C   UNL     1      -9.199  11.672  65.839  1.00  0.00    -0.196 C  
BRANCH   7   8
HETATM    8  C   UNL     1      -8.381  12.352  66.959  1.00  0.00    -0.157 C  
BRANCH   8   9
HETATM    9  N   UNL     1      -8.499  13.806  66.982  1.00  0.00    -0.371 N  
HETATM   10  C   UNL     1      -8.808  14.501  68.138  1.00  0.00    -0.177 C  
HETATM   11  H   UNL     1      -8.349  14.327  66.118  1.00  0.00     0.000 HD 
HETATM   12  O   UNL     1      -9.010  13.945  69.209  1.00  0.00     0.271 OA 
BRANCH  10  13
HETATM   13  C   UNL     1      -8.927  15.985  68.004  1.00  0.00    -0.187 A  
HETATM   14  C   UNL     1      -7.735  16.738  68.075  1.00  0.00    -0.174 A  
HETATM   15  C   UNL     1      -7.747  18.118  67.836  1.00  0.00    -0.235 A  
HETATM   16  C   UNL     1     -10.130  16.646  67.695  1.00  0.00    -0.272 A  
HETATM   17  C   UNL     1      -8.933  18.772  67.525  1.00  0.00    -0.291 A  
HETATM   18  C   UNL     1     -10.112  18.031  67.444  1.00  0.00    -0.354 A  
BRANCH  15  19
HETATM   19  S   UNL     1      -6.244  19.052  68.028  1.00  0.00    -0.217 S  
HETATM   20  O   UNL     1      -6.541  20.408  67.611  1.00  0.00    -0.239 OA 
HETATM   21  O   UNL     1      -5.189  18.294  67.385  1.00  0.00    -0.137 OA 
BRANCH  19  22
HETATM   22  C   UNL     1      -5.947  19.056  69.786  1.00  0.00    -0.262 C  
HETATM   23  C   UNL     1      -5.861  20.474  70.324  1.00  0.00    -0.306 C  
ENDBRANCH  19  22
ENDBRANCH  15  19
BRANCH  16  24
HETATM   24  O   UNL     1     -11.373  16.101  67.521  1.00  0.00    -0.164 OA 
HETATM   25  C   UNL     1     -11.721  15.688  66.205  1.00  0.00     0.451 C  
ENDBRANCH  16  24
ENDBRANCH  10  13
ENDBRANCH   8   9
ENDBRANCH   7   8
ENDBRANCH   2   3
TORSDOF 7
ENDMDL
MODEL      272
REMARK 921   NORMALIZED FREE ENERGY PREDICTED BY IDOCK:   -2.01 KCAL/MOL
REMARK 922        TOTAL FREE ENERGY PREDICTED BY IDOCK:   -3.70 KCAL/MOL
REMARK 923 INTER-LIGAND FREE ENERGY PREDICTED BY IDOCK:   -4.49 KCAL/MOL
REMARK 924 INTRA-LIGAND FREE ENERGY PREDICTED BY IDOCK:    0.79 KCAL/MOL
REMARK 927      BINDING AFFINITY PREDICTED BY RF-SCORE:    0.00 PKD
ROOT
HETATM    1  C   UNL     1     -10.054   9.007  67.220  1.00  0.00    -0.297 C  
HETATM    2  C   UNL     1      -8.932   9.879  66.668  1.00  0.00    -0.139 C  
ENDROOT
BRANCH   2   3
HETATM    3  N   UNL     1      -9.401  11.211  66.270  1.00  0.00    -0.189 NA 
HETATM    4  C   UNL     1     -10.032  11.219  64.947  1.00  0.00    -0.274 C  
HETATM    5  C   UNL     1     -10.777  12.535  64.949  1.00  0.00    -0.327 C  
HETATM    6  C   UNL     1     -11.332  12.625  66.360  1.00  0.00    -0.381 C  
HETATM    7  C   UNL     1     -10.395  11.763  67.224  1.00  0.00    -0.206 C  
BRANCH   7   8
HETATM    8  C   UNL     1      -9.703  12.586  68.333  1.00  0.00    -0.189 C  
BRANCH   8   9
HETATM    9  N   UNL     1      -9.536  13.999  68.009  1.00  0.00    -0.210 N  
HETATM   10  C   UNL     1      -9.342  14.960  68.985  1.00  0.00    -0.179 C  
HETATM   11  H   UNL     1      -9.563  14.287  67.031  1.00  0.00     0.000 HD 
HETATM   12  O   UNL     1      -9.307  14.692  70.178  1.00  0.00     0.513 OA 
BRANCH  10  13
HETATM   13  C   UNL     1      -9.219  16.371  68.506  1.00  0.00    -0.226 A  
HETATM   14  C   UNL     1      -7.915  16.890  68.354  1.00  0.00    -0.232 A  
HETATM   15  C   UNL     1      -7.713  18.158  67.794  1.00  0.00    -0.227 A  
HETATM   16  C   UNL     1     -10.314  17.153  68.092  1.00  0.00    -0.350 A  
HETATM   17  C   UNL     1      -8.791  18.929  67.379  1.00  0.00    -0.293 A  
HETATM   18  C   UNL     1     -10.082  18.417  67.518  1.00  0.00    -0.373 A  
BRANCH  15  19
HETATM   19  S   UNL     1      -6.062  18.821  67.705  1.00  0.00    -0.194 S  
HETATM   20  O   UNL     1      -6.135  20.182  68.200  1.00  0.00    -0.229 OA 
HETATM   21  O   UNL     1      -5.567  18.544  66.371  1.00  0.00    -0.142 OA 
BRANCH  19  22
HETATM   22  C   UNL     1      -5.131  17.847  68.870  1.00  0.00    -0.165 C  
HETATM   23  C   UNL     1      -6.021  17.327  69.985  1.00  0.00    -0.186 C  
ENDBRANCH  19  22
ENDBRANCH  15  19
BRANCH  16  24
HETATM   24  O   UNL     1     -11.641  16.818  68.097  1.00  0.00    -0.040 OA 
HETATM   25  C   UNL     1     -12.147  16.194  69.272  1.00  0.00     0.039 C  
ENDBRANCH  16  24
ENDBRANCH  10  13
ENDBRANCH   8   9
ENDBRANCH   7   8
ENDBRANCH   2   3
TORSDOF 7
ENDMDL
MODEL      273
REMARK 921   NORMALIZED FREE ENERGY PREDICTED BY IDOCK:   -1.88 KCAL/MOL
REMARK 922        TOTAL FREE ENERGY PREDICTED BY IDOCK:   -3.51 KCAL/MOL
REMARK 923 INTER-LIGAND FREE ENERGY PREDICTED BY IDOCK:   -2.75 KCAL/MOL
REMARK 924 INTRA-LIGAND FREE ENERGY PREDICTED BY IDOCK:   -0.76 KCAL/MOL
REMARK 927      BINDING AFFINITY PREDICTED BY RF-SCORE:    0.00 PKD
ROOT
HETATM    1  C   UNL     1     -11.480  13.055  63.815  1.00  0.00    -0.486 C  
HETATM    2  C   UNL     1     -10.800  12.991  65.178  1.00  0.00    -0.300 C  
ENDROOT
BRANCH   2   3
HETATM    3  N   UNL     1     -10.239  11.665  65.463  1.00  0.00    -0.249 NA 
HETATM    4  C   UNL     1     -10.897  10.596  64.706  1.00  0.00     0.175 C  
HETATM    5  C   UNL     1      -9.914   9.453  64.834  1.00  0.00     0.440 C  
HETATM    6  C   UNL     1      -8.562  10.133  64.701  1.00  0.00    -0.193 C  
HETATM    7  C   UNL     1      -8.792  11.589  65.144  1.00  0.00     0.197 C  
BRANCH   7   8
HETATM    8  C   UNL     1      -7.933  11.967  66.372  1.00  0.00     0.131 C  
BRANCH   8   9
HETATM    9  N   UNL     1      -7.877  13.399  66.640  1.00  0.00    -0.103 N  
HETATM   10  C   UNL     1      -7.828  13.906  67.927  1.00  0.00    -0.161 C  
HETATM   11  H   UNL     1      -7.875  14.049  65.854  1.00  0.00     0.000 HD 
HETATM   12  O   UNL     1      -7.836  13.191  68.919  1.00  0.00    -0.028 OA 
BRANCH  10  13
HETATM   13  C   UNL     1      -7.807  15.396  68.049  1.00  0.00    -0.133 A  
HETATM   14  C   UNL     1      -9.013  16.083  67.790  1.00  0.00    -0.188 A  
HETATM   15  C   UNL     1      -9.108  17.463  68.002  1.00  0.00    -0.259 A  
HETATM   16  C   UNL     1      -6.699  16.125  68.519  1.00  0.00    -0.126 A  
HETATM   17  C   UNL     1      -8.017  18.184  68.471  1.00  0.00    -0.312 A  
HETATM   18  C   UNL     1      -6.826  17.510  68.739  1.00  0.00    -0.233 A  
BRANCH  15  19
HETATM   19  S   UNL     1     -10.614  18.313  67.573  1.00  0.00    -0.360 S  
HETATM   20  O   UNL     1     -10.574  19.594  68.249  1.00  0.00    -0.390 OA 
HETATM   21  O   UNL     1     -11.703  17.386  67.807  1.00  0.00     0.602 OA 
BRANCH  19  22
HETATM   22  C   UNL     1     -10.477  18.596  65.819  1.00  0.00    -0.256 C  
HETATM   23  C   UNL     1     -10.536  20.079  65.498  1.00  0.00    -0.300 C  
ENDBRANCH  19  22
ENDBRANCH  15  19
BRANCH  16  24
HETATM   24  O   UNL     1      -5.468  15.650  68.884  1.00  0.00    -0.101 OA 
HETATM   25  C   UNL     1      -5.281  15.323  70.256  1.00  0.00    -0.120 C  
ENDBRANCH  16  24
ENDBRANCH  10  13
ENDBRANCH   8   9
ENDBRANCH   7   8
ENDBRANCH   2   3
TORSDOF 7
ENDMDL
MODEL      274
REMARK 921   NORMALIZED FREE ENERGY PREDICTED BY IDOCK:   -1.68 KCAL/MOL
REMARK 922        TOTAL FREE ENERGY PREDICTED BY IDOCK:   -3.23 KCAL/MOL
REMARK 923 INTER-LIGAND FREE ENERGY PREDICTED BY IDOCK:   -3.01 KCAL/MOL
REMARK 924 INTRA-LIGAND FREE ENERGY PREDICTED BY IDOCK:   -0.22 KCAL/MOL
REMARK 927      BINDING AFFINITY PREDICTED BY RF-SCORE:    0.00 PKD
ROOT
HETATM    1  C   UNL     1      -9.482   9.669  64.281  1.00  0.00    -0.089 C  
HETATM    2  C   UNL     1      -8.230  10.371  64.796  1.00  0.00    -0.141 C  
ENDROOT
BRANCH   2   3
HETATM    3  N   UNL     1      -7.301   9.446  65.456  1.00  0.00    -0.087 NA 
HETATM    4  C   UNL     1      -5.921   9.939  65.464  1.00  0.00    -0.076 C  
HETATM    5  C   UNL     1      -5.271   9.070  66.518  1.00  0.00    -0.034 C  
HETATM    6  C   UNL     1      -6.337   8.961  67.594  1.00  0.00    -0.056 C  
HETATM    7  C   UNL     1      -7.675   9.188  66.868  1.00  0.00    -0.098 C  
BRANCH   7   8
HETATM    8  C   UNL     1      -8.614   7.967  66.980  1.00  0.00    -0.128 C  
BRANCH   8   9
HETATM    9  N   UNL     1      -8.792   7.476  68.342  1.00  0.00    -0.126 N  
HETATM   10  C   UNL     1      -9.572   6.370  68.630  1.00  0.00    -0.120 C  
HETATM   11  H   UNL     1      -8.324   7.963  69.107  1.00  0.00     0.000 HD 
HETATM   12  O   UNL     1     -10.170   5.741  67.768  1.00  0.00    -0.158 OA 
BRANCH  10  13
HETATM   13  C   UNL     1      -9.688   6.003  70.074  1.00  0.00    -0.202 A  
HETATM   14  C   UNL     1      -9.335   4.684  70.436  1.00  0.00    -0.216 A  
HETATM   15  C   UNL     1      -9.298   4.298  71.781  1.00  0.00    -0.137 A  
HETATM   16  C   UNL     1     -10.008   6.922  71.091  1.00  0.00    -0.177 A  
HETATM   17  C   UNL     1      -9.607   5.206  72.787  1.00  0.00    -0.165 A  
HETATM   18  C   UNL     1      -9.947   6.513  72.437  1.00  0.00    -0.183 A  
BRANCH  15  19
HETATM   19  S   UNL     1      -8.944   2.603  72.196  1.00  0.00    -0.085 S  
HETATM   20  O   UNL     1      -9.711   1.783  71.281  1.00  0.00    -0.133 OA 
HETATM   21  O   UNL     1      -9.116   2.474  73.630  1.00  0.00    -0.079 OA 
BRANCH  19  22
HETATM   22  C   UNL     1      -7.214   2.407  71.814  1.00  0.00    -0.039 C  
HETATM   23  C   UNL     1      -7.022   1.880  70.402  1.00  0.00    -0.033 C  
ENDBRANCH  19  22
ENDBRANCH  15  19
BRANCH  16  24
HETATM   24  O   UNL     1     -10.315   8.250  70.963  1.00  0.00    -0.187 OA 
HETATM   25  C   UNL     1      -9.234   9.146  70.739  1.00  0.00    -0.262 C  
ENDBRANCH  16  24
ENDBRANCH  10  13
ENDBRANCH   8   9
ENDBRANCH   7   8
ENDBRANCH   2   3
TORSDOF 7
ENDMDL
MODEL      275
REMARK 921   NORMALIZED FREE ENERGY PREDICTED BY IDOCK:   -1.52 KCAL/MOL
REMARK 922        TOTAL FREE ENERGY PREDICTED BY IDOCK:   -3.01 KCAL/MOL
REMARK 923 INTER-LIGAND FREE ENERGY PREDICTED BY IDOCK:   -2.65 KCAL/MOL
REMARK 924 INTRA-LIGAND FREE ENERGY PREDICTED BY IDOCK:   -0.36 KCAL/MOL
REMARK 927      BINDING AFFINITY PREDICTED BY RF-SCORE:    0.00 PKD
ROOT
HETATM    1  C   UNL     1     -12.127   6.079  73.047  1.00  0.00     0.464 C  
HETATM    2  C   UNL     1     -11.230   6.565  71.913  1.00  0.00    -0.272 C  
ENDROOT
BRANCH   2   3
HETATM    3  N   UNL     1     -11.780   7.741  71.228  1.00  0.00    -0.283 NA 
HETATM    4  C   UNL     1     -12.218   8.786  72.157  1.00  0.00    -0.378 C  
HETATM    5  C   UNL     1     -12.334   9.996  71.256  1.00  0.00    -0.496 C  
HETATM    6  C   UNL     1     -11.133   9.867  70.335  1.00  0.00    -0.382 C  
HETATM    7  C   UNL     1     -10.796   8.366  70.310  1.00  0.00    -0.239 C  
BRANCH   7   8
HETATM    8  C   UNL     1     -10.905   7.767  68.889  1.00  0.00     0.006 C  
BRANCH   8   9
HETATM    9  N   UNL     1      -9.626   7.637  68.200  1.00  0.00    -0.148 N  
HETATM   10  C   UNL     1      -8.934   8.734  67.718  1.00  0.00    -0.135 C  
HETATM   11  H   UNL     1      -9.228   6.707  68.069  1.00  0.00     0.000 HD 
HETATM   12  O   UNL     1      -9.351   9.879  67.830  1.00  0.00    -0.140 OA 
BRANCH  10  13
HETATM   13  C   UNL     1      -7.652   8.445  67.005  1.00  0.00    -0.092 A  
HETATM   14  C   UNL     1      -7.675   7.434  66.020  1.00  0.00    -0.095 A  
HETATM   15  C   UNL     1      -6.550   7.189  65.223  1.00  0.00    -0.047 A  
HETATM   16  C   UNL     1      -6.476   9.198  67.177  1.00  0.00    -0.060 A  
HETATM   17  C   UNL     1      -5.390   7.935  65.387  1.00  0.00    -0.029 A  
HETATM   18  C   UNL     1      -5.365   8.942  66.352  1.00  0.00    -0.034 A  
BRANCH  15  19
HETATM   19  S   UNL     1      -6.581   5.843  64.057  1.00  0.00    -0.038 S  
HETATM   20  O   UNL     1      -6.011   6.349  62.824  1.00  0.00    -0.026 OA 
HETATM   21  O   UNL     1      -7.921   5.292  64.082  1.00  0.00    -0.098 OA 
BRANCH  19  22
HETATM   22  C   UNL     1      -5.460   4.639  64.742  1.00  0.00    -0.013 C  
HETATM   23  C   UNL     1      -6.208   3.410  65.230  1.00  0.00    -0.024 C  
ENDBRANCH  19  22
ENDBRANCH  15  19
BRANCH  16  24
HETATM   24  O   UNL     1      -6.264  10.251  68.025  1.00  0.00    -0.055 OA 
HETATM   25  C   UNL     1      -5.746   9.949  69.316  1.00  0.00    -0.034 C  
ENDBRANCH  16  24
ENDBRANCH  10  13
ENDBRANCH   8   9
ENDBRANCH   7   8
ENDBRANCH   2   3
TORSDOF 7
ENDMDL
MODEL      276
REMARK 921   NORMALIZED FREE ENERGY PREDICTED BY IDOCK:   -1.22 KCAL/MOL
REMARK 922        TOTAL FREE ENERGY PREDICTED BY IDOCK:   -2.59 KCAL/MOL
REMARK 923 INTER-LIGAND FREE ENERGY PREDICTED BY IDOCK:   -1.52 KCAL/MOL
REMARK 924 INTRA-LIGAND FREE ENERGY PREDICTED BY IDOCK:   -1.07 KCAL/MOL
REMARK 927      BINDING AFFINITY PREDICTED BY RF-SCORE:    0.00 PKD
ROOT
HETATM    1  C   UNL     1      -8.063  18.103  69.122  1.00  0.00     0.053 C  
HETATM    2  C   UNL     1      -8.565  16.680  69.341  1.00  0.00     0.138 C  
ENDROOT
BRANCH   2   3
HETATM    3  N   UNL     1      -8.957  16.024  68.088  1.00  0.00    -0.181 NA 
HETATM    4  C   UNL     1     -10.086  16.687  67.429  1.00  0.00    -0.274 C  
HETATM    5  C   UNL     1     -10.023  16.121  66.028  1.00  0.00    -0.373 C  
HETATM    6  C   UNL     1      -8.535  16.074  65.731  1.00  0.00     0.463 C  
HETATM    7  C   UNL     1      -7.847  15.985  67.105  1.00  0.00    -0.209 C  
BRANCH   7   8
HETATM    8  C   UNL     1      -7.014  14.693  67.258  1.00  0.00     0.053 C  
BRANCH   8   9
HETATM    9  N   UNL     1      -7.787  13.537  67.699  1.00  0.00    -0.161 N  
HETATM   10  C   UNL     1      -8.412  12.685  66.806  1.00  0.00    -0.049 C  
HETATM   11  H   UNL     1      -7.868  13.350  68.698  1.00  0.00     0.000 HD 
HETATM   12  O   UNL     1      -8.367  12.849  65.594  1.00  0.00     1.302 OA 
BRANCH  10  13
HETATM   13  C   UNL     1      -9.195  11.561  67.404  1.00  0.00    -0.166 A  
HETATM   14  C   UNL     1      -8.487  10.630  68.196  1.00  0.00    -0.122 A  
HETATM   15  C   UNL     1      -9.167   9.621  68.890  1.00  0.00    -0.147 A  
HETATM   16  C   UNL     1     -10.596  11.454  67.320  1.00  0.00    -0.227 A  
HETATM   17  C   UNL     1     -10.550   9.517  68.813  1.00  0.00    -0.240 A  
HETATM   18  C   UNL     1     -11.255  10.440  68.040  1.00  0.00    -0.340 A  
BRANCH  15  19
HETATM   19  S   UNL     1      -8.236   8.407  69.801  1.00  0.00    -0.121 S  
HETATM   20  O   UNL     1      -9.087   7.240  69.927  1.00  0.00    -0.142 OA 
HETATM   21  O   UNL     1      -7.711   9.071  70.977  1.00  0.00    -0.118 OA 
BRANCH  19  22
HETATM   22  C   UNL     1      -6.875   7.997  68.726  1.00  0.00    -0.062 C  
HETATM   23  C   UNL     1      -7.320   7.075  67.604  1.00  0.00    -0.096 C  
ENDBRANCH  19  22
ENDBRANCH  15  19
BRANCH  16  24
HETATM   24  O   UNL     1     -11.468  12.279  66.663  1.00  0.00    -0.335 OA 
HETATM   25  C   UNL     1     -11.772  11.955  65.311  1.00  0.00    -0.169 C  
ENDBRANCH  16  24
ENDBRANCH  10  13
ENDBRANCH   8   9
ENDBRANCH   7   8
ENDBRANCH   2   3
TORSDOF 7
ENDMDL
MODEL      277
REMARK 921   NORMALIZED FREE ENERGY PREDICTED BY IDOCK:   -0.74 KCAL/MOL
REMARK 922        TOTAL FREE ENERGY PREDICTED BY IDOCK:   -1.92 KCAL/MOL
REMARK 923 INTER-LIGAND FREE ENERGY PREDICTED BY IDOCK:   -2.18 KCAL/MOL
REMARK 924 INTRA-LIGAND FREE ENERGY PREDICTED BY IDOCK:    0.26 KCAL/MOL
REMARK 927      BINDING AFFINITY PREDICTED BY RF-SCORE:    0.00 PKD
ROOT
HETATM    1  C   UNL     1      -7.424   5.516  65.919  1.00  0.00    -0.082 C  
HETATM    2  C   UNL     1      -7.596   6.946  65.417  1.00  0.00    -0.093 C  
ENDROOT
BRANCH   2   3
HETATM    3  N   UNL     1      -6.374   7.474  64.798  1.00  0.00    -0.038 NA 
HETATM    4  C   UNL     1      -6.414   7.424  63.334  1.00  0.00    -0.053 C  
HETATM    5  C   UNL     1      -5.296   8.366  62.945  1.00  0.00    -0.068 C  
HETATM    6  C   UNL     1      -5.426   9.502  63.946  1.00  0.00    -0.067 C  
HETATM    7  C   UNL     1      -6.120   8.886  65.174  1.00  0.00    -0.060 C  
BRANCH   7   8
HETATM    8  C   UNL     1      -5.244   8.974  66.444  1.00  0.00    -0.033 C  
BRANCH   8   9
HETATM    9  N   UNL     1      -5.628  10.043  67.359  1.00  0.00    -0.042 N  
HETATM   10  C   UNL     1      -5.810  11.347  66.933  1.00  0.00    -0.121 C  
HETATM   11  H   UNL     1      -5.767   9.822  68.345  1.00  0.00     0.000 HD 
HETATM   12  O   UNL     1      -5.653  11.689  65.769  1.00  0.00    -0.098 OA 
BRANCH  10  13
HETATM   13  C   UNL     1      -6.171  12.341  67.989  1.00  0.00    -0.073 A  
HETATM   14  C   UNL     1      -6.964  13.442  67.596  1.00  0.00    -0.168 A  
HETATM   15  C   UNL     1      -7.447  14.349  68.546  1.00  0.00    -0.122 A  
HETATM   16  C   UNL     1      -5.870  12.175  69.353  1.00  0.00    -0.087 A  
HETATM   17  C   UNL     1      -7.155  14.184  69.895  1.00  0.00     0.170 A  
HETATM   18  C   UNL     1      -6.381  13.093  70.290  1.00  0.00     0.092 A  
BRANCH  15  19
HETATM   19  S   UNL     1      -8.361  15.778  68.006  1.00  0.00    -0.154 S  
HETATM   20  O   UNL     1      -8.758  16.494  69.202  1.00  0.00    -0.232 OA 
HETATM   21  O   UNL     1      -9.354  15.311  67.059  1.00  0.00    -0.208 OA 
BRANCH  19  22
HETATM   22  C   UNL     1      -7.163  16.765  67.130  1.00  0.00    -0.185 C  
HETATM   23  C   UNL     1      -7.831  17.915  66.397  1.00  0.00    -0.307 C  
ENDBRANCH  19  22
ENDBRANCH  15  19
BRANCH  16  24
HETATM   24  O   UNL     1      -5.175  11.156  69.947  1.00  0.00    -0.045 OA 
HETATM   25  C   UNL     1      -5.937  10.093  70.507  1.00  0.00    -0.099 C  
ENDBRANCH  16  24
ENDBRANCH  10  13
ENDBRANCH   8   9
ENDBRANCH   7   8
ENDBRANCH   2   3
TORSDOF 7
ENDMDL
MODEL      278
REMARK 921   NORMALIZED FREE ENERGY PREDICTED BY IDOCK:    7.25 KCAL/MOL
REMARK 922        TOTAL FREE ENERGY PREDICTED BY IDOCK:    9.34 KCAL/MOL
REMARK 923 INTER-LIGAND FREE ENERGY PREDICTED BY IDOCK:    3.06 KCAL/MOL
REMARK 924 INTRA-LIGAND FREE ENERGY PREDICTED BY IDOCK:    6.28 KCAL/MOL
REMARK 927      BINDING AFFINITY PREDICTED BY RF-SCORE:    0.00 PKD
ROOT
HETATM    1  C   UNL     1      -9.005  13.957  63.856  1.00  0.00     6.533 C  
HETATM    2  C   UNL     1      -9.886  13.232  64.869  1.00  0.00    -0.016 C  
ENDROOT
BRANCH   2   3
HETATM    3  N   UNL     1     -10.169  14.052  66.053  1.00  0.00    -0.295 NA 
HETATM    4  C   UNL     1     -10.087  15.489  65.781  1.00  0.00    -0.360 C  
HETATM    5  C   UNL     1     -10.803  16.087  66.973  1.00  0.00    -0.227 C  
HETATM    6  C   UNL     1     -11.970  15.142  67.196  1.00  0.00     0.074 C  
HETATM    7  C   UNL     1     -11.523  13.794  66.603  1.00  0.00    -0.345 C  
BRANCH   7   8
HETATM    8  C   UNL     1     -11.486  12.672  67.665  1.00  0.00    -0.334 C  
BRANCH   8   9
HETATM    9  N   UNL     1     -10.412  11.705  67.472  1.00  0.00    -0.195 N  
HETATM   10  C   UNL     1     -10.029  11.270  66.216  1.00  0.00    -0.221 C  
HETATM   11  H   UNL     1      -9.926  11.337  68.291  1.00  0.00     0.000 HD 
HETATM   12  O   UNL     1     -10.570  11.660  65.189  1.00  0.00    -0.271 OA 
BRANCH  10  13
HETATM   13  C   UNL     1      -8.935  10.253  66.174  1.00  0.00    -0.174 A  
HETATM   14  C   UNL     1      -8.758   9.543  64.967  1.00  0.00    -0.205 A  
HETATM   15  C   UNL     1      -7.680   8.664  64.807  1.00  0.00    -0.108 A  
HETATM   16  C   UNL     1      -8.011  10.057  67.218  1.00  0.00    -0.106 A  
HETATM   17  C   UNL     1      -6.764   8.474  65.833  1.00  0.00    -0.057 A  
HETATM   18  C   UNL     1      -6.927   9.180  67.025  1.00  0.00    -0.081 A  
BRANCH  15  19
HETATM   19  S   UNL     1      -7.542   7.713  63.308  1.00  0.00    -0.124 S  
HETATM   20  O   UNL     1      -8.748   7.964  62.544  1.00  0.00     0.014 OA 
HETATM   21  O   UNL     1      -7.178   6.364  63.695  1.00  0.00    -0.050 OA 
BRANCH  19  22
HETATM   22  C   UNL     1      -6.166   8.445  62.445  1.00  0.00    -0.088 C  
HETATM   23  C   UNL     1      -5.817   9.805  63.024  1.00  0.00    -0.105 C  
ENDBRANCH  19  22
ENDBRANCH  15  19
BRANCH  16  24
HETATM   24  O   UNL     1      -7.966  10.683  68.434  1.00  0.00    -0.109 OA 
HETATM   25  C   UNL     1      -6.977  11.691  68.607  1.00  0.00    -0.088 C  
ENDBRANCH  16  24
ENDBRANCH  10  13
ENDBRANCH   8   9
ENDBRANCH   7   8
ENDBRANCH   2   3
TORSDOF 7
ENDMDL
MODEL      279
REMARK 921   NORMALIZED FREE ENERGY PREDICTED BY IDOCK:   14.99 KCAL/MOL
REMARK 922        TOTAL FREE ENERGY PREDICTED BY IDOCK:   20.26 KCAL/MOL
REMARK 923 INTER-LIGAND FREE ENERGY PREDICTED BY IDOCK:   16.72 KCAL/MOL
REMARK 924 INTRA-LIGAND FREE ENERGY PREDICTED BY IDOCK:    3.53 KCAL/MOL
REMARK 927      BINDING AFFINITY PREDICTED BY RF-SCORE:    0.00 PKD
ROOT
HETATM    1  C   UNL     1      -5.568  18.518  72.941  1.00  0.00     3.483 C  
HETATM    2  C   UNL     1      -6.675  18.945  71.983  1.00  0.00     2.811 C  
ENDROOT
BRANCH   2   3
HETATM    3  N   UNL     1      -6.640  18.201  70.719  1.00  0.00     1.285 NA 
HETATM    4  C   UNL     1      -5.276  17.927  70.258  1.00  0.00    -0.246 C  
HETATM    5  C   UNL     1      -5.492  16.839  69.230  1.00  0.00    -0.142 C  
HETATM    6  C   UNL     1      -6.566  15.968  69.856  1.00  0.00    -0.079 C  
HETATM    7  C   UNL     1      -7.331  16.892  70.820  1.00  0.00     3.536 C  
BRANCH   7   8
HETATM    8  C   UNL     1      -8.824  17.021  70.443  1.00  0.00     3.221 C  
BRANCH   8   9
HETATM    9  N   UNL     1      -9.148  16.510  69.115  1.00  0.00    -0.229 N  
HETATM   10  C   UNL     1      -8.979  15.179  68.777  1.00  0.00    -0.197 C  
HETATM   11  H   UNL     1      -9.511  17.155  68.414  1.00  0.00     0.000 HD 
HETATM   12  O   UNL     1      -8.541  14.349  69.562  1.00  0.00     0.195 OA 
BRANCH  10  13
HETATM   13  C   UNL     1      -9.323  14.807  67.371  1.00  0.00    -0.199 A  
HETATM   14  C   UNL     1      -8.733  13.635  66.850  1.00  0.00    -0.162 A  
HETATM   15  C   UNL     1      -9.099  13.152  65.588  1.00  0.00     0.573 A  
HETATM   16  C   UNL     1     -10.282  15.486  66.596  1.00  0.00    -0.276 A  
HETATM   17  C   UNL     1     -10.049  13.817  64.823  1.00  0.00    -0.259 A  
HETATM   18  C   UNL     1     -10.642  14.971  65.336  1.00  0.00    -0.398 A  
BRANCH  15  19
HETATM   19  S   UNL     1      -8.265  11.726  64.921  1.00  0.00     1.617 S  
HETATM   20  O   UNL     1      -7.582  11.089  66.029  1.00  0.00    -0.129 OA 
HETATM   21  O   UNL     1      -7.529  12.173  63.755  1.00  0.00     3.441 OA 
BRANCH  19  22
HETATM   22  C   UNL     1      -9.584  10.655  64.383  1.00  0.00    -0.295 C  
HETATM   23  C   UNL     1      -9.350  10.170  62.962  1.00  0.00    -0.330 C  
ENDBRANCH  19  22
ENDBRANCH  15  19
BRANCH  16  24
HETATM   24  O   UNL     1     -11.009  16.595  66.933  1.00  0.00    -0.132 OA 
HETATM   25  C   UNL     1     -10.328  17.626  67.639  1.00  0.00    -0.368 C  
ENDBRANCH  16  24
ENDBRANCH  10  13
ENDBRANCH   8   9
ENDBRANCH   7   8
ENDBRANCH   2   3
TORSDOF 7
ENDMDL
MODEL      280
REMARK 921   NORMALIZED FREE ENERGY PREDICTED BY IDOCK:   28.50 KCAL/MOL
REMARK 922        TOTAL FREE ENERGY PREDICTED BY IDOCK:   39.30 KCAL/MOL
REMARK 923 INTER-LIGAND FREE ENERGY PREDICTED BY IDOCK:   37.04 KCAL/MOL
REMARK 924 INTRA-LIGAND FREE ENERGY PREDICTED BY IDOCK:    2.26 KCAL/MOL
REMARK 927      BINDING AFFINITY PREDICTED BY RF-SCORE:    0.00 PKD
ROOT
HETATM    1  C   UNL     1     -13.660  12.533  73.028  1.00  0.00     1.647 C  
HETATM    2  C   UNL     1     -12.884  13.650  72.338  1.00  0.00    -0.222 C  
ENDROOT
BRANCH   2   3
HETATM    3  N   UNL     1     -12.799  13.460  70.885  1.00  0.00    -0.250 NA 
HETATM    4  C   UNL     1     -12.797  12.046  70.498  1.00  0.00     0.129 C  
HETATM    5  C   UNL     1     -13.125  12.113  69.022  1.00  0.00     2.481 C  
HETATM    6  C   UNL     1     -14.176  13.206  68.942  1.00  0.00    10.985 C  
HETATM    7  C   UNL     1     -13.930  14.101  70.170  1.00  0.00     2.107 C  
BRANCH   7   8
HETATM    8  C   UNL     1     -13.584  15.553  69.773  1.00  0.00     1.509 C  
BRANCH   8   9
HETATM    9  N   UNL     1     -12.155  15.803  69.620  1.00  0.00    -0.419 N  
HETATM   10  C   UNL     1     -11.353  16.166  70.688  1.00  0.00    -0.370 C  
HETATM   11  H   UNL     1     -11.733  15.708  68.696  1.00  0.00     0.000 HD 
HETATM   12  O   UNL     1     -11.788  16.308  71.823  1.00  0.00    -0.487 OA 
BRANCH  10  13
HETATM   13  C   UNL     1      -9.914  16.421  70.376  1.00  0.00     0.944 A  
HETATM   14  C   UNL     1      -9.628  17.182  69.221  1.00  0.00    -0.013 A  
HETATM   15  C   UNL     1      -8.315  17.568  68.928  1.00  0.00    -0.147 A  
HETATM   16  C   UNL     1      -8.853  16.051  71.224  1.00  0.00     4.913 A  
HETATM   17  C   UNL     1      -7.267  17.210  69.767  1.00  0.00     0.501 A  
HETATM   18  C   UNL     1      -7.544  16.466  70.915  1.00  0.00     3.784 A  
BRANCH  15  19
HETATM   19  S   UNL     1      -7.978  18.444  67.415  1.00  0.00    -0.240 S  
HETATM   20  O   UNL     1      -9.111  18.216  66.541  1.00  0.00    -0.276 OA 
HETATM   21  O   UNL     1      -6.638  18.075  67.001  1.00  0.00    -0.171 OA 
BRANCH  19  22
HETATM   22  C   UNL     1      -7.970  20.162  67.890  1.00  0.00    -0.233 C  
HETATM   23  C   UNL     1      -8.970  20.961  67.073  1.00  0.00    -0.120 C  
ENDBRANCH  19  22
ENDBRANCH  15  19
BRANCH  16  24
HETATM   24  O   UNL     1      -8.918  15.373  72.411  1.00  0.00     5.639 OA 
HETATM   25  C   UNL     1     -10.045  14.527  72.612  1.00  0.00     5.352 C  
ENDBRANCH  16  24
ENDBRANCH  10  13
ENDBRANCH   8   9
ENDBRANCH   7   8
ENDBRANCH   2   3
TORSDOF 7
ENDMDL
