MODEL        1
REMARK 921   NORMALIZED FREE ENERGY PREDICTED BY IDOCK:   -7.99 KCAL/MOL
REMARK 922        TOTAL FREE ENERGY PREDICTED BY IDOCK:  -12.69 KCAL/MOL
REMARK 923 INTER-LIGAND FREE ENERGY PREDICTED BY IDOCK:  -12.19 KCAL/MOL
REMARK 924 INTRA-LIGAND FREE ENERGY PREDICTED BY IDOCK:   -0.51 KCAL/MOL
REMARK 927      BINDING AFFINITY PREDICTED BY RF-SCORE:    0.00 PKD
ROOT
HETATM    1  C   UNL     1      -8.212  13.822  67.879  1.00  0.00    -0.166 C  
HETATM    2  C   UNL     1      -9.416  13.203  67.140  1.00  0.00    -0.239 C  
HETATM    3  S   UNL     1      -9.923  14.414  65.829  1.00  0.00    -0.315 SA 
HETATM    4  C   UNL     1      -8.900  11.907  66.503  1.00  0.00    -0.178 C  
HETATM    5  C   UNL     1     -11.250  15.192  66.871  1.00  0.00    -0.292 C  
HETATM    6  C   UNL     1     -10.862  16.425  67.735  1.00  0.00    -0.306 C  
HETATM    7  C   UNL     1     -10.672  13.055  68.040  1.00  0.00    -0.232 C  
HETATM    8  C   UNL     1     -10.754  15.389  68.886  1.00  0.00    -0.244 C  
HETATM    9  O   UNL     1     -10.244  15.345  69.982  1.00  0.00    -0.296 OA 
HETATM   10  N   UNL     1     -11.274  14.394  68.111  1.00  0.00    -0.269 N  
ENDROOT
BRANCH   6  11
HETATM   11  N   UNL     1      -9.623  17.154  67.354  1.00  0.00    -0.244 N  
HETATM   12  C   UNL     1      -9.657  18.487  67.006  1.00  0.00    -0.298 C  
HETATM   13  O   UNL     1     -10.667  19.176  67.151  1.00  0.00    -0.450 OA 
HETATM   14  H   UNL     1      -8.732  16.659  67.351  1.00  0.00     0.000 HD 
BRANCH  12  15
HETATM   15  C   UNL     1      -8.352  19.040  66.389  1.00  0.00    -0.307 C  
HETATM   16  H2  UNL     1      -8.248  17.538  64.934  1.00  0.00     0.000 HD 
HETATM   17  N   UNL     1      -7.647  17.969  65.636  1.00  0.00    -0.539 NA 
HETATM   18  H1  UNL     1      -6.787  18.334  65.229  1.00  0.00     0.000 HD 
BRANCH  15  19
HETATM   19  C   UNL     1      -7.444  19.716  67.402  1.00  0.00    -0.287 A  
HETATM   20  C   UNL     1      -7.343  19.273  68.732  1.00  0.00    -0.381 A  
HETATM   21  C   UNL     1      -6.630  20.785  66.993  1.00  0.00    -0.357 A  
HETATM   22  C   UNL     1      -5.694  21.344  67.867  1.00  0.00    -0.341 A  
HETATM   23  C   UNL     1      -6.402  19.826  69.600  1.00  0.00    -0.378 A  
HETATM   24  C   UNL     1      -5.567  20.851  69.164  1.00  0.00    -0.394 A  
ENDBRANCH  15  19
ENDBRANCH  12  15
ENDBRANCH   6  11
BRANCH   7  25
HETATM   25  C   UNL     1     -11.771  12.121  67.485  1.00  0.00    -0.315 C  
HETATM   26  O   UNL     1     -12.218  12.149  66.342  1.00  0.00    -0.592 OA 
BRANCH  25  27
HETATM   27  O   UNL     1     -12.211  11.248  68.436  1.00  0.00    -0.604 OA 
BRANCH  27  28
HETATM   28  C   UNL     1     -11.599  11.404  69.719  1.00  0.00    -0.332 C  
BRANCH  28  29
HETATM   29  O   UNL     1     -11.111  10.157  70.205  1.00  0.00    -0.269 OA 
BRANCH  29  30
HETATM   30  C   UNL     1     -11.895   9.518  71.110  1.00  0.00    -0.358 C  
HETATM   31  O   UNL     1     -13.111   9.636  71.180  1.00  0.00    -0.348 OA 
BRANCH  30  32
HETATM   32  C   UNL     1     -11.061   8.597  72.028  1.00  0.00    -0.367 C  
HETATM   33  N   UNL     1      -9.652   8.653  71.608  1.00  0.00    -0.248 N  
HETATM   34  C   UNL     1      -9.216   7.743  70.514  1.00  0.00    -0.162 C  
HETATM   35  S   UNL     1     -10.580   6.561  70.459  1.00  0.00    -0.249 S  
HETATM   36  C   UNL     1      -7.971   7.440  71.350  1.00  0.00    -0.096 C  
HETATM   37  O   UNL     1     -11.411   6.868  69.307  1.00  0.00    -0.175 OA 
HETATM   38  O   UNL     1     -10.084   5.215  70.667  1.00  0.00    -0.207 OA 
HETATM   39  C   UNL     1     -11.475   7.109  71.953  1.00  0.00    -0.270 C  
HETATM   40  C   UNL     1      -8.629   8.304  72.436  1.00  0.00    -0.206 C  
HETATM   41  C   UNL     1     -12.979   6.835  71.819  1.00  0.00    -0.274 C  
HETATM   42  C   UNL     1     -10.992   6.309  73.183  1.00  0.00    -0.251 C  
HETATM   43  O   UNL     1      -8.503   8.469  73.625  1.00  0.00    -0.353 OA 
ENDBRANCH  30  32
ENDBRANCH  29  30
ENDBRANCH  28  29
ENDBRANCH  27  28
ENDBRANCH  25  27
ENDBRANCH   7  25
TORSDOF 9
ENDMDL
MODEL        2
REMARK 921   NORMALIZED FREE ENERGY PREDICTED BY IDOCK:   -7.96 KCAL/MOL
REMARK 922        TOTAL FREE ENERGY PREDICTED BY IDOCK:  -12.65 KCAL/MOL
REMARK 923 INTER-LIGAND FREE ENERGY PREDICTED BY IDOCK:  -11.32 KCAL/MOL
REMARK 924 INTRA-LIGAND FREE ENERGY PREDICTED BY IDOCK:   -1.34 KCAL/MOL
REMARK 927      BINDING AFFINITY PREDICTED BY RF-SCORE:    0.00 PKD
ROOT
HETATM    1  C   UNL     1     -10.449   8.667  67.175  1.00  0.00    -0.360 C  
HETATM    2  C   UNL     1      -9.184   9.433  67.615  1.00  0.00    -0.127 C  
HETATM    3  S   UNL     1      -9.277   9.606  69.460  1.00  0.00    -0.218 SA 
HETATM    4  C   UNL     1      -7.995   8.549  67.219  1.00  0.00    -0.102 C  
HETATM    5  C   UNL     1     -10.013  11.310  69.398  1.00  0.00     0.166 C  
HETATM    6  C   UNL     1     -11.563  11.430  69.398  1.00  0.00    -0.323 C  
HETATM    7  C   UNL     1      -9.141  10.892  67.090  1.00  0.00    -0.145 C  
HETATM    8  C   UNL     1     -11.395  11.593  67.864  1.00  0.00    -0.299 C  
HETATM    9  O   UNL     1     -12.105  11.503  66.888  1.00  0.00    -0.393 OA 
HETATM   10  N   UNL     1     -10.036  11.660  67.966  1.00  0.00    -0.184 N  
ENDROOT
BRANCH   6  11
HETATM   11  N   UNL     1     -12.332  10.251  69.879  1.00  0.00    -0.523 N  
HETATM   12  C   UNL     1     -12.958  10.258  71.107  1.00  0.00    -0.409 C  
HETATM   13  O   UNL     1     -13.055  11.280  71.785  1.00  0.00    -0.472 OA 
HETATM   14  H   UNL     1     -12.398   9.421  69.289  1.00  0.00     0.000 HD 
BRANCH  12  15
HETATM   15  C   UNL     1     -13.493   8.888  71.582  1.00  0.00    -0.378 C  
HETATM   16  H2  UNL     1     -15.065   9.734  72.676  1.00  0.00     0.000 HD 
HETATM   17  N   UNL     1     -14.315   9.057  72.810  1.00  0.00    -1.030 NA 
HETATM   18  H1  UNL     1     -14.668   8.153  73.124  1.00  0.00     0.000 HD 
BRANCH  15  19
HETATM   19  C   UNL     1     -12.405   7.845  71.764  1.00  0.00    -0.352 A  
HETATM   20  C   UNL     1     -12.225   6.783  70.861  1.00  0.00    -0.386 A  
HETATM   21  C   UNL     1     -11.505   7.966  72.836  1.00  0.00    -0.357 A  
HETATM   22  C   UNL     1     -10.418   7.095  72.958  1.00  0.00    -0.331 A  
HETATM   23  C   UNL     1     -11.135   5.920  70.979  1.00  0.00    -0.315 A  
HETATM   24  C   UNL     1     -10.224   6.085  72.018  1.00  0.00    -0.228 A  
ENDBRANCH  15  19
ENDBRANCH  12  15
ENDBRANCH   6  11
BRANCH   7  25
HETATM   25  C   UNL     1      -7.761  11.581  67.178  1.00  0.00    -0.160 C  
HETATM   26  O   UNL     1      -6.688  11.008  67.342  1.00  0.00    -0.072 OA 
BRANCH  25  27
HETATM   27  O   UNL     1      -7.872  12.936  67.063  1.00  0.00    -0.117 OA 
BRANCH  27  28
HETATM   28  C   UNL     1      -7.066  13.682  67.980  1.00  0.00    -0.132 C  
BRANCH  28  29
HETATM   29  O   UNL     1      -7.869  14.274  68.997  1.00  0.00    -0.121 OA 
BRANCH  29  30
HETATM   30  C   UNL     1      -7.800  15.625  69.104  1.00  0.00    -0.220 C  
HETATM   31  O   UNL     1      -6.762  16.259  69.240  1.00  0.00    -0.179 OA 
BRANCH  30  32
HETATM   32  C   UNL     1      -9.199  16.271  69.004  1.00  0.00    -0.253 C  
HETATM   33  N   UNL     1     -10.132  15.300  68.409  1.00  0.00    -0.217 N  
HETATM   34  C   UNL     1     -10.203  15.223  66.925  1.00  0.00    -0.268 C  
HETATM   35  S   UNL     1      -9.389  16.761  66.442  1.00  0.00    -0.283 S  
HETATM   36  C   UNL     1     -11.726  15.172  67.065  1.00  0.00    -0.119 C  
HETATM   37  O   UNL     1      -8.048  16.447  65.978  1.00  0.00    -0.257 OA 
HETATM   38  O   UNL     1     -10.278  17.562  65.625  1.00  0.00    -0.595 OA 
HETATM   39  C   UNL     1      -9.242  17.522  68.095  1.00  0.00    -0.277 C  
HETATM   40  C   UNL     1     -11.482  15.395  68.564  1.00  0.00    -0.350 C  
HETATM   41  C   UNL     1      -8.017  18.444  68.164  1.00  0.00    -0.303 C  
HETATM   42  C   UNL     1     -10.475  18.406  68.382  1.00  0.00    -0.280 C  
HETATM   43  O   UNL     1     -12.130  15.755  69.517  1.00  0.00    -0.353 OA 
ENDBRANCH  30  32
ENDBRANCH  29  30
ENDBRANCH  28  29
ENDBRANCH  27  28
ENDBRANCH  25  27
ENDBRANCH   7  25
TORSDOF 9
ENDMDL
MODEL        3
REMARK 921   NORMALIZED FREE ENERGY PREDICTED BY IDOCK:   -7.86 KCAL/MOL
REMARK 922        TOTAL FREE ENERGY PREDICTED BY IDOCK:  -12.50 KCAL/MOL
REMARK 923 INTER-LIGAND FREE ENERGY PREDICTED BY IDOCK:  -11.67 KCAL/MOL
REMARK 924 INTRA-LIGAND FREE ENERGY PREDICTED BY IDOCK:   -0.83 KCAL/MOL
REMARK 927      BINDING AFFINITY PREDICTED BY RF-SCORE:    0.00 PKD
ROOT
HETATM    1  C   UNL     1      -8.743  12.215  68.527  1.00  0.00    -0.079 C  
HETATM    2  C   UNL     1     -10.021  12.729  67.833  1.00  0.00    -0.229 C  
HETATM    3  S   UNL     1     -11.300  11.396  68.009  1.00  0.00    -0.312 SA 
HETATM    4  C   UNL     1     -10.446  13.984  68.605  1.00  0.00    -0.249 C  
HETATM    5  C   UNL     1     -10.959  10.662  66.337  1.00  0.00     0.014 C  
HETATM    6  C   UNL     1      -9.908   9.519  66.248  1.00  0.00    -0.266 C  
HETATM    7  C   UNL     1      -9.853  12.907  66.301  1.00  0.00    -0.273 C  
HETATM    8  C   UNL     1      -8.945  10.650  65.799  1.00  0.00    -0.182 C  
HETATM    9  O   UNL     1      -7.748  10.803  65.719  1.00  0.00    -0.152 OA 
HETATM   10  N   UNL     1      -9.960  11.559  65.727  1.00  0.00    -0.224 N  
ENDROOT
BRANCH   6  11
HETATM   11  N   UNL     1      -9.580   8.804  67.511  1.00  0.00    -0.147 N  
HETATM   12  C   UNL     1     -10.248   7.655  67.876  1.00  0.00    -0.198 C  
HETATM   13  O   UNL     1     -11.018   7.076  67.111  1.00  0.00    -0.357 OA 
HETATM   14  H   UNL     1      -8.847   9.171  68.118  1.00  0.00     0.000 HD 
BRANCH  12  15
HETATM   15  C   UNL     1      -9.986   7.171  69.320  1.00  0.00    -0.168 C  
HETATM   16  H2  UNL     1      -9.133   5.362  68.699  1.00  0.00     0.000 HD 
HETATM   17  N   UNL     1      -9.848   5.690  69.347  1.00  0.00    -0.162 NA 
HETATM   18  H1  UNL     1      -9.676   5.371  70.300  1.00  0.00     0.000 HD 
BRANCH  15  19
HETATM   19  C   UNL     1     -11.017   7.665  70.319  1.00  0.00    -0.261 A  
HETATM   20  C   UNL     1     -10.976   8.962  70.860  1.00  0.00    -0.325 A  
HETATM   21  C   UNL     1     -12.086   6.827  70.680  1.00  0.00    -0.371 A  
HETATM   22  C   UNL     1     -13.116   7.298  71.497  1.00  0.00    -0.434 A  
HETATM   23  C   UNL     1     -12.011   9.432  71.669  1.00  0.00    -0.465 A  
HETATM   24  C   UNL     1     -13.088   8.606  71.976  1.00  0.00    -0.417 A  
ENDBRANCH  15  19
ENDBRANCH  12  15
ENDBRANCH   6  11
BRANCH   7  25
HETATM   25  C   UNL     1     -10.949  13.753  65.614  1.00  0.00    -0.288 C  
HETATM   26  O   UNL     1     -12.152  13.511  65.636  1.00  0.00    -0.379 OA 
BRANCH  25  27
HETATM   27  O   UNL     1     -10.415  14.819  64.953  1.00  0.00    -0.412 OA 
BRANCH  27  28
HETATM   28  C   UNL     1     -10.557  16.073  65.626  1.00  0.00    -0.377 C  
BRANCH  28  29
HETATM   29  O   UNL     1      -9.331  16.798  65.614  1.00  0.00    -0.511 OA 
BRANCH  29  30
HETATM   30  C   UNL     1      -8.471  16.537  66.632  1.00  0.00    -0.263 C  
HETATM   31  O   UNL     1      -7.812  15.511  66.737  1.00  0.00    -0.217 OA 
BRANCH  30  32
HETATM   32  C   UNL     1      -8.405  17.713  67.630  1.00  0.00    -0.226 C  
HETATM   33  N   UNL     1      -9.419  18.713  67.259  1.00  0.00    -0.294 N  
HETATM   34  C   UNL     1      -9.051  19.729  66.235  1.00  0.00    -0.379 C  
HETATM   35  S   UNL     1      -7.253  19.575  66.199  1.00  0.00    -0.287 S  
HETATM   36  C   UNL     1      -9.714  20.777  67.132  1.00  0.00    -0.457 C  
HETATM   37  O   UNL     1      -6.877  18.842  65.002  1.00  0.00    -0.504 OA 
HETATM   38  O   UNL     1      -6.635  20.851  66.500  1.00  0.00    -0.265 OA 
HETATM   39  C   UNL     1      -7.047  18.455  67.626  1.00  0.00    -0.209 C  
HETATM   40  C   UNL     1      -9.893  19.635  68.142  1.00  0.00    -0.418 C  
HETATM   41  C   UNL     1      -5.801  17.574  67.453  1.00  0.00    -0.158 C  
HETATM   42  C   UNL     1      -6.829  19.275  68.915  1.00  0.00    -0.366 C  
HETATM   43  O   UNL     1     -10.119  19.532  69.323  1.00  0.00    -0.406 OA 
ENDBRANCH  30  32
ENDBRANCH  29  30
ENDBRANCH  28  29
ENDBRANCH  27  28
ENDBRANCH  25  27
ENDBRANCH   7  25
TORSDOF 9
ENDMDL
MODEL        4
REMARK 921   NORMALIZED FREE ENERGY PREDICTED BY IDOCK:   -7.78 KCAL/MOL
REMARK 922        TOTAL FREE ENERGY PREDICTED BY IDOCK:  -12.37 KCAL/MOL
REMARK 923 INTER-LIGAND FREE ENERGY PREDICTED BY IDOCK:  -11.44 KCAL/MOL
REMARK 924 INTRA-LIGAND FREE ENERGY PREDICTED BY IDOCK:   -0.93 KCAL/MOL
REMARK 927      BINDING AFFINITY PREDICTED BY RF-SCORE:    0.00 PKD
ROOT
HETATM    1  C   UNL     1      -9.420  13.321  68.627  1.00  0.00    -0.020 C  
HETATM    2  C   UNL     1     -10.700  13.609  67.814  1.00  0.00    -0.246 C  
HETATM    3  S   UNL     1     -11.881  12.221  68.164  1.00  0.00    -0.220 SA 
HETATM    4  C   UNL     1     -11.254  14.933  68.352  1.00  0.00    -0.304 C  
HETATM    5  C   UNL     1     -11.407  11.256  66.650  1.00  0.00    -0.079 C  
HETATM    6  C   UNL     1     -10.269  10.204  66.787  1.00  0.00    -0.228 C  
HETATM    7  C   UNL     1     -10.474  13.549  66.280  1.00  0.00    -0.290 C  
HETATM    8  C   UNL     1      -9.375  11.323  66.190  1.00  0.00    -0.211 C  
HETATM    9  O   UNL     1      -8.190  11.559  66.127  1.00  0.00    -0.107 OA 
HETATM   10  N   UNL     1     -10.451  12.121  65.934  1.00  0.00    -0.246 N  
ENDROOT
BRANCH   6  11
HETATM   11  N   UNL     1      -9.948   9.733  68.161  1.00  0.00    -0.149 N  
HETATM   12  C   UNL     1     -10.243   8.448  68.564  1.00  0.00    -0.201 C  
HETATM   13  O   UNL     1     -10.626   7.587  67.773  1.00  0.00    -0.227 OA 
HETATM   14  H   UNL     1      -9.501  10.373  68.818  1.00  0.00     0.000 HD 
BRANCH  12  15
HETATM   15  C   UNL     1     -10.092   8.182  70.078  1.00  0.00    -0.196 C  
HETATM   16  H2  UNL     1      -8.684   6.656  69.804  1.00  0.00     0.000 HD 
HETATM   17  N   UNL     1      -9.557   6.813  70.307  1.00  0.00    -0.165 NA 
HETATM   18  H1  UNL     1      -9.458   6.637  71.306  1.00  0.00     0.000 HD 
BRANCH  15  19
HETATM   19  C   UNL     1     -11.366   8.433  70.866  1.00  0.00    -0.298 A  
HETATM   20  C   UNL     1     -11.708   9.707  71.352  1.00  0.00    -0.478 A  
HETATM   21  C   UNL     1     -12.270   7.377  71.072  1.00  0.00    -0.315 A  
HETATM   22  C   UNL     1     -13.507   7.606  71.682  1.00  0.00    -0.415 A  
HETATM   23  C   UNL     1     -12.947   9.934  71.953  1.00  0.00    -0.545 A  
HETATM   24  C   UNL     1     -13.852   8.887  72.104  1.00  0.00    -0.531 A  
ENDBRANCH  15  19
ENDBRANCH  12  15
ENDBRANCH   6  11
BRANCH   7  25
HETATM   25  C   UNL     1     -11.597  14.178  65.426  1.00  0.00    -0.334 C  
HETATM   26  O   UNL     1     -12.794  13.926  65.527  1.00  0.00    -0.609 OA 
BRANCH  25  27
HETATM   27  O   UNL     1     -11.095  15.060  64.514  1.00  0.00    -0.328 OA 
BRANCH  27  28
HETATM   28  C   UNL     1     -11.158  16.433  64.912  1.00  0.00    -0.239 C  
BRANCH  28  29
HETATM   29  O   UNL     1      -9.934  16.843  65.514  1.00  0.00    -0.572 OA 
BRANCH  29  30
HETATM   30  C   UNL     1     -10.016  17.875  66.393  1.00  0.00    -0.358 C  
HETATM   31  O   UNL     1     -10.976  18.093  67.120  1.00  0.00    -0.263 OA 
BRANCH  30  32
HETATM   32  C   UNL     1      -8.728  18.727  66.383  1.00  0.00    -0.286 C  
HETATM   33  N   UNL     1      -7.615  17.906  65.879  1.00  0.00    -0.203 N  
HETATM   34  C   UNL     1      -6.887  17.048  66.853  1.00  0.00    -0.212 C  
HETATM   35  S   UNL     1      -7.419  17.755  68.428  1.00  0.00    -0.272 S  
HETATM   36  C   UNL     1      -5.587  17.522  66.199  1.00  0.00    -0.219 C  
HETATM   37  O   UNL     1      -8.406  16.869  69.021  1.00  0.00    -0.233 OA 
HETATM   38  O   UNL     1      -6.268  18.188  69.195  1.00  0.00    -0.225 OA 
HETATM   39  C   UNL     1      -8.299  19.219  67.786  1.00  0.00    -0.300 C  
HETATM   40  C   UNL     1      -6.479  18.452  65.365  1.00  0.00    -0.214 C  
HETATM   41  C   UNL     1      -9.437  19.630  68.730  1.00  0.00    -0.402 C  
HETATM   42  C   UNL     1      -7.336  20.424  67.709  1.00  0.00    -0.316 C  
HETATM   43  O   UNL     1      -6.330  19.445  64.695  1.00  0.00    -0.385 OA 
ENDBRANCH  30  32
ENDBRANCH  29  30
ENDBRANCH  28  29
ENDBRANCH  27  28
ENDBRANCH  25  27
ENDBRANCH   7  25
TORSDOF 9
ENDMDL
MODEL        5
REMARK 921   NORMALIZED FREE ENERGY PREDICTED BY IDOCK:   -7.74 KCAL/MOL
REMARK 922        TOTAL FREE ENERGY PREDICTED BY IDOCK:  -12.32 KCAL/MOL
REMARK 923 INTER-LIGAND FREE ENERGY PREDICTED BY IDOCK:  -11.54 KCAL/MOL
REMARK 924 INTRA-LIGAND FREE ENERGY PREDICTED BY IDOCK:   -0.78 KCAL/MOL
REMARK 927      BINDING AFFINITY PREDICTED BY RF-SCORE:    0.00 PKD
ROOT
HETATM    1  C   UNL     1      -8.296  13.685  68.298  1.00  0.00    -0.165 C  
HETATM    2  C   UNL     1      -9.453  12.939  67.601  1.00  0.00    -0.197 C  
HETATM    3  S   UNL     1      -9.982  13.990  66.167  1.00  0.00    -0.314 SA 
HETATM    4  C   UNL     1      -8.864  11.613  67.106  1.00  0.00    -0.172 C  
HETATM    5  C   UNL     1     -11.367  14.803  67.099  1.00  0.00    -0.356 C  
HETATM    6  C   UNL     1     -11.057  16.133  67.844  1.00  0.00    -0.293 C  
HETATM    7  C   UNL     1     -10.723  12.822  68.486  1.00  0.00    -0.253 C  
HETATM    8  C   UNL     1     -10.931  15.222  69.094  1.00  0.00    -0.251 C  
HETATM    9  O   UNL     1     -10.446  15.309  70.199  1.00  0.00    -0.284 OA 
HETATM   10  N   UNL     1     -11.385  14.131  68.411  1.00  0.00    -0.271 N  
ENDROOT
BRANCH   6  11
HETATM   11  N   UNL     1      -9.843  16.878  67.417  1.00  0.00    -0.255 N  
HETATM   12  C   UNL     1      -9.878  18.241  67.209  1.00  0.00    -0.321 C  
HETATM   13  O   UNL     1     -10.851  18.925  67.522  1.00  0.00    -0.450 OA 
HETATM   14  H   UNL     1      -8.969  16.373  67.276  1.00  0.00     0.000 HD 
BRANCH  12  15
HETATM   15  C   UNL     1      -8.626  18.834  66.525  1.00  0.00    -0.305 C  
HETATM   16  H2  UNL     1      -8.552  17.337  65.063  1.00  0.00     0.000 HD 
HETATM   17  N   UNL     1      -7.929  17.786  65.733  1.00  0.00    -0.540 NA 
HETATM   18  H1  UNL     1      -7.103  18.177  65.281  1.00  0.00     0.000 HD 
BRANCH  15  19
HETATM   19  C   UNL     1      -7.687  19.538  67.489  1.00  0.00    -0.296 A  
HETATM   20  C   UNL     1      -7.503  19.100  68.811  1.00  0.00    -0.379 A  
HETATM   21  C   UNL     1      -6.927  20.631  67.038  1.00  0.00    -0.365 A  
HETATM   22  C   UNL     1      -5.964  21.219  67.862  1.00  0.00    -0.391 A  
HETATM   23  C   UNL     1      -6.534  19.682  69.630  1.00  0.00    -0.371 A  
HETATM   24  C   UNL     1      -5.755  20.732  69.151  1.00  0.00    -0.398 A  
ENDBRANCH  15  19
ENDBRANCH  12  15
ENDBRANCH   6  11
BRANCH   7  25
HETATM   25  C   UNL     1     -11.764  11.787  68.004  1.00  0.00    -0.293 C  
HETATM   26  O   UNL     1     -12.109  11.613  66.839  1.00  0.00    -0.512 OA 
BRANCH  25  27
HETATM   27  O   UNL     1     -12.282  11.078  69.048  1.00  0.00    -0.483 OA 
BRANCH  27  28
HETATM   28  C   UNL     1     -11.370  10.848  70.126  1.00  0.00    -0.284 C  
BRANCH  28  29
HETATM   29  O   UNL     1     -11.982  10.077  71.155  1.00  0.00    -0.332 OA 
BRANCH  29  30
HETATM   30  C   UNL     1     -11.975   8.730  70.980  1.00  0.00    -0.251 C  
HETATM   31  O   UNL     1     -12.899   7.986  71.279  1.00  0.00    -0.289 OA 
BRANCH  30  32
HETATM   32  C   UNL     1     -10.658   8.255  70.326  1.00  0.00    -0.227 C  
HETATM   33  N   UNL     1     -10.954   7.139  69.413  1.00  0.00    -0.202 N  
HETATM   34  C   UNL     1     -11.014   5.768  69.989  1.00  0.00    -0.311 C  
HETATM   35  S   UNL     1     -10.208   6.008  71.587  1.00  0.00    -0.207 S  
HETATM   36  C   UNL     1     -10.199   5.296  68.782  1.00  0.00    -0.231 C  
HETATM   37  O   UNL     1     -11.231   6.034  72.619  1.00  0.00    -0.263 OA 
HETATM   38  O   UNL     1      -9.066   5.124  71.709  1.00  0.00    -0.135 OA 
HETATM   39  C   UNL     1      -9.621   7.719  71.341  1.00  0.00    -0.155 C  
HETATM   40  C   UNL     1     -10.115   6.781  68.401  1.00  0.00    -0.162 C  
HETATM   41  C   UNL     1      -9.541   8.466  72.679  1.00  0.00    -0.337 C  
HETATM   42  C   UNL     1      -8.191   7.709  70.758  1.00  0.00    -0.109 C  
HETATM   43  O   UNL     1      -9.431   7.468  67.683  1.00  0.00    -0.136 OA 
ENDBRANCH  30  32
ENDBRANCH  29  30
ENDBRANCH  28  29
ENDBRANCH  27  28
ENDBRANCH  25  27
ENDBRANCH   7  25
TORSDOF 9
ENDMDL
MODEL        6
REMARK 921   NORMALIZED FREE ENERGY PREDICTED BY IDOCK:   -7.74 KCAL/MOL
REMARK 922        TOTAL FREE ENERGY PREDICTED BY IDOCK:  -12.32 KCAL/MOL
REMARK 923 INTER-LIGAND FREE ENERGY PREDICTED BY IDOCK:  -11.33 KCAL/MOL
REMARK 924 INTRA-LIGAND FREE ENERGY PREDICTED BY IDOCK:   -0.99 KCAL/MOL
REMARK 927      BINDING AFFINITY PREDICTED BY RF-SCORE:    0.00 PKD
ROOT
HETATM    1  C   UNL     1     -10.580  13.747  69.111  1.00  0.00    -0.099 C  
HETATM    2  C   UNL     1     -11.160  13.315  67.748  1.00  0.00    -0.265 C  
HETATM    3  S   UNL     1     -11.633  11.528  67.908  1.00  0.00    -0.250 SA 
HETATM    4  C   UNL     1     -12.406  14.181  67.525  1.00  0.00    -0.106 C  
HETATM    5  C   UNL     1     -10.045  10.902  67.176  1.00  0.00    -0.198 C  
HETATM    6  C   UNL     1      -8.873  10.588  68.149  1.00  0.00    -0.134 C  
HETATM    7  C   UNL     1     -10.111  13.338  66.605  1.00  0.00    -0.266 C  
HETATM    8  C   UNL     1      -8.356  11.990  67.732  1.00  0.00    -0.156 C  
HETATM    9  O   UNL     1      -7.567  12.799  68.165  1.00  0.00    -0.112 OA 
HETATM   10  N   UNL     1      -9.313  12.116  66.768  1.00  0.00    -0.206 N  
ENDROOT
BRANCH   6  11
HETATM   11  N   UNL     1      -9.220  10.386  69.581  1.00  0.00    -0.401 N  
HETATM   12  C   UNL     1      -9.357   9.121  70.112  1.00  0.00    -0.209 C  
HETATM   13  O   UNL     1      -9.041   8.111  69.484  1.00  0.00    -0.150 OA 
HETATM   14  H   UNL     1      -9.359  11.198  70.182  1.00  0.00     0.000 HD 
BRANCH  12  15
HETATM   15  C   UNL     1      -9.968   9.064  71.530  1.00  0.00    -0.321 C  
HETATM   16  H2  UNL     1      -8.209   8.336  72.402  1.00  0.00     0.000 HD 
HETATM   17  N   UNL     1      -9.203   8.112  72.380  1.00  0.00    -0.201 NA 
HETATM   18  H1  UNL     1      -9.606   8.075  73.316  1.00  0.00     0.000 HD 
BRANCH  15  19
HETATM   19  C   UNL     1     -11.456   8.763  71.536  1.00  0.00    -0.375 A  
HETATM   20  C   UNL     1     -11.958   7.456  71.414  1.00  0.00    -0.340 A  
HETATM   21  C   UNL     1     -12.372   9.811  71.726  1.00  0.00    -0.470 A  
HETATM   22  C   UNL     1     -13.738   9.550  71.862  1.00  0.00    -0.410 A  
HETATM   23  C   UNL     1     -13.321   7.195  71.559  1.00  0.00    -0.413 A  
HETATM   24  C   UNL     1     -14.209   8.240  71.797  1.00  0.00    -0.544 A  
ENDBRANCH  15  19
ENDBRANCH  12  15
ENDBRANCH   6  11
BRANCH   7  25
HETATM   25  C   UNL     1     -10.697  13.279  65.176  1.00  0.00    -0.322 C  
HETATM   26  O   UNL     1     -11.351  12.349  64.713  1.00  0.00    -0.298 OA 
BRANCH  25  27
HETATM   27  O   UNL     1     -10.386  14.399  64.463  1.00  0.00    -0.314 OA 
BRANCH  27  28
HETATM   28  C   UNL     1     -11.210  15.535  64.744  1.00  0.00    -0.390 C  
BRANCH  28  29
HETATM   29  O   UNL     1     -10.416  16.694  64.975  1.00  0.00    -0.664 OA 
BRANCH  29  30
HETATM   30  C   UNL     1     -10.095  16.953  66.268  1.00  0.00    -0.324 C  
HETATM   31  O   UNL     1     -10.892  16.936  67.197  1.00  0.00    -0.227 OA 
BRANCH  30  32
HETATM   32  C   UNL     1      -8.587  17.245  66.428  1.00  0.00    -0.259 C  
HETATM   33  N   UNL     1      -8.061  16.447  67.548  1.00  0.00    -0.145 N  
HETATM   34  C   UNL     1      -8.185  17.010  68.920  1.00  0.00    -0.204 C  
HETATM   35  S   UNL     1      -8.549  18.744  68.571  1.00  0.00    -0.333 S  
HETATM   36  C   UNL     1      -6.742  16.562  69.162  1.00  0.00    -0.213 C  
HETATM   37  O   UNL     1      -9.965  18.972  68.800  1.00  0.00    -0.391 OA 
HETATM   38  O   UNL     1      -7.558  19.598  69.194  1.00  0.00    -0.350 OA 
HETATM   39  C   UNL     1      -8.273  18.721  66.766  1.00  0.00    -0.278 C  
HETATM   40  C   UNL     1      -6.737  16.159  67.681  1.00  0.00    -0.152 C  
HETATM   41  C   UNL     1      -9.149  19.771  66.068  1.00  0.00    -0.319 C  
HETATM   42  C   UNL     1      -6.808  19.091  66.449  1.00  0.00    -0.229 C  
HETATM   43  O   UNL     1      -5.908  15.914  66.838  1.00  0.00    -0.297 OA 
ENDBRANCH  30  32
ENDBRANCH  29  30
ENDBRANCH  28  29
ENDBRANCH  27  28
ENDBRANCH  25  27
ENDBRANCH   7  25
TORSDOF 9
ENDMDL
MODEL        7
REMARK 921   NORMALIZED FREE ENERGY PREDICTED BY IDOCK:   -7.72 KCAL/MOL
REMARK 922        TOTAL FREE ENERGY PREDICTED BY IDOCK:  -12.29 KCAL/MOL
REMARK 923 INTER-LIGAND FREE ENERGY PREDICTED BY IDOCK:  -11.33 KCAL/MOL
REMARK 924 INTRA-LIGAND FREE ENERGY PREDICTED BY IDOCK:   -0.96 KCAL/MOL
REMARK 927      BINDING AFFINITY PREDICTED BY RF-SCORE:    0.00 PKD
ROOT
HETATM    1  C   UNL     1      -8.481  11.884  68.352  1.00  0.00    -0.155 C  
HETATM    2  C   UNL     1      -9.772  12.456  67.729  1.00  0.00    -0.201 C  
HETATM    3  S   UNL     1     -11.092  11.172  67.956  1.00  0.00    -0.301 SA 
HETATM    4  C   UNL     1     -10.107  13.718  68.534  1.00  0.00    -0.225 C  
HETATM    5  C   UNL     1     -10.865  10.445  66.262  1.00  0.00     0.048 C  
HETATM    6  C   UNL     1      -9.866   9.263  66.109  1.00  0.00    -0.293 C  
HETATM    7  C   UNL     1      -9.674  12.645  66.192  1.00  0.00    -0.251 C  
HETATM    8  C   UNL     1      -8.883  10.361  65.622  1.00  0.00    -0.173 C  
HETATM    9  O   UNL     1      -7.686  10.468  65.483  1.00  0.00    -0.152 OA 
HETATM   10  N   UNL     1      -9.864  11.309  65.611  1.00  0.00    -0.223 N  
ENDROOT
BRANCH   6  11
HETATM   11  N   UNL     1      -9.503   8.521  67.345  1.00  0.00    -0.146 N  
HETATM   12  C   UNL     1     -10.200   7.397  67.735  1.00  0.00    -0.196 C  
HETATM   13  O   UNL     1     -11.034   6.860  67.007  1.00  0.00    -0.379 OA 
HETATM   14  H   UNL     1      -8.724   8.849  67.916  1.00  0.00     0.000 HD 
BRANCH  12  15
HETATM   15  C   UNL     1      -9.883   6.886  69.159  1.00  0.00    -0.156 C  
HETATM   16  H2  UNL     1      -9.196   5.028  68.482  1.00  0.00     0.000 HD 
HETATM   17  N   UNL     1      -9.846   5.399  69.174  1.00  0.00    -0.162 NA 
HETATM   18  H1  UNL     1      -9.638   5.063  70.113  1.00  0.00     0.000 HD 
BRANCH  15  19
HETATM   19  C   UNL     1     -10.815   7.443  70.221  1.00  0.00    -0.260 A  
HETATM   20  C   UNL     1     -10.603   8.695  70.823  1.00  0.00    -0.254 A  
HETATM   21  C   UNL     1     -11.963   6.717  70.582  1.00  0.00    -0.418 A  
HETATM   22  C   UNL     1     -12.903   7.260  71.462  1.00  0.00    -0.430 A  
HETATM   23  C   UNL     1     -11.547   9.239  71.695  1.00  0.00    -0.463 A  
HETATM   24  C   UNL     1     -12.703   8.528  72.003  1.00  0.00    -0.421 A  
ENDBRANCH  15  19
ENDBRANCH  12  15
ENDBRANCH   6  11
BRANCH   7  25
HETATM   25  C   UNL     1     -10.770  13.542  65.570  1.00  0.00    -0.290 C  
HETATM   26  O   UNL     1     -11.976  13.315  65.599  1.00  0.00    -0.367 OA 
BRANCH  25  27
HETATM   27  O   UNL     1     -10.231  14.635  64.958  1.00  0.00    -0.401 OA 
BRANCH  27  28
HETATM   28  C   UNL     1     -11.174  15.658  64.625  1.00  0.00    -0.369 C  
BRANCH  28  29
HETATM   29  O   UNL     1     -10.704  16.937  65.041  1.00  0.00    -0.700 OA 
BRANCH  29  30
HETATM   30  C   UNL     1     -10.224  17.016  66.308  1.00  0.00    -0.329 C  
HETATM   31  O   UNL     1     -10.845  16.679  67.307  1.00  0.00    -0.273 OA 
BRANCH  30  32
HETATM   32  C   UNL     1      -8.779  17.559  66.331  1.00  0.00    -0.242 C  
HETATM   33  N   UNL     1      -7.995  16.795  67.314  1.00  0.00    -0.165 N  
HETATM   34  C   UNL     1      -8.046  17.233  68.735  1.00  0.00    -0.242 C  
HETATM   35  S   UNL     1      -8.736  18.894  68.579  1.00  0.00    -0.341 S  
HETATM   36  C   UNL     1      -6.529  17.034  68.783  1.00  0.00    -0.181 C  
HETATM   37  O   UNL     1     -10.133  18.852  68.978  1.00  0.00    -0.395 OA 
HETATM   38  O   UNL     1      -7.836  19.867  69.165  1.00  0.00    -0.202 OA 
HETATM   39  C   UNL     1      -8.680  19.042  66.760  1.00  0.00    -0.309 C  
HETATM   40  C   UNL     1      -6.635  16.738  67.280  1.00  0.00    -0.172 C  
HETATM   41  C   UNL     1      -9.798  19.964  66.254  1.00  0.00    -0.570 C  
HETATM   42  C   UNL     1      -7.348  19.687  66.323  1.00  0.00    -0.284 C  
HETATM   43  O   UNL     1      -5.884  16.701  66.335  1.00  0.00    -0.291 OA 
ENDBRANCH  30  32
ENDBRANCH  29  30
ENDBRANCH  28  29
ENDBRANCH  27  28
ENDBRANCH  25  27
ENDBRANCH   7  25
TORSDOF 9
ENDMDL
MODEL        8
REMARK 921   NORMALIZED FREE ENERGY PREDICTED BY IDOCK:   -7.60 KCAL/MOL
REMARK 922        TOTAL FREE ENERGY PREDICTED BY IDOCK:  -12.10 KCAL/MOL
REMARK 923 INTER-LIGAND FREE ENERGY PREDICTED BY IDOCK:  -11.97 KCAL/MOL
REMARK 924 INTRA-LIGAND FREE ENERGY PREDICTED BY IDOCK:   -0.14 KCAL/MOL
REMARK 927      BINDING AFFINITY PREDICTED BY RF-SCORE:    0.00 PKD
ROOT
HETATM    1  C   UNL     1     -12.148  13.725  68.538  1.00  0.00    -0.327 C  
HETATM    2  C   UNL     1     -11.158  12.592  68.198  1.00  0.00    -0.249 C  
HETATM    3  S   UNL     1      -9.532  13.399  67.810  1.00  0.00    -0.219 SA 
HETATM    4  C   UNL     1     -11.043  11.736  69.465  1.00  0.00    -0.199 C  
HETATM    5  C   UNL     1      -9.816  13.397  65.974  1.00  0.00    -0.263 C  
HETATM    6  C   UNL     1     -10.487  14.650  65.344  1.00  0.00    -0.380 C  
HETATM    7  C   UNL     1     -11.531  11.827  66.901  1.00  0.00    -0.293 C  
HETATM    8  C   UNL     1     -11.782  13.797  65.409  1.00  0.00    -0.335 C  
HETATM    9  O   UNL     1     -12.973  14.004  65.359  1.00  0.00    -0.726 OA 
HETATM   10  N   UNL     1     -11.093  12.683  65.790  1.00  0.00    -0.288 N  
ENDROOT
BRANCH   6  11
HETATM   11  N   UNL     1     -10.456  15.905  66.140  1.00  0.00    -0.315 N  
HETATM   12  C   UNL     1     -10.757  17.123  65.568  1.00  0.00    -0.117 C  
HETATM   13  O   UNL     1     -11.223  17.214  64.433  1.00  0.00    -1.143 OA 
HETATM   14  H   UNL     1     -10.207  15.865  67.129  1.00  0.00     0.000 HD 
BRANCH  12  15
HETATM   15  C   UNL     1     -10.434  18.358  66.439  1.00  0.00    -0.383 C  
HETATM   16  H2  UNL     1     -11.746  19.606  65.387  1.00  0.00     0.000 HD 
HETATM   17  N   UNL     1     -10.777  19.606  65.705  1.00  0.00    -0.482 NA 
HETATM   18  H1  UNL     1     -10.564  20.421  66.280  1.00  0.00     0.000 HD 
BRANCH  15  19
HETATM   19  C   UNL     1      -9.007  18.376  66.956  1.00  0.00    -0.275 A  
HETATM   20  C   UNL     1      -7.896  18.344  66.096  1.00  0.00    -0.241 A  
HETATM   21  C   UNL     1      -8.775  18.486  68.338  1.00  0.00    -0.351 A  
HETATM   22  C   UNL     1      -7.477  18.632  68.834  1.00  0.00    -0.298 A  
HETATM   23  C   UNL     1      -6.601  18.499  66.592  1.00  0.00    -0.212 A  
HETATM   24  C   UNL     1      -6.393  18.658  67.959  1.00  0.00    -0.209 A  
ENDBRANCH  15  19
ENDBRANCH  12  15
ENDBRANCH   6  11
BRANCH   7  25
HETATM   25  C   UNL     1     -10.811  10.473  66.708  1.00  0.00    -0.142 C  
HETATM   26  O   UNL     1     -10.212  10.124  65.695  1.00  0.00    -0.275 OA 
BRANCH  25  27
HETATM   27  O   UNL     1     -10.930   9.682  67.813  1.00  0.00    -0.260 OA 
BRANCH  27  28
HETATM   28  C   UNL     1     -10.314   8.396  67.698  1.00  0.00    -0.252 C  
BRANCH  28  29
HETATM   29  O   UNL     1     -11.148   7.382  68.250  1.00  0.00     0.007 OA 
BRANCH  29  30
HETATM   30  C   UNL     1     -10.559   6.540  69.137  1.00  0.00    -0.243 C  
HETATM   31  O   UNL     1      -9.468   6.010  68.972  1.00  0.00    -0.126 OA 
BRANCH  30  32
HETATM   32  C   UNL     1     -11.427   6.355  70.401  1.00  0.00    -0.393 C  
HETATM   33  N   UNL     1     -12.071   7.637  70.730  1.00  0.00    -0.188 N  
HETATM   34  C   UNL     1     -11.304   8.608  71.556  1.00  0.00    -0.289 C  
HETATM   35  S   UNL     1      -9.994   7.562  72.225  1.00  0.00    -0.192 S  
HETATM   36  C   UNL     1     -12.587   8.840  72.358  1.00  0.00    -0.430 C  
HETATM   37  O   UNL     1      -8.765   7.842  71.502  1.00  0.00    -0.116 OA 
HETATM   38  O   UNL     1     -10.016   7.597  73.674  1.00  0.00    -0.312 OA 
HETATM   39  C   UNL     1     -10.619   5.944  71.654  1.00  0.00    -0.241 C  
HETATM   40  C   UNL     1     -13.189   7.715  71.504  1.00  0.00    -0.334 C  
HETATM   41  C   UNL     1      -9.461   4.965  71.416  1.00  0.00    -0.212 C  
HETATM   42  C   UNL     1     -11.514   5.309  72.740  1.00  0.00    -0.317 C  
HETATM   43  O   UNL     1     -14.142   6.976  71.567  1.00  0.00    -0.346 OA 
ENDBRANCH  30  32
ENDBRANCH  29  30
ENDBRANCH  28  29
ENDBRANCH  27  28
ENDBRANCH  25  27
ENDBRANCH   7  25
TORSDOF 9
ENDMDL
MODEL        9
REMARK 921   NORMALIZED FREE ENERGY PREDICTED BY IDOCK:   -7.47 KCAL/MOL
REMARK 922        TOTAL FREE ENERGY PREDICTED BY IDOCK:  -11.90 KCAL/MOL
REMARK 923 INTER-LIGAND FREE ENERGY PREDICTED BY IDOCK:  -11.36 KCAL/MOL
REMARK 924 INTRA-LIGAND FREE ENERGY PREDICTED BY IDOCK:   -0.55 KCAL/MOL
REMARK 927      BINDING AFFINITY PREDICTED BY RF-SCORE:    0.00 PKD
ROOT
HETATM    1  C   UNL     1     -10.508   8.762  67.133  1.00  0.00    -0.354 C  
HETATM    2  C   UNL     1      -9.214   9.501  67.532  1.00  0.00    -0.126 C  
HETATM    3  S   UNL     1      -9.216   9.626  69.383  1.00  0.00    -0.203 SA 
HETATM    4  C   UNL     1      -8.057   8.615  67.055  1.00  0.00    -0.100 C  
HETATM    5  C   UNL     1      -9.932  11.339  69.402  1.00  0.00     0.166 C  
HETATM    6  C   UNL     1     -11.479  11.477  69.479  1.00  0.00    -0.311 C  
HETATM    7  C   UNL     1      -9.177  10.974  67.043  1.00  0.00    -0.153 C  
HETATM    8  C   UNL     1     -11.382  11.680  67.943  1.00  0.00    -0.299 C  
HETATM    9  O   UNL     1     -12.139  11.625  67.001  1.00  0.00    -0.547 OA 
HETATM   10  N   UNL     1     -10.019  11.728  67.982  1.00  0.00    -0.182 N  
ENDROOT
BRANCH   6  11
HETATM   11  N   UNL     1     -12.239  10.295  69.965  1.00  0.00    -0.485 N  
HETATM   12  C   UNL     1     -12.848  10.295  71.202  1.00  0.00    -0.408 C  
HETATM   13  O   UNL     1     -12.936  11.314  71.886  1.00  0.00    -0.456 OA 
HETATM   14  H   UNL     1     -12.312   9.468  69.372  1.00  0.00     0.000 HD 
BRANCH  12  15
HETATM   15  C   UNL     1     -13.374   8.923  71.677  1.00  0.00    -0.365 C  
HETATM   16  H2  UNL     1     -14.837   9.765  72.916  1.00  0.00     0.000 HD 
HETATM   17  N   UNL     1     -14.094   9.070  72.971  1.00  0.00    -1.146 NA 
HETATM   18  H1  UNL     1     -14.441   8.164  73.285  1.00  0.00     0.000 HD 
BRANCH  15  19
HETATM   19  C   UNL     1     -12.299   7.853  71.743  1.00  0.00    -0.352 A  
HETATM   20  C   UNL     1     -12.136   6.889  70.733  1.00  0.00    -0.400 A  
HETATM   21  C   UNL     1     -11.392   7.850  72.817  1.00  0.00    -0.453 A  
HETATM   22  C   UNL     1     -10.317   6.958  72.840  1.00  0.00    -0.251 A  
HETATM   23  C   UNL     1     -11.057   6.005  70.753  1.00  0.00    -0.355 A  
HETATM   24  C   UNL     1     -10.139   6.050  71.799  1.00  0.00    -0.222 A  
ENDBRANCH  15  19
ENDBRANCH  12  15
ENDBRANCH   6  11
BRANCH   7  25
HETATM   25  C   UNL     1      -7.785  11.644  67.083  1.00  0.00    -0.159 C  
HETATM   26  O   UNL     1      -6.874  11.439  66.287  1.00  0.00    -0.063 OA 
BRANCH  25  27
HETATM   27  O   UNL     1      -7.675  12.502  68.138  1.00  0.00    -0.121 OA 
BRANCH  27  28
HETATM   28  C   UNL     1      -7.458  13.869  67.777  1.00  0.00    -0.167 C  
BRANCH  28  29
HETATM   29  O   UNL     1      -8.202  14.742  68.621  1.00  0.00    -0.145 OA 
BRANCH  29  30
HETATM   30  C   UNL     1      -7.795  16.037  68.651  1.00  0.00    -0.179 C  
HETATM   31  O   UNL     1      -7.176  16.549  69.574  1.00  0.00    -0.209 OA 
BRANCH  30  32
HETATM   32  C   UNL     1      -8.187  16.781  67.355  1.00  0.00    -0.177 C  
HETATM   33  N   UNL     1      -7.568  18.116  67.364  1.00  0.00    -0.211 N  
HETATM   34  C   UNL     1      -8.293  19.213  68.061  1.00  0.00    -0.305 C  
HETATM   35  S   UNL     1      -9.945  18.507  68.232  1.00  0.00    -0.393 S  
HETATM   36  C   UNL     1      -7.960  20.106  66.863  1.00  0.00    -0.356 C  
HETATM   37  O   UNL     1     -10.123  18.079  69.609  1.00  0.00     0.018 OA 
HETATM   38  O   UNL     1     -10.925  19.368  67.601  1.00  0.00    -0.429 OA 
HETATM   39  C   UNL     1      -9.710  17.013  67.210  1.00  0.00    -0.253 C  
HETATM   40  C   UNL     1      -7.373  18.838  66.226  1.00  0.00    -0.256 C  
HETATM   41  C   UNL     1     -10.613  15.871  67.697  1.00  0.00    -0.307 C  
HETATM   42  C   UNL     1     -10.117  17.301  65.749  1.00  0.00    -0.159 C  
HETATM   43  O   UNL     1      -7.069  18.470  65.117  1.00  0.00    -0.483 OA 
ENDBRANCH  30  32
ENDBRANCH  29  30
ENDBRANCH  28  29
ENDBRANCH  27  28
ENDBRANCH  25  27
ENDBRANCH   7  25
TORSDOF 9
ENDMDL
MODEL       10
REMARK 921   NORMALIZED FREE ENERGY PREDICTED BY IDOCK:   -7.45 KCAL/MOL
REMARK 922        TOTAL FREE ENERGY PREDICTED BY IDOCK:  -11.88 KCAL/MOL
REMARK 923 INTER-LIGAND FREE ENERGY PREDICTED BY IDOCK:  -11.06 KCAL/MOL
REMARK 924 INTRA-LIGAND FREE ENERGY PREDICTED BY IDOCK:   -0.82 KCAL/MOL
REMARK 927      BINDING AFFINITY PREDICTED BY RF-SCORE:    0.00 PKD
ROOT
HETATM    1  C   UNL     1      -9.812  14.874  65.670  1.00  0.00    -0.372 C  
HETATM    2  C   UNL     1     -10.862  14.385  66.689  1.00  0.00    -0.304 C  
HETATM    3  S   UNL     1     -10.938  15.660  68.035  1.00  0.00    -0.327 SA 
HETATM    4  C   UNL     1     -12.193  14.326  65.930  1.00  0.00    -0.422 C  
HETATM    5  C   UNL     1      -9.763  14.750  69.149  1.00  0.00    -0.146 C  
HETATM    6  C   UNL     1      -8.250  15.088  69.036  1.00  0.00    -0.187 C  
HETATM    7  C   UNL     1     -10.444  13.078  67.415  1.00  0.00    -0.234 C  
HETATM    8  C   UNL     1      -8.189  13.812  68.155  1.00  0.00    -0.160 C  
HETATM    9  O   UNL     1      -7.424  13.339  67.346  1.00  0.00    -0.162 OA 
HETATM   10  N   UNL     1      -9.481  13.484  68.448  1.00  0.00    -0.208 N  
ENDROOT
BRANCH   6  11
HETATM   11  N   UNL     1      -7.893  16.380  68.393  1.00  0.00    -0.168 N  
HETATM   12  C   UNL     1      -6.856  17.155  68.870  1.00  0.00    -0.221 C  
HETATM   13  O   UNL     1      -6.079  16.746  69.731  1.00  0.00    -0.217 OA 
HETATM   14  H   UNL     1      -8.424  16.700  67.583  1.00  0.00     0.000 HD 
BRANCH  12  15
HETATM   15  C   UNL     1      -6.767  18.577  68.272  1.00  0.00    -0.224 C  
HETATM   16  H2  UNL     1      -5.207  19.155  69.543  1.00  0.00     0.000 HD 
HETATM   17  N   UNL     1      -6.118  19.500  69.241  1.00  0.00    -0.267 NA 
HETATM   18  H1  UNL     1      -6.059  20.438  68.846  1.00  0.00     0.000 HD 
BRANCH  15  19
HETATM   19  C   UNL     1      -8.102  19.112  67.784  1.00  0.00    -0.310 A  
HETATM   20  C   UNL     1      -8.412  19.219  66.417  1.00  0.00    -0.342 A  
HETATM   21  C   UNL     1      -9.090  19.460  68.720  1.00  0.00    -0.411 A  
HETATM   22  C   UNL     1     -10.370  19.835  68.301  1.00  0.00    -0.536 A  
HETATM   23  C   UNL     1      -9.693  19.585  66.001  1.00  0.00    -0.378 A  
HETATM   24  C   UNL     1     -10.676  19.878  66.942  1.00  0.00    -0.471 A  
ENDBRANCH  15  19
ENDBRANCH  12  15
ENDBRANCH   6  11
BRANCH   7  25
HETATM   25  C   UNL     1     -11.585  12.347  68.158  1.00  0.00    -0.341 C  
HETATM   26  O   UNL     1     -12.070  12.691  69.232  1.00  0.00    -0.259 OA 
BRANCH  25  27
HETATM   27  O   UNL     1     -11.994  11.239  67.476  1.00  0.00    -0.612 OA 
BRANCH  27  28
HETATM   28  C   UNL     1     -10.966  10.274  67.230  1.00  0.00    -0.210 C  
BRANCH  28  29
HETATM   29  O   UNL     1     -10.546   9.659  68.444  1.00  0.00    -0.214 OA 
BRANCH  29  30
HETATM   30  C   UNL     1     -10.073   8.391  68.340  1.00  0.00    -0.198 C  
HETATM   31  O   UNL     1      -9.445   7.960  67.382  1.00  0.00    -0.137 OA 
BRANCH  30  32
HETATM   32  C   UNL     1     -10.402   7.561  69.601  1.00  0.00    -0.225 C  
HETATM   33  N   UNL     1     -11.347   8.318  70.438  1.00  0.00    -0.224 N  
HETATM   34  C   UNL     1     -10.787   9.312  71.394  1.00  0.00    -0.364 C  
HETATM   35  S   UNL     1      -9.049   8.824  71.449  1.00  0.00    -0.247 S  
HETATM   36  C   UNL     1     -11.770   8.768  72.433  1.00  0.00    -0.337 C  
HETATM   37  O   UNL     1      -8.280   9.771  70.660  1.00  0.00    -0.246 OA 
HETATM   38  O   UNL     1      -8.659   8.516  72.810  1.00  0.00    -0.331 OA 
HETATM   39  C   UNL     1      -9.171   7.274  70.493  1.00  0.00    -0.158 C  
HETATM   40  C   UNL     1     -12.136   7.720  71.373  1.00  0.00    -0.311 C  
HETATM   41  C   UNL     1      -7.858   6.984  69.752  1.00  0.00    -0.115 C  
HETATM   42  C   UNL     1      -9.410   6.082  71.445  1.00  0.00    -0.159 C  
HETATM   43  O   UNL     1     -12.686   6.646  71.351  1.00  0.00    -0.304 OA 
ENDBRANCH  30  32
ENDBRANCH  29  30
ENDBRANCH  28  29
ENDBRANCH  27  28
ENDBRANCH  25  27
ENDBRANCH   7  25
TORSDOF 9
ENDMDL
MODEL       11
REMARK 921   NORMALIZED FREE ENERGY PREDICTED BY IDOCK:   -7.43 KCAL/MOL
REMARK 922        TOTAL FREE ENERGY PREDICTED BY IDOCK:  -11.85 KCAL/MOL
REMARK 923 INTER-LIGAND FREE ENERGY PREDICTED BY IDOCK:  -11.19 KCAL/MOL
REMARK 924 INTRA-LIGAND FREE ENERGY PREDICTED BY IDOCK:   -0.66 KCAL/MOL
REMARK 927      BINDING AFFINITY PREDICTED BY RF-SCORE:    0.00 PKD
ROOT
HETATM    1  C   UNL     1      -8.181  13.980  67.977  1.00  0.00    -0.155 C  
HETATM    2  C   UNL     1      -9.403  13.340  67.287  1.00  0.00    -0.226 C  
HETATM    3  S   UNL     1     -10.003  14.558  66.022  1.00  0.00    -0.333 SA 
HETATM    4  C   UNL     1      -8.886  12.068  66.605  1.00  0.00    -0.191 C  
HETATM    5  C   UNL     1     -11.297  15.285  67.137  1.00  0.00    -0.247 C  
HETATM    6  C   UNL     1     -10.900  16.515  68.002  1.00  0.00    -0.337 C  
HETATM    7  C   UNL     1     -10.611  13.147  68.243  1.00  0.00    -0.248 C  
HETATM    8  C   UNL     1     -10.711  15.465  69.130  1.00  0.00    -0.246 C  
HETATM    9  O   UNL     1     -10.148  15.417  70.199  1.00  0.00    -0.281 OA 
HETATM   10  N   UNL     1     -11.242  14.468  68.364  1.00  0.00    -0.259 N  
ENDROOT
BRANCH   6  11
HETATM   11  N   UNL     1      -9.700  17.282  67.575  1.00  0.00    -0.259 N  
HETATM   12  C   UNL     1      -9.749  18.648  67.398  1.00  0.00    -0.306 C  
HETATM   13  O   UNL     1     -10.724  19.316  67.741  1.00  0.00    -0.426 OA 
HETATM   14  H   UNL     1      -8.823  16.788  67.409  1.00  0.00     0.000 HD 
BRANCH  12  15
HETATM   15  C   UNL     1      -8.513  19.268  66.709  1.00  0.00    -0.305 C  
HETATM   16  H2  UNL     1      -8.548  17.903  65.122  1.00  0.00     0.000 HD 
HETATM   17  N   UNL     1      -7.882  18.276  65.798  1.00  0.00    -0.520 NA 
HETATM   18  H1  UNL     1      -7.066  18.686  65.344  1.00  0.00     0.000 HD 
BRANCH  15  19
HETATM   19  C   UNL     1      -7.513  19.863  67.685  1.00  0.00    -0.320 A  
HETATM   20  C   UNL     1      -7.413  19.426  69.017  1.00  0.00    -0.385 A  
HETATM   21  C   UNL     1      -6.611  20.843  67.237  1.00  0.00    -0.403 A  
HETATM   22  C   UNL     1      -5.598  21.317  68.075  1.00  0.00    -0.363 A  
HETATM   23  C   UNL     1      -6.395  19.893  69.849  1.00  0.00    -0.395 A  
HETATM   24  C   UNL     1      -5.479  20.827  69.374  1.00  0.00    -0.416 A  
ENDBRANCH  15  19
ENDBRANCH  12  15
ENDBRANCH   6  11
BRANCH   7  25
HETATM   25  C   UNL     1     -11.711  12.193  67.725  1.00  0.00    -0.320 C  
HETATM   26  O   UNL     1     -12.118  12.137  66.568  1.00  0.00    -0.627 OA 
BRANCH  25  27
HETATM   27  O   UNL     1     -12.203  11.409  68.727  1.00  0.00    -0.502 OA 
BRANCH  27  28
HETATM   28  C   UNL     1     -11.224  10.956  69.667  1.00  0.00    -0.282 C  
BRANCH  28  29
HETATM   29  O   UNL     1     -11.079   9.541  69.608  1.00  0.00    -0.234 OA 
BRANCH  29  30
HETATM   30  C   UNL     1     -10.124   9.002  70.409  1.00  0.00    -0.207 C  
HETATM   31  O   UNL     1     -10.155   9.016  71.632  1.00  0.00    -0.316 OA 
BRANCH  30  32
HETATM   32  C   UNL     1      -9.001   8.341  69.580  1.00  0.00    -0.149 C  
HETATM   33  N   UNL     1      -9.256   8.582  68.151  1.00  0.00    -0.138 N  
HETATM   34  C   UNL     1     -10.162   7.640  67.438  1.00  0.00    -0.251 C  
HETATM   35  S   UNL     1     -10.219   6.250  68.588  1.00  0.00    -0.199 S  
HETATM   36  C   UNL     1      -9.152   7.644  66.287  1.00  0.00    -0.204 C  
HETATM   37  O   UNL     1     -11.491   6.285  69.290  1.00  0.00    -0.411 OA 
HETATM   38  O   UNL     1      -9.779   5.037  67.929  1.00  0.00    -0.140 OA 
HETATM   39  C   UNL     1      -8.926   6.805  69.751  1.00  0.00    -0.144 C  
HETATM   40  C   UNL     1      -8.275   8.502  67.210  1.00  0.00    -0.108 C  
HETATM   41  C   UNL     1      -9.199   6.273  71.165  1.00  0.00    -0.159 C  
HETATM   42  C   UNL     1      -7.554   6.240  69.326  1.00  0.00    -0.099 C  
HETATM   43  O   UNL     1      -7.112   8.819  67.274  1.00  0.00    -0.077 OA 
ENDBRANCH  30  32
ENDBRANCH  29  30
ENDBRANCH  28  29
ENDBRANCH  27  28
ENDBRANCH  25  27
ENDBRANCH   7  25
TORSDOF 9
ENDMDL
MODEL       12
REMARK 921   NORMALIZED FREE ENERGY PREDICTED BY IDOCK:   -7.42 KCAL/MOL
REMARK 922        TOTAL FREE ENERGY PREDICTED BY IDOCK:  -11.83 KCAL/MOL
REMARK 923 INTER-LIGAND FREE ENERGY PREDICTED BY IDOCK:  -10.84 KCAL/MOL
REMARK 924 INTRA-LIGAND FREE ENERGY PREDICTED BY IDOCK:   -0.99 KCAL/MOL
REMARK 927      BINDING AFFINITY PREDICTED BY RF-SCORE:    0.00 PKD
ROOT
HETATM    1  C   UNL     1      -9.801  14.970  65.699  1.00  0.00    -0.380 C  
HETATM    2  C   UNL     1     -10.816  14.439  66.732  1.00  0.00    -0.301 C  
HETATM    3  S   UNL     1     -10.919  15.707  68.083  1.00  0.00    -0.326 SA 
HETATM    4  C   UNL     1     -12.156  14.333  65.993  1.00  0.00    -0.423 C  
HETATM    5  C   UNL     1      -9.694  14.839  69.176  1.00  0.00    -0.146 C  
HETATM    6  C   UNL     1      -8.196  15.234  69.041  1.00  0.00    -0.205 C  
HETATM    7  C   UNL     1     -10.338  13.148  67.447  1.00  0.00    -0.239 C  
HETATM    8  C   UNL     1      -8.101  13.964  68.155  1.00  0.00    -0.150 C  
HETATM    9  O   UNL     1      -7.331  13.522  67.333  1.00  0.00    -0.165 OA 
HETATM   10  N   UNL     1      -9.375  13.587  68.466  1.00  0.00    -0.155 N  
ENDROOT
BRANCH   6  11
HETATM   11  N   UNL     1      -7.898  16.541  68.397  1.00  0.00    -0.178 N  
HETATM   12  C   UNL     1      -6.945  17.392  68.914  1.00  0.00    -0.244 C  
HETATM   13  O   UNL     1      -6.186  17.051  69.820  1.00  0.00    -0.231 OA 
HETATM   14  H   UNL     1      -8.407  16.812  67.555  1.00  0.00     0.000 HD 
BRANCH  12  15
HETATM   15  C   UNL     1      -6.925  18.810  68.299  1.00  0.00    -0.246 C  
HETATM   16  H2  UNL     1      -5.474  19.512  69.636  1.00  0.00     0.000 HD 
HETATM   17  N   UNL     1      -6.390  19.788  69.284  1.00  0.00    -0.308 NA 
HETATM   18  H1  UNL     1      -6.377  20.723  68.878  1.00  0.00     0.000 HD 
BRANCH  15  19
HETATM   19  C   UNL     1      -8.267  19.244  67.737  1.00  0.00    -0.322 A  
HETATM   20  C   UNL     1      -8.465  19.485  66.367  1.00  0.00    -0.373 A  
HETATM   21  C   UNL     1      -9.372  19.356  68.598  1.00  0.00    -0.448 A  
HETATM   22  C   UNL     1     -10.646  19.630  68.093  1.00  0.00    -0.403 A  
HETATM   23  C   UNL     1      -9.739  19.749  65.863  1.00  0.00    -0.360 A  
HETATM   24  C   UNL     1     -10.831  19.807  66.723  1.00  0.00    -0.436 A  
ENDBRANCH  15  19
ENDBRANCH  12  15
ENDBRANCH   6  11
BRANCH   7  25
HETATM   25  C   UNL     1     -11.439  12.372  68.205  1.00  0.00    -0.310 C  
HETATM   26  O   UNL     1     -11.858  12.644  69.327  1.00  0.00    -0.301 OA 
BRANCH  25  27
HETATM   27  O   UNL     1     -11.897  11.315  67.475  1.00  0.00    -0.613 OA 
BRANCH  27  28
HETATM   28  C   UNL     1     -10.931  10.735  66.593  1.00  0.00    -0.106 C  
BRANCH  28  29
HETATM   29  O   UNL     1     -10.657   9.385  66.957  1.00  0.00    -0.251 OA 
BRANCH  29  30
HETATM   30  C   UNL     1      -9.793   9.207  67.989  1.00  0.00    -0.168 C  
HETATM   31  O   UNL     1      -8.608   9.513  67.963  1.00  0.00    -0.119 OA 
BRANCH  30  32
HETATM   32  C   UNL     1     -10.500   8.593  69.217  1.00  0.00    -0.217 C  
HETATM   33  N   UNL     1      -9.708   8.887  70.422  1.00  0.00    -0.180 N  
HETATM   34  C   UNL     1      -8.593   7.963  70.763  1.00  0.00    -0.132 C  
HETATM   35  S   UNL     1      -8.984   6.527  69.740  1.00  0.00    -0.142 S  
HETATM   36  C   UNL     1      -9.073   8.024  72.215  1.00  0.00    -0.237 C  
HETATM   37  O   UNL     1      -8.088   6.518  68.597  1.00  0.00    -0.115 OA 
HETATM   38  O   UNL     1      -9.128   5.347  70.568  1.00  0.00    -0.137 OA 
HETATM   39  C   UNL     1     -10.631   7.053  69.152  1.00  0.00    -0.219 C  
HETATM   40  C   UNL     1     -10.244   8.857  71.674  1.00  0.00    -0.345 C  
HETATM   41  C   UNL     1     -10.930   6.462  67.767  1.00  0.00    -0.425 C  
HETATM   42  C   UNL     1     -11.726   6.522  70.102  1.00  0.00    -0.419 C  
HETATM   43  O   UNL     1     -11.341   9.185  72.056  1.00  0.00    -0.366 OA 
ENDBRANCH  30  32
ENDBRANCH  29  30
ENDBRANCH  28  29
ENDBRANCH  27  28
ENDBRANCH  25  27
ENDBRANCH   7  25
TORSDOF 9
ENDMDL
MODEL       13
REMARK 921   NORMALIZED FREE ENERGY PREDICTED BY IDOCK:   -7.41 KCAL/MOL
REMARK 922        TOTAL FREE ENERGY PREDICTED BY IDOCK:  -11.82 KCAL/MOL
REMARK 923 INTER-LIGAND FREE ENERGY PREDICTED BY IDOCK:  -10.58 KCAL/MOL
REMARK 924 INTRA-LIGAND FREE ENERGY PREDICTED BY IDOCK:   -1.24 KCAL/MOL
REMARK 927      BINDING AFFINITY PREDICTED BY RF-SCORE:    0.00 PKD
ROOT
HETATM    1  C   UNL     1      -8.268  14.572  68.906  1.00  0.00    -0.114 C  
HETATM    2  C   UNL     1      -9.190  13.984  67.818  1.00  0.00    -0.195 C  
HETATM    3  S   UNL     1      -9.621  15.376  66.670  1.00  0.00    -0.275 SA 
HETATM    4  C   UNL     1      -8.359  12.923  67.087  1.00  0.00    -0.158 C  
HETATM    5  C   UNL     1     -11.232  15.754  67.514  1.00  0.00    -0.218 C  
HETATM    6  C   UNL     1     -11.222  16.813  68.652  1.00  0.00    -0.170 C  
HETATM    7  C   UNL     1     -10.557  13.502  68.374  1.00  0.00    -0.248 C  
HETATM    8  C   UNL     1     -11.175  15.578  69.590  1.00  0.00    -0.300 C  
HETATM    9  O   UNL     1     -10.887  15.363  70.745  1.00  0.00    -0.323 OA 
HETATM   10  N   UNL     1     -11.368  14.715  68.551  1.00  0.00    -0.270 N  
ENDROOT
BRANCH   6  11
HETATM   11  N   UNL     1     -10.066  17.748  68.695  1.00  0.00    -0.369 N  
HETATM   12  C   UNL     1     -10.065  18.917  67.965  1.00  0.00    -0.377 C  
HETATM   13  O   UNL     1     -11.069  19.325  67.383  1.00  0.00    -0.444 OA 
HETATM   14  H   UNL     1      -9.259  17.520  69.276  1.00  0.00     0.000 HD 
BRANCH  12  15
HETATM   15  C   UNL     1      -8.708  19.654  67.903  1.00  0.00    -0.324 C  
HETATM   16  H2  UNL     1      -9.527  21.364  67.015  1.00  0.00     0.000 HD 
HETATM   17  N   UNL     1      -8.750  20.720  66.867  1.00  0.00    -0.579 NA 
HETATM   18  H1  UNL     1      -7.854  21.206  66.827  1.00  0.00     0.000 HD 
BRANCH  15  19
HETATM   19  C   UNL     1      -7.523  18.723  67.714  1.00  0.00    -0.245 A  
HETATM   20  C   UNL     1      -7.199  18.165  66.465  1.00  0.00    -0.268 A  
HETATM   21  C   UNL     1      -6.681  18.447  68.804  1.00  0.00    -0.267 A  
HETATM   22  C   UNL     1      -5.514  17.697  68.632  1.00  0.00    -0.152 A  
HETATM   23  C   UNL     1      -6.029  17.424  66.294  1.00  0.00    -0.231 A  
HETATM   24  C   UNL     1      -5.179  17.203  67.373  1.00  0.00    -0.148 A  
ENDBRANCH  15  19
ENDBRANCH  12  15
ENDBRANCH   6  11
BRANCH   7  25
HETATM   25  C   UNL     1     -11.363  12.583  67.427  1.00  0.00    -0.313 C  
HETATM   26  O   UNL     1     -11.609  12.817  66.248  1.00  0.00    -0.337 OA 
BRANCH  25  27
HETATM   27  O   UNL     1     -11.793  11.460  68.070  1.00  0.00    -0.570 OA 
BRANCH  27  28
HETATM   28  C   UNL     1     -11.220  10.240  67.590  1.00  0.00    -0.158 C  
BRANCH  28  29
HETATM   29  O   UNL     1      -9.847  10.145  67.955  1.00  0.00    -0.148 OA 
BRANCH  29  30
HETATM   30  C   UNL     1      -9.591   9.738  69.224  1.00  0.00    -0.197 C  
HETATM   31  O   UNL     1      -8.662  10.143  69.909  1.00  0.00    -0.173 OA 
BRANCH  30  32
HETATM   32  C   UNL     1     -10.641   8.715  69.710  1.00  0.00    -0.224 C  
HETATM   33  N   UNL     1     -10.873   8.915  71.150  1.00  0.00    -0.258 N  
HETATM   34  C   UNL     1      -9.956   8.232  72.103  1.00  0.00    -0.273 C  
HETATM   35  S   UNL     1      -9.166   7.010  71.035  1.00  0.00    -0.155 S  
HETATM   36  C   UNL     1     -11.193   7.853  72.920  1.00  0.00    -0.429 C  
HETATM   37  O   UNL     1      -7.824   7.470  70.722  1.00  0.00    -0.095 OA 
HETATM   38  O   UNL     1      -9.379   5.676  71.559  1.00  0.00    -0.146 OA 
HETATM   39  C   UNL     1     -10.196   7.242  69.546  1.00  0.00    -0.198 C  
HETATM   40  C   UNL     1     -12.002   8.479  71.775  1.00  0.00    -0.332 C  
HETATM   41  C   UNL     1      -9.398   6.920  68.275  1.00  0.00    -0.125 C  
HETATM   42  C   UNL     1     -11.392   6.267  69.572  1.00  0.00    -0.475 C  
HETATM   43  O   UNL     1     -13.142   8.441  71.380  1.00  0.00    -0.299 OA 
ENDBRANCH  30  32
ENDBRANCH  29  30
ENDBRANCH  28  29
ENDBRANCH  27  28
ENDBRANCH  25  27
ENDBRANCH   7  25
TORSDOF 9
ENDMDL
MODEL       14
REMARK 921   NORMALIZED FREE ENERGY PREDICTED BY IDOCK:   -7.38 KCAL/MOL
REMARK 922        TOTAL FREE ENERGY PREDICTED BY IDOCK:  -11.77 KCAL/MOL
REMARK 923 INTER-LIGAND FREE ENERGY PREDICTED BY IDOCK:  -11.15 KCAL/MOL
REMARK 924 INTRA-LIGAND FREE ENERGY PREDICTED BY IDOCK:   -0.62 KCAL/MOL
REMARK 927      BINDING AFFINITY PREDICTED BY RF-SCORE:    0.00 PKD
ROOT
HETATM    1  C   UNL     1      -9.863  14.824  65.740  1.00  0.00    -0.373 C  
HETATM    2  C   UNL     1     -10.898  14.450  66.821  1.00  0.00    -0.301 C  
HETATM    3  S   UNL     1     -10.856  15.799  68.094  1.00  0.00    -0.319 SA 
HETATM    4  C   UNL     1     -12.258  14.422  66.114  1.00  0.00    -0.358 C  
HETATM    5  C   UNL     1      -9.689  14.889  69.216  1.00  0.00    -0.143 C  
HETATM    6  C   UNL     1      -8.165  15.137  69.032  1.00  0.00    -0.193 C  
HETATM    7  C   UNL     1     -10.522  13.164  67.605  1.00  0.00    -0.221 C  
HETATM    8  C   UNL     1      -8.205  13.814  68.223  1.00  0.00    -0.156 C  
HETATM    9  O   UNL     1      -7.497  13.256  67.416  1.00  0.00    -0.162 OA 
HETATM   10  N   UNL     1      -9.500  13.573  68.578  1.00  0.00    -0.176 N  
ENDROOT
BRANCH   6  11
HETATM   11  N   UNL     1      -7.765  16.371  68.303  1.00  0.00    -0.156 N  
HETATM   12  C   UNL     1      -6.889  17.278  68.861  1.00  0.00    -0.226 C  
HETATM   13  O   UNL     1      -6.272  17.038  69.897  1.00  0.00    -0.230 OA 
HETATM   14  H   UNL     1      -8.146  16.550  67.374  1.00  0.00     0.000 HD 
BRANCH  12  15
HETATM   15  C   UNL     1      -6.768  18.623  68.110  1.00  0.00    -0.224 C  
HETATM   16  H2  UNL     1      -5.126  19.258  69.244  1.00  0.00     0.000 HD 
HETATM   17  N   UNL     1      -6.035  19.612  68.946  1.00  0.00    -0.231 NA 
HETATM   18  H1  UNL     1      -5.955  20.500  68.451  1.00  0.00     0.000 HD 
BRANCH  15  19
HETATM   19  C   UNL     1      -8.101  19.166  67.625  1.00  0.00    -0.299 A  
HETATM   20  C   UNL     1      -8.330  19.497  66.279  1.00  0.00    -0.359 A  
HETATM   21  C   UNL     1      -9.167  19.292  68.532  1.00  0.00    -0.434 A  
HETATM   22  C   UNL     1     -10.438  19.668  68.091  1.00  0.00    -0.503 A  
HETATM   23  C   UNL     1      -9.603  19.864  65.839  1.00  0.00    -0.339 A  
HETATM   24  C   UNL     1     -10.660  19.935  66.742  1.00  0.00    -0.536 A  
ENDBRANCH  15  19
ENDBRANCH  12  15
ENDBRANCH   6  11
BRANCH   7  25
HETATM   25  C   UNL     1     -11.671  12.538  68.428  1.00  0.00    -0.328 C  
HETATM   26  O   UNL     1     -12.280  13.093  69.337  1.00  0.00    -0.251 OA 
BRANCH  25  27
HETATM   27  O   UNL     1     -11.930  11.259  68.029  1.00  0.00    -0.621 OA 
BRANCH  27  28
HETATM   28  C   UNL     1     -10.985  10.287  68.486  1.00  0.00    -0.247 C  
BRANCH  28  29
HETATM   29  O   UNL     1     -10.676  10.487  69.862  1.00  0.00    -0.267 OA 
BRANCH  29  30
HETATM   30  C   UNL     1     -11.485   9.862  70.755  1.00  0.00    -0.354 C  
HETATM   31  O   UNL     1     -12.702   9.982  70.792  1.00  0.00    -0.315 OA 
BRANCH  30  32
HETATM   32  C   UNL     1     -10.677   8.951  71.706  1.00  0.00    -0.362 C  
HETATM   33  N   UNL     1      -9.272   8.927  71.266  1.00  0.00    -0.242 N  
HETATM   34  C   UNL     1      -8.891   7.948  70.212  1.00  0.00    -0.140 C  
HETATM   35  S   UNL     1     -10.304   6.823  70.232  1.00  0.00    -0.204 S  
HETATM   36  C   UNL     1      -7.647   7.633  71.047  1.00  0.00    -0.083 C  
HETATM   37  O   UNL     1     -11.137   7.110  69.077  1.00  0.00    -0.135 OA 
HETATM   38  O   UNL     1      -9.861   5.469  70.498  1.00  0.00    -0.173 OA 
HETATM   39  C   UNL     1     -11.153   7.479  71.709  1.00  0.00    -0.241 C  
HETATM   40  C   UNL     1      -8.253   8.575  72.098  1.00  0.00    -0.112 C  
HETATM   41  C   UNL     1     -12.669   7.264  71.607  1.00  0.00    -0.410 C  
HETATM   42  C   UNL     1     -10.686   6.720  72.970  1.00  0.00    -0.315 C  
HETATM   43  O   UNL     1      -8.103   8.792  73.275  1.00  0.00    -0.407 OA 
ENDBRANCH  30  32
ENDBRANCH  29  30
ENDBRANCH  28  29
ENDBRANCH  27  28
ENDBRANCH  25  27
ENDBRANCH   7  25
TORSDOF 9
ENDMDL
MODEL       15
REMARK 921   NORMALIZED FREE ENERGY PREDICTED BY IDOCK:   -7.35 KCAL/MOL
REMARK 922        TOTAL FREE ENERGY PREDICTED BY IDOCK:  -11.73 KCAL/MOL
REMARK 923 INTER-LIGAND FREE ENERGY PREDICTED BY IDOCK:  -10.79 KCAL/MOL
REMARK 924 INTRA-LIGAND FREE ENERGY PREDICTED BY IDOCK:   -0.93 KCAL/MOL
REMARK 927      BINDING AFFINITY PREDICTED BY RF-SCORE:    0.00 PKD
ROOT
HETATM    1  C   UNL     1     -10.062  14.623  65.590  1.00  0.00    -0.389 C  
HETATM    2  C   UNL     1     -11.041  14.195  66.703  1.00  0.00    -0.312 C  
HETATM    3  S   UNL     1     -10.980  15.514  68.007  1.00  0.00    -0.321 SA 
HETATM    4  C   UNL     1     -12.428  14.148  66.052  1.00  0.00    -0.454 C  
HETATM    5  C   UNL     1      -9.744  14.609  69.057  1.00  0.00    -0.160 C  
HETATM    6  C   UNL     1      -8.236  14.902  68.816  1.00  0.00    -0.161 C  
HETATM    7  C   UNL     1     -10.599  12.902  67.438  1.00  0.00    -0.233 C  
HETATM    8  C   UNL     1      -8.276  13.598  67.976  1.00  0.00    -0.162 C  
HETATM    9  O   UNL     1      -7.588  13.079  67.127  1.00  0.00    -0.122 OA 
HETATM   10  N   UNL     1      -9.548  13.314  68.379  1.00  0.00    -0.212 N  
ENDROOT
BRANCH   6  11
HETATM   11  N   UNL     1      -7.899  16.163  68.103  1.00  0.00    -0.143 N  
HETATM   12  C   UNL     1      -6.929  17.018  68.582  1.00  0.00    -0.202 C  
HETATM   13  O   UNL     1      -6.187  16.708  69.513  1.00  0.00    -0.198 OA 
HETATM   14  H   UNL     1      -8.395  16.401  67.244  1.00  0.00     0.000 HD 
BRANCH  12  15
HETATM   15  C   UNL     1      -6.868  18.398  67.891  1.00  0.00    -0.217 C  
HETATM   16  H2  UNL     1      -5.113  18.964  68.884  1.00  0.00     0.000 HD 
HETATM   17  N   UNL     1      -6.043  19.339  68.696  1.00  0.00    -0.221 NA 
HETATM   18  H1  UNL     1      -6.002  20.250  68.240  1.00  0.00     0.000 HD 
BRANCH  15  19
HETATM   19  C   UNL     1      -8.235  18.974  67.569  1.00  0.00    -0.301 A  
HETATM   20  C   UNL     1      -8.699  19.113  66.249  1.00  0.00    -0.304 A  
HETATM   21  C   UNL     1      -9.099  19.331  68.618  1.00  0.00    -0.428 A  
HETATM   22  C   UNL     1     -10.408  19.744  68.356  1.00  0.00    -0.513 A  
HETATM   23  C   UNL     1     -10.010  19.517  65.990  1.00  0.00    -0.477 A  
HETATM   24  C   UNL     1     -10.868  19.818  67.044  1.00  0.00    -0.465 A  
ENDBRANCH  15  19
ENDBRANCH  12  15
ENDBRANCH   6  11
BRANCH   7  25
HETATM   25  C   UNL     1     -11.696  12.225  68.292  1.00  0.00    -0.336 C  
HETATM   26  O   UNL     1     -12.240  12.721  69.274  1.00  0.00    -0.208 OA 
BRANCH  25  27
HETATM   27  O   UNL     1     -11.990  10.977  67.827  1.00  0.00    -0.609 OA 
BRANCH  27  28
HETATM   28  C   UNL     1     -10.850  10.179  67.494  1.00  0.00    -0.290 C  
BRANCH  28  29
HETATM   29  O   UNL     1     -10.198   9.709  68.670  1.00  0.00    -0.176 OA 
BRANCH  29  30
HETATM   30  C   UNL     1     -10.223   8.366  68.872  1.00  0.00    -0.210 C  
HETATM   31  O   UNL     1     -10.739   7.559  68.111  1.00  0.00    -0.174 OA 
BRANCH  30  32
HETATM   32  C   UNL     1      -9.490   7.980  70.175  1.00  0.00    -0.160 C  
HETATM   33  N   UNL     1      -9.118   6.557  70.111  1.00  0.00    -0.154 N  
HETATM   34  C   UNL     1     -10.131   5.553  70.534  1.00  0.00    -0.226 C  
HETATM   35  S   UNL     1     -11.313   6.585  71.429  1.00  0.00    -0.307 S  
HETATM   36  C   UNL     1      -9.010   4.837  71.291  1.00  0.00    -0.162 C  
HETATM   37  O   UNL     1     -12.478   6.789  70.585  1.00  0.00    -0.320 OA 
HETATM   38  O   UNL     1     -11.467   6.105  72.788  1.00  0.00    -0.254 OA 
HETATM   39  C   UNL     1     -10.357   8.141  71.446  1.00  0.00    -0.208 C  
HETATM   40  C   UNL     1      -8.128   6.025  70.881  1.00  0.00    -0.121 C  
HETATM   41  C   UNL     1     -11.295   9.356  71.470  1.00  0.00    -0.464 C  
HETATM   42  C   UNL     1      -9.501   8.222  72.728  1.00  0.00    -0.343 C  
HETATM   43  O   UNL     1      -7.078   6.504  71.233  1.00  0.00    -0.073 OA 
ENDBRANCH  30  32
ENDBRANCH  29  30
ENDBRANCH  28  29
ENDBRANCH  27  28
ENDBRANCH  25  27
ENDBRANCH   7  25
TORSDOF 9
ENDMDL
MODEL       16
REMARK 921   NORMALIZED FREE ENERGY PREDICTED BY IDOCK:   -7.34 KCAL/MOL
REMARK 922        TOTAL FREE ENERGY PREDICTED BY IDOCK:  -11.70 KCAL/MOL
REMARK 923 INTER-LIGAND FREE ENERGY PREDICTED BY IDOCK:  -10.59 KCAL/MOL
REMARK 924 INTRA-LIGAND FREE ENERGY PREDICTED BY IDOCK:   -1.12 KCAL/MOL
REMARK 927      BINDING AFFINITY PREDICTED BY RF-SCORE:    0.00 PKD
ROOT
HETATM    1  C   UNL     1      -8.528  12.672  68.253  1.00  0.00    -0.163 C  
HETATM    2  C   UNL     1      -8.579  11.395  67.388  1.00  0.00    -0.142 C  
HETATM    3  S   UNL     1      -9.416  11.857  65.798  1.00  0.00    -0.149 SA 
HETATM    4  C   UNL     1      -7.119  11.000  67.131  1.00  0.00    -0.104 C  
HETATM    5  C   UNL     1     -11.090  11.276  66.354  1.00  0.00    -0.193 C  
HETATM    6  C   UNL     1     -12.024  12.310  67.042  1.00  0.00    -0.143 C  
HETATM    7  C   UNL     1      -9.479  10.285  67.993  1.00  0.00    -0.146 C  
HETATM    8  C   UNL     1     -11.513  11.664  68.357  1.00  0.00    -0.297 C  
HETATM    9  O   UNL     1     -11.484  11.963  69.529  1.00  0.00    -0.279 OA 
HETATM   10  N   UNL     1     -10.860  10.675  67.681  1.00  0.00    -0.270 N  
ENDROOT
BRANCH   6  11
HETATM   11  N   UNL     1     -11.716  13.749  66.823  1.00  0.00    -0.369 N  
HETATM   12  C   UNL     1     -12.197  14.423  65.721  1.00  0.00    -0.343 C  
HETATM   13  O   UNL     1     -13.028  13.926  64.962  1.00  0.00    -0.731 OA 
HETATM   14  H   UNL     1     -11.139  14.247  67.502  1.00  0.00     0.000 HD 
BRANCH  12  15
HETATM   15  C   UNL     1     -11.590  15.825  65.490  1.00  0.00     0.277 C  
HETATM   16  H2  UNL     1     -12.165  15.887  63.478  1.00  0.00     0.000 HD 
HETATM   17  N   UNL     1     -11.329  16.039  64.041  1.00  0.00    -1.196 NA 
HETATM   18  H1  UNL     1     -10.929  16.964  63.889  1.00  0.00     0.000 HD 
BRANCH  15  19
HETATM   19  C   UNL     1     -10.359  16.097  66.336  1.00  0.00    -0.321 A  
HETATM   20  C   UNL     1      -9.056  15.883  65.856  1.00  0.00    -0.304 A  
HETATM   21  C   UNL     1     -10.512  16.637  67.625  1.00  0.00    -0.320 A  
HETATM   22  C   UNL     1      -9.397  17.015  68.377  1.00  0.00    -0.266 A  
HETATM   23  C   UNL     1      -7.944  16.270  66.605  1.00  0.00    -0.324 A  
HETATM   24  C   UNL     1      -8.115  16.849  67.859  1.00  0.00    -0.191 A  
ENDBRANCH  15  19
ENDBRANCH  12  15
ENDBRANCH   6  11
BRANCH   7  25
HETATM   25  C   UNL     1      -9.283   8.878  67.385  1.00  0.00    -0.135 C  
HETATM   26  O   UNL     1      -8.203   8.321  67.214  1.00  0.00    -0.118 OA 
BRANCH  25  27
HETATM   27  O   UNL     1     -10.476   8.315  67.038  1.00  0.00    -0.310 OA 
BRANCH  27  28
HETATM   28  C   UNL     1     -10.520   6.889  67.152  1.00  0.00    -0.303 C  
BRANCH  28  29
HETATM   29  O   UNL     1     -11.338   6.492  68.248  1.00  0.00    -0.230 OA 
BRANCH  29  30
HETATM   30  C   UNL     1     -10.716   5.808  69.243  1.00  0.00    -0.316 C  
HETATM   31  O   UNL     1      -9.774   5.045  69.077  1.00  0.00    -0.143 OA 
BRANCH  30  32
HETATM   32  C   UNL     1     -11.329   6.137  70.622  1.00  0.00    -0.298 C  
HETATM   33  N   UNL     1     -11.889   7.498  70.584  1.00  0.00    -0.230 N  
HETATM   34  C   UNL     1     -10.971   8.635  70.864  1.00  0.00    -0.253 C  
HETATM   35  S   UNL     1      -9.566   7.791  71.619  1.00  0.00    -0.159 S  
HETATM   36  C   UNL     1     -12.076   9.225  71.743  1.00  0.00    -0.457 C  
HETATM   37  O   UNL     1      -8.495   7.712  70.640  1.00  0.00    -0.124 OA 
HETATM   38  O   UNL     1      -9.311   8.328  72.941  1.00  0.00    -0.256 OA 
HETATM   39  C   UNL     1     -10.300   6.127  71.777  1.00  0.00    -0.210 C  
HETATM   40  C   UNL     1     -12.838   7.922  71.463  1.00  0.00    -0.317 C  
HETATM   41  C   UNL     1      -9.216   5.043  71.701  1.00  0.00    -0.178 C  
HETATM   42  C   UNL     1     -10.977   5.976  73.156  1.00  0.00    -0.269 C  
HETATM   43  O   UNL     1     -13.767   7.324  71.950  1.00  0.00    -0.306 OA 
ENDBRANCH  30  32
ENDBRANCH  29  30
ENDBRANCH  28  29
ENDBRANCH  27  28
ENDBRANCH  25  27
ENDBRANCH   7  25
TORSDOF 9
ENDMDL
MODEL       17
REMARK 921   NORMALIZED FREE ENERGY PREDICTED BY IDOCK:   -7.33 KCAL/MOL
REMARK 922        TOTAL FREE ENERGY PREDICTED BY IDOCK:  -11.69 KCAL/MOL
REMARK 923 INTER-LIGAND FREE ENERGY PREDICTED BY IDOCK:  -11.25 KCAL/MOL
REMARK 924 INTRA-LIGAND FREE ENERGY PREDICTED BY IDOCK:   -0.43 KCAL/MOL
REMARK 927      BINDING AFFINITY PREDICTED BY RF-SCORE:    0.00 PKD
ROOT
HETATM    1  C   UNL     1      -8.318  14.106  67.902  1.00  0.00    -0.162 C  
HETATM    2  C   UNL     1      -9.465  13.469  67.092  1.00  0.00    -0.244 C  
HETATM    3  S   UNL     1      -9.852  14.634  65.700  1.00  0.00    -0.271 SA 
HETATM    4  C   UNL     1      -8.914  12.146  66.546  1.00  0.00    -0.179 C  
HETATM    5  C   UNL     1     -11.250  15.461  66.602  1.00  0.00    -0.175 C  
HETATM    6  C   UNL     1     -10.920  16.722  67.449  1.00  0.00    -0.092 C  
HETATM    7  C   UNL     1     -10.791  13.365  67.891  1.00  0.00    -0.247 C  
HETATM    8  C   UNL     1     -10.917  15.729  68.642  1.00  0.00    -0.307 C  
HETATM    9  O   UNL     1     -10.497  15.722  69.776  1.00  0.00    -0.274 OA 
HETATM   10  N   UNL     1     -11.382  14.710  67.864  1.00  0.00    -0.301 N  
ENDROOT
BRANCH   6  11
HETATM   11  N   UNL     1      -9.647  17.427  67.143  1.00  0.00    -0.258 N  
HETATM   12  C   UNL     1      -9.565  18.803  67.178  1.00  0.00    -0.300 C  
HETATM   13  O   UNL     1     -10.477  19.501  67.620  1.00  0.00    -0.420 OA 
HETATM   14  H   UNL     1      -8.818  16.883  66.903  1.00  0.00     0.000 HD 
BRANCH  12  15
HETATM   15  C   UNL     1      -8.266  19.400  66.592  1.00  0.00    -0.306 C  
HETATM   16  H2  UNL     1      -8.344  18.216  64.867  1.00  0.00     0.000 HD 
HETATM   17  N   UNL     1      -7.676  18.466  65.596  1.00  0.00    -0.494 NA 
HETATM   18  H1  UNL     1      -6.819  18.861  65.209  1.00  0.00     0.000 HD 
BRANCH  15  19
HETATM   19  C   UNL     1      -7.259  19.812  67.651  1.00  0.00    -0.295 A  
HETATM   20  C   UNL     1      -6.261  20.772  67.406  1.00  0.00    -0.333 A  
HETATM   21  C   UNL     1      -7.352  19.266  68.943  1.00  0.00    -0.392 A  
HETATM   22  C   UNL     1      -6.521  19.718  69.971  1.00  0.00    -0.328 A  
HETATM   23  C   UNL     1      -5.438  21.229  68.436  1.00  0.00    -0.281 A  
HETATM   24  C   UNL     1      -5.578  20.713  69.721  1.00  0.00    -0.394 A  
ENDBRANCH  15  19
ENDBRANCH  12  15
ENDBRANCH   6  11
BRANCH   7  25
HETATM   25  C   UNL     1     -11.852  12.419  67.283  1.00  0.00    -0.287 C  
HETATM   26  O   UNL     1     -12.386  12.560  66.186  1.00  0.00    -0.596 OA 
BRANCH  25  27
HETATM   27  O   UNL     1     -12.146  11.390  68.128  1.00  0.00    -0.623 OA 
BRANCH  27  28
HETATM   28  C   UNL     1     -11.485  11.450  69.396  1.00  0.00    -0.310 C  
BRANCH  28  29
HETATM   29  O   UNL     1     -10.600  10.346  69.560  1.00  0.00    -0.217 OA 
BRANCH  29  30
HETATM   30  C   UNL     1     -10.704   9.664  70.729  1.00  0.00    -0.331 C  
HETATM   31  O   UNL     1     -11.604   9.817  71.544  1.00  0.00    -0.380 OA 
BRANCH  30  32
HETATM   32  C   UNL     1      -9.555   8.644  70.891  1.00  0.00    -0.203 C  
HETATM   33  N   UNL     1      -9.222   8.086  69.571  1.00  0.00    -0.152 N  
HETATM   34  C   UNL     1     -10.014   6.923  69.088  1.00  0.00    -0.162 C  
HETATM   35  S   UNL     1     -10.808   6.366  70.611  1.00  0.00    -0.297 S  
HETATM   36  C   UNL     1      -8.694   6.294  68.636  1.00  0.00    -0.120 C  
HETATM   37  O   UNL     1     -12.198   6.790  70.587  1.00  0.00    -0.386 OA 
HETATM   38  O   UNL     1     -10.470   4.982  70.874  1.00  0.00    -0.216 OA 
HETATM   39  C   UNL     1      -9.918   7.439  71.790  1.00  0.00    -0.171 C  
HETATM   40  C   UNL     1      -8.021   7.500  69.308  1.00  0.00    -0.121 C  
HETATM   41  C   UNL     1     -10.794   7.750  73.011  1.00  0.00    -0.451 C  
HETATM   42  C   UNL     1      -8.664   6.713  72.322  1.00  0.00    -0.132 C  
HETATM   43  O   UNL     1      -6.917   7.784  69.704  1.00  0.00    -0.046 OA 
ENDBRANCH  30  32
ENDBRANCH  29  30
ENDBRANCH  28  29
ENDBRANCH  27  28
ENDBRANCH  25  27
ENDBRANCH   7  25
TORSDOF 9
ENDMDL
MODEL       18
REMARK 921   NORMALIZED FREE ENERGY PREDICTED BY IDOCK:   -7.32 KCAL/MOL
REMARK 922        TOTAL FREE ENERGY PREDICTED BY IDOCK:  -11.67 KCAL/MOL
REMARK 923 INTER-LIGAND FREE ENERGY PREDICTED BY IDOCK:   -9.91 KCAL/MOL
REMARK 924 INTRA-LIGAND FREE ENERGY PREDICTED BY IDOCK:   -1.76 KCAL/MOL
REMARK 927      BINDING AFFINITY PREDICTED BY RF-SCORE:    0.00 PKD
ROOT
HETATM    1  C   UNL     1      -9.839  10.949  68.761  1.00  0.00    -0.203 C  
HETATM    2  C   UNL     1      -8.368  10.851  68.305  1.00  0.00    -0.129 C  
HETATM    3  S   UNL     1      -8.209  11.893  66.778  1.00  0.00    -0.082 SA 
HETATM    4  C   UNL     1      -7.531  11.440  69.446  1.00  0.00     0.060 C  
HETATM    5  C   UNL     1      -8.430  10.463  65.614  1.00  0.00    -0.165 C  
HETATM    6  C   UNL     1      -9.872  10.136  65.133  1.00  0.00    -0.325 C  
HETATM    7  C   UNL     1      -7.968   9.424  67.844  1.00  0.00    -0.092 C  
HETATM    8  C   UNL     1      -9.830   9.052  66.243  1.00  0.00    -0.291 C  
HETATM    9  O   UNL     1     -10.637   8.384  66.849  1.00  0.00    -0.305 OA 
HETATM   10  N   UNL     1      -8.506   9.275  66.485  1.00  0.00    -0.125 N  
ENDROOT
BRANCH   6  11
HETATM   11  N   UNL     1     -10.889  11.213  65.268  1.00  0.00    -0.203 N  
HETATM   12  C   UNL     1     -11.171  12.065  64.222  1.00  0.00    -0.357 C  
HETATM   13  O   UNL     1     -10.728  11.878  63.089  1.00  0.00    -0.354 OA 
HETATM   14  H   UNL     1     -11.387  11.323  66.151  1.00  0.00     0.000 HD 
BRANCH  12  15
HETATM   15  C   UNL     1     -12.049  13.284  64.584  1.00  0.00    -0.408 C  
HETATM   16  H2  UNL     1     -12.718  13.552  62.617  1.00  0.00     0.000 HD 
HETATM   17  N   UNL     1     -12.311  14.105  63.371  1.00  0.00    -1.144 NA 
HETATM   18  H1  UNL     1     -12.890  14.910  63.610  1.00  0.00     0.000 HD 
BRANCH  15  19
HETATM   19  C   UNL     1     -11.488  14.116  65.724  1.00  0.00    -0.327 A  
HETATM   20  C   UNL     1     -12.057  14.107  67.009  1.00  0.00    -0.449 A  
HETATM   21  C   UNL     1     -10.327  14.880  65.515  1.00  0.00    -0.388 A  
HETATM   22  C   UNL     1      -9.717  15.554  66.575  1.00  0.00    -0.290 A  
HETATM   23  C   UNL     1     -11.440  14.774  68.069  1.00  0.00    -0.351 A  
HETATM   24  C   UNL     1     -10.263  15.485  67.855  1.00  0.00    -0.238 A  
ENDBRANCH  15  19
ENDBRANCH  12  15
ENDBRANCH   6  11
BRANCH   7  25
HETATM   25  C   UNL     1      -6.446   9.174  67.732  1.00  0.00    -0.056 C  
HETATM   26  O   UNL     1      -5.738   9.510  66.787  1.00  0.00    -0.049 OA 
BRANCH  25  27
HETATM   27  O   UNL     1      -5.968   8.508  68.822  1.00  0.00    -0.042 OA 
BRANCH  27  28
HETATM   28  C   UNL     1      -6.926   7.674  69.480  1.00  0.00    -0.056 C  
BRANCH  28  29
HETATM   29  O   UNL     1      -7.001   7.983  70.869  1.00  0.00    -0.044 OA 
BRANCH  29  30
HETATM   30  C   UNL     1      -8.248   8.139  71.381  1.00  0.00    -0.120 C  
HETATM   31  O   UNL     1      -8.613   9.104  72.039  1.00  0.00    -0.321 OA 
BRANCH  30  32
HETATM   32  C   UNL     1      -9.164   6.953  71.006  1.00  0.00    -0.156 C  
HETATM   33  N   UNL     1     -10.563   7.408  71.011  1.00  0.00    -0.223 N  
HETATM   34  C   UNL     1     -11.294   7.395  72.307  1.00  0.00    -0.281 C  
HETATM   35  S   UNL     1     -10.230   6.339  73.314  1.00  0.00    -0.227 S  
HETATM   36  C   UNL     1     -12.484   6.794  71.556  1.00  0.00    -0.390 C  
HETATM   37  O   UNL     1      -9.475   7.181  74.225  1.00  0.00    -0.247 OA 
HETATM   38  O   UNL     1     -10.982   5.206  73.815  1.00  0.00    -0.294 OA 
HETATM   39  C   UNL     1      -9.091   5.773  72.004  1.00  0.00    -0.137 C  
HETATM   40  C   UNL     1     -11.548   6.750  70.339  1.00  0.00    -0.367 C  
HETATM   41  C   UNL     1      -7.703   5.468  72.583  1.00  0.00    -0.099 C  
HETATM   42  C   UNL     1      -9.608   4.456  71.386  1.00  0.00    -0.234 C  
HETATM   43  O   UNL     1     -11.514   6.180  69.276  1.00  0.00    -0.404 OA 
ENDBRANCH  30  32
ENDBRANCH  29  30
ENDBRANCH  28  29
ENDBRANCH  27  28
ENDBRANCH  25  27
ENDBRANCH   7  25
TORSDOF 9
ENDMDL
MODEL       19
REMARK 921   NORMALIZED FREE ENERGY PREDICTED BY IDOCK:   -7.28 KCAL/MOL
REMARK 922        TOTAL FREE ENERGY PREDICTED BY IDOCK:  -11.62 KCAL/MOL
REMARK 923 INTER-LIGAND FREE ENERGY PREDICTED BY IDOCK:  -10.92 KCAL/MOL
REMARK 924 INTRA-LIGAND FREE ENERGY PREDICTED BY IDOCK:   -0.70 KCAL/MOL
REMARK 927      BINDING AFFINITY PREDICTED BY RF-SCORE:    0.00 PKD
ROOT
HETATM    1  C   UNL     1     -10.289  14.257  65.254  1.00  0.00    -0.417 C  
HETATM    2  C   UNL     1     -11.175  13.297  66.075  1.00  0.00    -0.297 C  
HETATM    3  S   UNL     1     -12.019  14.321  67.371  1.00  0.00    -0.342 SA 
HETATM    4  C   UNL     1     -12.202  12.723  65.092  1.00  0.00    -0.530 C  
HETATM    5  C   UNL     1     -10.768  13.932  68.687  1.00  0.00    -0.260 C  
HETATM    6  C   UNL     1      -9.556  14.894  68.843  1.00  0.00    -0.215 C  
HETATM    7  C   UNL     1     -10.357  12.251  66.879  1.00  0.00    -0.216 C  
HETATM    8  C   UNL     1      -8.802  13.831  68.001  1.00  0.00    -0.182 C  
HETATM    9  O   UNL     1      -7.785  13.788  67.347  1.00  0.00    -0.169 OA 
HETATM   10  N   UNL     1      -9.851  12.960  68.062  1.00  0.00    -0.218 N  
ENDROOT
BRANCH   6  11
HETATM   11  N   UNL     1      -9.695  16.255  68.258  1.00  0.00    -0.219 N  
HETATM   12  C   UNL     1      -8.747  17.229  68.483  1.00  0.00    -0.273 C  
HETATM   13  O   UNL     1      -7.671  16.982  69.027  1.00  0.00    -0.239 OA 
HETATM   14  H   UNL     1     -10.508  16.471  67.681  1.00  0.00     0.000 HD 
BRANCH  12  15
HETATM   15  C   UNL     1      -9.147  18.653  68.035  1.00  0.00    -0.305 C  
HETATM   16  H2  UNL     1     -11.148  18.130  67.708  1.00  0.00     0.000 HD 
HETATM   17  N   UNL     1     -10.389  18.604  67.218  1.00  0.00    -0.379 NA 
HETATM   18  H1  UNL     1     -10.653  19.543  66.923  1.00  0.00     0.000 HD 
BRANCH  15  19
HETATM   19  C   UNL     1      -8.030  19.401  67.328  1.00  0.00    -0.292 A  
HETATM   20  C   UNL     1      -7.765  19.231  65.958  1.00  0.00    -0.293 A  
HETATM   21  C   UNL     1      -7.266  20.339  68.043  1.00  0.00    -0.297 A  
HETATM   22  C   UNL     1      -6.318  21.132  67.391  1.00  0.00    -0.430 A  
HETATM   23  C   UNL     1      -6.823  20.030  65.308  1.00  0.00    -0.328 A  
HETATM   24  C   UNL     1      -6.111  20.990  66.021  1.00  0.00    -0.304 A  
ENDBRANCH  15  19
ENDBRANCH  12  15
ENDBRANCH   6  11
BRANCH   7  25
HETATM   25  C   UNL     1     -11.172  11.052  67.415  1.00  0.00    -0.285 C  
HETATM   26  O   UNL     1     -12.134  11.127  68.172  1.00  0.00    -0.633 OA 
BRANCH  25  27
HETATM   27  O   UNL     1     -10.680   9.867  66.950  1.00  0.00    -0.203 OA 
BRANCH  27  28
HETATM   28  C   UNL     1      -9.450   9.453  67.553  1.00  0.00    -0.127 C  
BRANCH  28  29
HETATM   29  O   UNL     1      -9.663   9.018  68.893  1.00  0.00    -0.158 OA 
BRANCH  29  30
HETATM   30  C   UNL     1      -9.144   7.807  69.219  1.00  0.00    -0.145 C  
HETATM   31  O   UNL     1      -8.115   7.343  68.748  1.00  0.00    -0.124 OA 
BRANCH  30  32
HETATM   32  C   UNL     1     -10.005   7.095  70.286  1.00  0.00    -0.187 C  
HETATM   33  N   UNL     1     -11.016   8.037  70.792  1.00  0.00    -0.244 N  
HETATM   34  C   UNL     1     -10.624   8.948  71.902  1.00  0.00    -0.349 C  
HETATM   35  S   UNL     1      -9.113   8.161  72.502  1.00  0.00    -0.259 S  
HETATM   36  C   UNL     1     -11.969   8.625  72.555  1.00  0.00    -0.358 C  
HETATM   37  O   UNL     1      -7.974   8.928  72.027  1.00  0.00    -0.350 OA 
HETATM   38  O   UNL     1      -9.243   7.837  73.908  1.00  0.00    -0.274 OA 
HETATM   39  C   UNL     1      -9.199   6.624  71.520  1.00  0.00    -0.146 C  
HETATM   40  C   UNL     1     -12.157   7.622  71.409  1.00  0.00    -0.316 C  
HETATM   41  C   UNL     1      -7.792   6.080  71.236  1.00  0.00    -0.112 C  
HETATM   42  C   UNL     1      -9.941   5.529  72.316  1.00  0.00    -0.211 C  
HETATM   43  O   UNL     1     -12.854   6.662  71.184  1.00  0.00    -0.233 OA 
ENDBRANCH  30  32
ENDBRANCH  29  30
ENDBRANCH  28  29
ENDBRANCH  27  28
ENDBRANCH  25  27
ENDBRANCH   7  25
TORSDOF 9
ENDMDL
MODEL       20
REMARK 921   NORMALIZED FREE ENERGY PREDICTED BY IDOCK:   -7.26 KCAL/MOL
REMARK 922        TOTAL FREE ENERGY PREDICTED BY IDOCK:  -11.58 KCAL/MOL
REMARK 923 INTER-LIGAND FREE ENERGY PREDICTED BY IDOCK:  -11.00 KCAL/MOL
REMARK 924 INTRA-LIGAND FREE ENERGY PREDICTED BY IDOCK:   -0.58 KCAL/MOL
REMARK 927      BINDING AFFINITY PREDICTED BY RF-SCORE:    0.00 PKD
ROOT
HETATM    1  C   UNL     1     -11.860  13.256  68.241  1.00  0.00    -0.389 C  
HETATM    2  C   UNL     1     -10.745  12.433  67.562  1.00  0.00    -0.228 C  
HETATM    3  S   UNL     1      -9.364  13.611  67.181  1.00  0.00    -0.249 SA 
HETATM    4  C   UNL     1     -10.295  11.395  68.598  1.00  0.00    -0.219 C  
HETATM    5  C   UNL     1      -9.909  13.896  65.429  1.00  0.00    -0.163 C  
HETATM    6  C   UNL     1     -10.878  15.082  65.155  1.00  0.00    -0.407 C  
HETATM    7  C   UNL     1     -11.163  11.864  66.180  1.00  0.00    -0.333 C  
HETATM    8  C   UNL     1     -11.976  13.986  65.177  1.00  0.00    -0.387 C  
HETATM    9  O   UNL     1     -13.179  13.952  65.301  1.00  0.00    -0.774 OA 
HETATM   10  N   UNL     1     -11.052  12.984  65.236  1.00  0.00    -0.283 N  
ENDROOT
BRANCH   6  11
HETATM   11  N   UNL     1     -10.953  16.145  66.193  1.00  0.00    -0.120 N  
HETATM   12  C   UNL     1      -9.921  17.041  66.374  1.00  0.00    -0.307 C  
HETATM   13  O   UNL     1      -8.974  17.114  65.592  1.00  0.00    -0.491 OA 
HETATM   14  H   UNL     1     -11.784  16.213  66.781  1.00  0.00     0.000 HD 
BRANCH  12  15
HETATM   15  C   UNL     1     -10.024  17.915  67.644  1.00  0.00    -0.324 C  
HETATM   16  H2  UNL     1     -11.620  19.046  66.897  1.00  0.00     0.000 HD 
HETATM   17  N   UNL     1     -10.710  19.197  67.330  1.00  0.00    -0.482 NA 
HETATM   18  H1  UNL     1     -10.777  19.774  68.168  1.00  0.00     0.000 HD 
BRANCH  15  19
HETATM   19  C   UNL     1      -8.689  18.138  68.333  1.00  0.00    -0.302 A  
HETATM   20  C   UNL     1      -7.871  17.073  68.747  1.00  0.00    -0.253 A  
HETATM   21  C   UNL     1      -8.218  19.449  68.519  1.00  0.00    -0.392 A  
HETATM   22  C   UNL     1      -6.941  19.682  69.034  1.00  0.00    -0.390 A  
HETATM   23  C   UNL     1      -6.592  17.307  69.254  1.00  0.00    -0.237 A  
HETATM   24  C   UNL     1      -6.121  18.611  69.383  1.00  0.00    -0.274 A  
ENDBRANCH  15  19
ENDBRANCH  12  15
ENDBRANCH   6  11
BRANCH   7  25
HETATM   25  C   UNL     1     -10.250  10.746  65.627  1.00  0.00    -0.257 C  
HETATM   26  O   UNL     1      -9.393  10.891  64.760  1.00  0.00    -0.210 OA 
BRANCH  25  27
HETATM   27  O   UNL     1     -10.520   9.546  66.216  1.00  0.00    -0.192 OA 
BRANCH  27  28
HETATM   28  C   UNL     1      -9.478   8.572  66.092  1.00  0.00    -0.217 C  
BRANCH  28  29
HETATM   29  O   UNL     1      -9.601   7.568  67.094  1.00  0.00    -0.143 OA 
BRANCH  29  30
HETATM   30  C   UNL     1      -9.038   7.850  68.297  1.00  0.00    -0.134 C  
HETATM   31  O   UNL     1      -7.844   8.052  68.475  1.00  0.00    -0.110 OA 
BRANCH  30  32
HETATM   32  C   UNL     1     -10.101   7.911  69.416  1.00  0.00    -0.196 C  
HETATM   33  N   UNL     1      -9.504   8.534  70.609  1.00  0.00    -0.166 N  
HETATM   34  C   UNL     1      -8.753   7.657  71.548  1.00  0.00    -0.120 C  
HETATM   35  S   UNL     1      -9.300   6.016  71.030  1.00  0.00    -0.161 S  
HETATM   36  C   UNL     1      -9.468   8.380  72.692  1.00  0.00    -0.335 C  
HETATM   37  O   UNL     1      -8.235   5.398  70.259  1.00  0.00    -0.097 OA 
HETATM   38  O   UNL     1      -9.899   5.313  72.147  1.00  0.00    -0.163 OA 
HETATM   39  C   UNL     1     -10.611   6.521  69.865  1.00  0.00    -0.233 C  
HETATM   40  C   UNL     1     -10.258   9.101  71.591  1.00  0.00    -0.301 C  
HETATM   41  C   UNL     1     -10.783   5.478  68.752  1.00  0.00    -0.195 C  
HETATM   42  C   UNL     1     -11.966   6.608  70.598  1.00  0.00    -0.404 C  
HETATM   43  O   UNL     1     -11.285   9.731  71.514  1.00  0.00    -0.360 OA 
ENDBRANCH  30  32
ENDBRANCH  29  30
ENDBRANCH  28  29
ENDBRANCH  27  28
ENDBRANCH  25  27
ENDBRANCH   7  25
TORSDOF 9
ENDMDL
MODEL       21
REMARK 921   NORMALIZED FREE ENERGY PREDICTED BY IDOCK:   -7.21 KCAL/MOL
REMARK 922        TOTAL FREE ENERGY PREDICTED BY IDOCK:  -11.51 KCAL/MOL
REMARK 923 INTER-LIGAND FREE ENERGY PREDICTED BY IDOCK:  -11.10 KCAL/MOL
REMARK 924 INTRA-LIGAND FREE ENERGY PREDICTED BY IDOCK:   -0.40 KCAL/MOL
REMARK 927      BINDING AFFINITY PREDICTED BY RF-SCORE:    0.00 PKD
ROOT
HETATM    1  C   UNL     1     -10.302  13.551  64.988  1.00  0.00    -0.379 C  
HETATM    2  C   UNL     1     -10.426  12.020  65.139  1.00  0.00    -0.289 C  
HETATM    3  S   UNL     1     -11.521  11.713  66.605  1.00  0.00    -0.098 SA 
HETATM    4  C   UNL     1     -11.098  11.521  63.854  1.00  0.00    -0.458 C  
HETATM    5  C   UNL     1     -10.105  11.489  67.786  1.00  0.00    -0.182 C  
HETATM    6  C   UNL     1      -9.589  12.744  68.546  1.00  0.00    -0.110 C  
HETATM    7  C   UNL     1      -9.083  11.334  65.506  1.00  0.00    -0.170 C  
HETATM    8  C   UNL     1      -8.494  12.767  67.447  1.00  0.00    -0.191 C  
HETATM    9  O   UNL     1      -7.702  13.573  67.014  1.00  0.00    -0.040 OA 
HETATM   10  N   UNL     1      -8.896  11.564  66.945  1.00  0.00    -0.175 N  
ENDROOT
BRANCH   6  11
HETATM   11  N   UNL     1     -10.507  13.912  68.620  1.00  0.00    -0.245 N  
HETATM   12  C   UNL     1     -10.135  15.073  69.263  1.00  0.00    -0.233 C  
HETATM   13  O   UNL     1      -8.984  15.263  69.656  1.00  0.00    -0.232 OA 
HETATM   14  H   UNL     1     -11.429  13.853  68.187  1.00  0.00     0.000 HD 
BRANCH  12  15
HETATM   15  C   UNL     1     -11.272  16.097  69.485  1.00  0.00    -0.337 C  
HETATM   16  H2  UNL     1     -10.192  17.678  68.638  1.00  0.00     0.000 HD 
HETATM   17  N   UNL     1     -10.724  17.480  69.484  1.00  0.00    -0.273 NA 
HETATM   18  H1  UNL     1     -11.474  18.154  69.631  1.00  0.00     0.000 HD 
BRANCH  15  19
HETATM   19  C   UNL     1     -12.105  15.815  70.723  1.00  0.00    -0.448 A  
HETATM   20  C   UNL     1     -11.664  16.147  72.016  1.00  0.00    -0.574 A  
HETATM   21  C   UNL     1     -13.386  15.257  70.580  1.00  0.00    -0.320 A  
HETATM   22  C   UNL     1     -14.225  15.103  71.687  1.00  0.00    -0.664 A  
HETATM   23  C   UNL     1     -12.506  16.001  73.118  1.00  0.00    -0.633 A  
HETATM   24  C   UNL     1     -13.792  15.493  72.952  1.00  0.00    -0.536 A  
ENDBRANCH  15  19
ENDBRANCH  12  15
ENDBRANCH   6  11
BRANCH   7  25
HETATM   25  C   UNL     1      -9.055   9.801  65.311  1.00  0.00    -0.211 C  
HETATM   26  O   UNL     1      -8.189   9.177  64.705  1.00  0.00    -0.134 OA 
BRANCH  25  27
HETATM   27  O   UNL     1     -10.136   9.205  65.891  1.00  0.00    -0.273 OA 
BRANCH  27  28
HETATM   28  C   UNL     1      -9.857   7.956  66.532  1.00  0.00    -0.202 C  
BRANCH  28  29
HETATM   29  O   UNL     1     -10.763   7.723  67.606  1.00  0.00    -0.225 OA 
BRANCH  29  30
HETATM   30  C   UNL     1     -10.850   6.443  68.049  1.00  0.00    -0.316 C  
HETATM   31  O   UNL     1     -10.678   5.453  67.350  1.00  0.00    -0.201 OA 
BRANCH  30  32
HETATM   32  C   UNL     1     -11.167   6.390  69.560  1.00  0.00    -0.412 C  
HETATM   33  N   UNL     1     -11.242   7.764  70.081  1.00  0.00    -0.210 N  
HETATM   34  C   UNL     1      -9.972   8.418  70.501  1.00  0.00    -0.185 C  
HETATM   35  S   UNL     1      -8.856   7.004  70.620  1.00  0.00    -0.150 S  
HETATM   36  C   UNL     1     -10.716   8.916  71.742  1.00  0.00    -0.432 C  
HETATM   37  O   UNL     1      -7.985   7.006  69.457  1.00  0.00    -0.119 OA 
HETATM   38  O   UNL     1      -8.297   6.919  71.954  1.00  0.00    -0.108 OA 
HETATM   39  C   UNL     1     -10.082   5.670  70.396  1.00  0.00    -0.219 C  
HETATM   40  C   UNL     1     -11.894   8.073  71.236  1.00  0.00    -0.294 C  
HETATM   41  C   UNL     1      -9.437   4.440  69.743  1.00  0.00    -0.254 C  
HETATM   42  C   UNL     1     -10.618   5.208  71.768  1.00  0.00    -0.238 C  
HETATM   43  O   UNL     1     -12.911   7.615  71.697  1.00  0.00    -0.334 OA 
ENDBRANCH  30  32
ENDBRANCH  29  30
ENDBRANCH  28  29
ENDBRANCH  27  28
ENDBRANCH  25  27
ENDBRANCH   7  25
TORSDOF 9
ENDMDL
MODEL       22
REMARK 921   NORMALIZED FREE ENERGY PREDICTED BY IDOCK:   -7.14 KCAL/MOL
REMARK 922        TOTAL FREE ENERGY PREDICTED BY IDOCK:  -11.40 KCAL/MOL
REMARK 923 INTER-LIGAND FREE ENERGY PREDICTED BY IDOCK:  -11.03 KCAL/MOL
REMARK 924 INTRA-LIGAND FREE ENERGY PREDICTED BY IDOCK:   -0.37 KCAL/MOL
REMARK 927      BINDING AFFINITY PREDICTED BY RF-SCORE:    0.00 PKD
ROOT
HETATM    1  C   UNL     1     -10.411   8.931  66.751  1.00  0.00    -0.317 C  
HETATM    2  C   UNL     1      -9.129   9.634  67.244  1.00  0.00    -0.134 C  
HETATM    3  S   UNL     1      -8.842   9.068  68.987  1.00  0.00    -0.137 SA 
HETATM    4  C   UNL     1      -8.000   9.145  66.328  1.00  0.00    -0.103 C  
HETATM    5  C   UNL     1      -9.673  10.544  69.747  1.00  0.00     0.035 C  
HETATM    6  C   UNL     1     -11.193  10.440  70.057  1.00  0.00    -0.316 C  
HETATM    7  C   UNL     1      -9.284  11.174  67.356  1.00  0.00    -0.153 C  
HETATM    8  C   UNL     1     -11.361  11.204  68.717  1.00  0.00    -0.277 C  
HETATM    9  O   UNL     1     -12.254  11.400  67.924  1.00  0.00    -0.592 OA 
HETATM   10  N   UNL     1     -10.018  11.413  68.606  1.00  0.00    -0.207 N  
ENDROOT
BRANCH   6  11
HETATM   11  N   UNL     1     -11.773   9.073  70.141  1.00  0.00    -0.463 N  
HETATM   12  C   UNL     1     -11.601   8.291  71.264  1.00  0.00    -0.281 C  
HETATM   13  O   UNL     1     -11.114   8.737  72.302  1.00  0.00    -0.359 OA 
HETATM   14  H   UNL     1     -12.307   8.706  69.354  1.00  0.00     0.000 HD 
BRANCH  12  15
HETATM   15  C   UNL     1     -12.030   6.815  71.111  1.00  0.00    -0.370 C  
HETATM   16  H2  UNL     1     -12.867   6.722  73.029  1.00  0.00     0.000 HD 
HETATM   17  N   UNL     1     -12.215   6.194  72.450  1.00  0.00    -0.532 NA 
HETATM   18  H1  UNL     1     -12.498   5.219  72.349  1.00  0.00     0.000 HD 
BRANCH  15  19
HETATM   19  C   UNL     1     -11.098   6.003  70.230  1.00  0.00    -0.415 A  
HETATM   20  C   UNL     1     -10.214   5.045  70.756  1.00  0.00    -0.299 A  
HETATM   21  C   UNL     1     -11.151   6.164  68.835  1.00  0.00    -0.417 A  
HETATM   22  C   UNL     1     -10.397   5.343  67.993  1.00  0.00    -0.215 A  
HETATM   23  C   UNL     1      -9.469   4.220  69.913  1.00  0.00    -0.260 A  
HETATM   24  C   UNL     1      -9.571   4.359  68.532  1.00  0.00    -0.208 A  
ENDBRANCH  15  19
ENDBRANCH  12  15
ENDBRANCH   6  11
BRANCH   7  25
HETATM   25  C   UNL     1      -7.958  11.959  67.481  1.00  0.00    -0.155 C  
HETATM   26  O   UNL     1      -6.915  11.523  67.958  1.00  0.00    -0.071 OA 
BRANCH  25  27
HETATM   27  O   UNL     1      -8.085  13.230  67.001  1.00  0.00    -0.124 OA 
BRANCH  27  28
HETATM   28  C   UNL     1      -7.110  14.155  67.494  1.00  0.00    -0.163 C  
BRANCH  28  29
HETATM   29  O   UNL     1      -7.738  15.265  68.127  1.00  0.00    -0.111 OA 
BRANCH  29  30
HETATM   30  C   UNL     1      -8.195  16.244  67.305  1.00  0.00    -0.172 C  
HETATM   31  O   UNL     1      -8.524  16.074  66.139  1.00  0.00    -0.323 OA 
BRANCH  30  32
HETATM   32  C   UNL     1      -8.276  17.602  68.037  1.00  0.00    -0.242 C  
HETATM   33  N   UNL     1      -9.434  18.353  67.525  1.00  0.00    -0.268 N  
HETATM   34  C   UNL     1      -9.244  19.171  66.297  1.00  0.00    -0.313 C  
HETATM   35  S   UNL     1      -7.443  19.261  66.194  1.00  0.00    -0.279 S  
HETATM   36  C   UNL     1     -10.030  20.283  66.995  1.00  0.00    -0.601 C  
HETATM   37  O   UNL     1      -6.995  18.351  65.154  1.00  0.00    -0.501 OA 
HETATM   38  O   UNL     1      -7.011  20.644  66.195  1.00  0.00    -0.232 OA 
HETATM   39  C   UNL     1      -7.041  18.505  67.807  1.00  0.00    -0.215 C  
HETATM   40  C   UNL     1     -10.016  19.365  68.225  1.00  0.00    -0.422 C  
HETATM   41  C   UNL     1      -5.686  17.787  67.750  1.00  0.00    -0.146 C  
HETATM   42  C   UNL     1      -6.913  19.600  68.888  1.00  0.00    -0.382 C  
HETATM   43  O   UNL     1     -10.194  19.483  69.413  1.00  0.00    -0.291 OA 
ENDBRANCH  30  32
ENDBRANCH  29  30
ENDBRANCH  28  29
ENDBRANCH  27  28
ENDBRANCH  25  27
ENDBRANCH   7  25
TORSDOF 9
ENDMDL
MODEL       23
REMARK 921   NORMALIZED FREE ENERGY PREDICTED BY IDOCK:   -7.14 KCAL/MOL
REMARK 922        TOTAL FREE ENERGY PREDICTED BY IDOCK:  -11.40 KCAL/MOL
REMARK 923 INTER-LIGAND FREE ENERGY PREDICTED BY IDOCK:  -10.85 KCAL/MOL
REMARK 924 INTRA-LIGAND FREE ENERGY PREDICTED BY IDOCK:   -0.55 KCAL/MOL
REMARK 927      BINDING AFFINITY PREDICTED BY RF-SCORE:    0.00 PKD
ROOT
HETATM    1  C   UNL     1      -7.682  11.508  66.777  1.00  0.00    -0.136 C  
HETATM    2  C   UNL     1      -8.482  10.361  66.125  1.00  0.00    -0.147 C  
HETATM    3  S   UNL     1     -10.252  10.913  66.055  1.00  0.00    -0.253 SA 
HETATM    4  C   UNL     1      -7.914  10.200  64.710  1.00  0.00    -0.146 C  
HETATM    5  C   UNL     1     -10.725  10.047  67.629  1.00  0.00    -0.284 C  
HETATM    6  C   UNL     1     -10.620  10.849  68.957  1.00  0.00    -0.216 C  
HETATM    7  C   UNL     1      -8.511   9.072  66.988  1.00  0.00    -0.120 C  
HETATM    8  C   UNL     1      -9.266  10.109  69.116  1.00  0.00    -0.197 C  
HETATM    9  O   UNL     1      -8.258  10.252  69.770  1.00  0.00    -0.164 OA 
HETATM   10  N   UNL     1      -9.513   9.313  68.035  1.00  0.00    -0.137 N  
ENDROOT
BRANCH   6  11
HETATM   11  N   UNL     1     -10.580  12.332  68.849  1.00  0.00    -0.372 N  
HETATM   12  C   UNL     1     -11.547  13.119  69.438  1.00  0.00    -0.300 C  
HETATM   13  O   UNL     1     -12.384  12.655  70.211  1.00  0.00    -0.281 OA 
HETATM   14  H   UNL     1      -9.822  12.776  68.329  1.00  0.00     0.000 HD 
BRANCH  12  15
HETATM   15  C   UNL     1     -11.523  14.609  69.029  1.00  0.00    -0.291 C  
HETATM   16  H2  UNL     1     -12.651  15.217  70.685  1.00  0.00     0.000 HD 
HETATM   17  N   UNL     1     -12.651  15.334  69.672  1.00  0.00    -0.612 NA 
HETATM   18  H1  UNL     1     -12.635  16.318  69.402  1.00  0.00     0.000 HD 
BRANCH  15  19
HETATM   19  C   UNL     1     -11.492  14.822  67.526  1.00  0.00    -0.369 A  
HETATM   20  C   UNL     1     -10.590  15.709  66.913  1.00  0.00    -0.311 A  
HETATM   21  C   UNL     1     -12.349  14.071  66.704  1.00  0.00    -0.408 A  
HETATM   22  C   UNL     1     -12.256  14.154  65.312  1.00  0.00    -0.440 A  
HETATM   23  C   UNL     1     -10.493  15.783  65.523  1.00  0.00    -0.425 A  
HETATM   24  C   UNL     1     -11.315  14.995  64.723  1.00  0.00    -0.409 A  
ENDBRANCH  15  19
ENDBRANCH  12  15
ENDBRANCH   6  11
BRANCH   7  25
HETATM   25  C   UNL     1      -8.967   7.795  66.246  1.00  0.00    -0.174 C  
HETATM   26  O   UNL     1      -8.257   7.099  65.527  1.00  0.00    -0.129 OA 
BRANCH  25  27
HETATM   27  O   UNL     1     -10.285   7.530  66.474  1.00  0.00    -0.210 OA 
BRANCH  27  28
HETATM   28  C   UNL     1     -10.554   6.209  66.955  1.00  0.00    -0.315 C  
BRANCH  28  29
HETATM   29  O   UNL     1     -11.271   6.253  68.185  1.00  0.00    -0.327 OA 
BRANCH  29  30
HETATM   30  C   UNL     1     -10.526   6.158  69.316  1.00  0.00    -0.254 C  
HETATM   31  O   UNL     1      -9.303   6.129  69.341  1.00  0.00    -0.138 OA 
BRANCH  30  32
HETATM   32  C   UNL     1     -11.418   6.118  70.577  1.00  0.00    -0.260 C  
HETATM   33  N   UNL     1     -11.943   7.469  70.834  1.00  0.00    -0.282 N  
HETATM   34  C   UNL     1     -11.095   8.406  71.619  1.00  0.00    -0.278 C  
HETATM   35  S   UNL     1      -9.893   7.279  72.356  1.00  0.00    -0.160 S  
HETATM   36  C   UNL     1     -12.357   8.796  72.393  1.00  0.00    -0.414 C  
HETATM   37  O   UNL     1      -8.638   7.408  71.635  1.00  0.00    -0.115 OA 
HETATM   38  O   UNL     1      -9.923   7.390  73.801  1.00  0.00    -0.310 OA 
HETATM   39  C   UNL     1     -10.661   5.699  71.859  1.00  0.00    -0.232 C  
HETATM   40  C   UNL     1     -13.054   7.689  71.589  1.00  0.00    -0.353 C  
HETATM   41  C   UNL     1      -9.597   4.607  71.684  1.00  0.00    -0.221 C  
HETATM   42  C   UNL     1     -11.619   5.205  72.964  1.00  0.00    -0.301 C  
HETATM   43  O   UNL     1     -14.072   7.045  71.677  1.00  0.00    -0.359 OA 
ENDBRANCH  30  32
ENDBRANCH  29  30
ENDBRANCH  28  29
ENDBRANCH  27  28
ENDBRANCH  25  27
ENDBRANCH   7  25
TORSDOF 9
ENDMDL
MODEL       24
REMARK 921   NORMALIZED FREE ENERGY PREDICTED BY IDOCK:   -7.12 KCAL/MOL
REMARK 922        TOTAL FREE ENERGY PREDICTED BY IDOCK:  -11.37 KCAL/MOL
REMARK 923 INTER-LIGAND FREE ENERGY PREDICTED BY IDOCK:  -10.41 KCAL/MOL
REMARK 924 INTRA-LIGAND FREE ENERGY PREDICTED BY IDOCK:   -0.97 KCAL/MOL
REMARK 927      BINDING AFFINITY PREDICTED BY RF-SCORE:    0.00 PKD
ROOT
HETATM    1  C   UNL     1      -9.632  13.522  68.801  1.00  0.00     0.009 C  
HETATM    2  C   UNL     1     -10.945  13.473  67.992  1.00  0.00    -0.251 C  
HETATM    3  S   UNL     1     -11.943  12.066  68.674  1.00  0.00    -0.119 SA 
HETATM    4  C   UNL     1     -11.652  14.809  68.252  1.00  0.00    -0.348 C  
HETATM    5  C   UNL     1     -11.368  10.857  67.386  1.00  0.00    -0.195 C  
HETATM    6  C   UNL     1     -10.109  10.002  67.706  1.00  0.00    -0.183 C  
HETATM    7  C   UNL     1     -10.727  13.108  66.499  1.00  0.00    -0.279 C  
HETATM    8  C   UNL     1      -9.364  11.061  66.851  1.00  0.00    -0.173 C  
HETATM    9  O   UNL     1      -8.218  11.416  66.696  1.00  0.00    -0.159 OA 
HETATM   10  N   UNL     1     -10.533  11.652  66.467  1.00  0.00    -0.230 N  
ENDROOT
BRANCH   6  11
HETATM   11  N   UNL     1      -9.720   9.883  69.137  1.00  0.00    -0.187 N  
HETATM   12  C   UNL     1      -9.439   8.657  69.701  1.00  0.00    -0.162 C  
HETATM   13  O   UNL     1      -9.332   7.635  69.024  1.00  0.00    -0.147 OA 
HETATM   14  H   UNL     1      -9.659  10.723  69.711  1.00  0.00     0.000 HD 
BRANCH  12  15
HETATM   15  C   UNL     1      -9.304   8.656  71.241  1.00  0.00    -0.224 C  
HETATM   16  H2  UNL     1      -7.591   9.861  71.223  1.00  0.00     0.000 HD 
HETATM   17  N   UNL     1      -7.906   8.982  71.633  1.00  0.00    -0.341 NA 
HETATM   18  H1  UNL     1      -7.818   8.982  72.648  1.00  0.00     0.000 HD 
BRANCH  15  19
HETATM   19  C   UNL     1      -9.792   7.372  71.889  1.00  0.00    -0.187 A  
HETATM   20  C   UNL     1      -8.928   6.504  72.578  1.00  0.00    -0.136 A  
HETATM   21  C   UNL     1     -11.161   7.060  71.855  1.00  0.00    -0.282 A  
HETATM   22  C   UNL     1     -11.658   5.953  72.550  1.00  0.00    -0.327 A  
HETATM   23  C   UNL     1      -9.427   5.405  73.278  1.00  0.00    -0.146 A  
HETATM   24  C   UNL     1     -10.793   5.138  73.276  1.00  0.00    -0.352 A  
ENDBRANCH  15  19
ENDBRANCH  12  15
ENDBRANCH   6  11
BRANCH   7  25
HETATM   25  C   UNL     1     -11.927  13.400  65.570  1.00  0.00    -0.398 C  
HETATM   26  O   UNL     1     -12.831  12.612  65.307  1.00  0.00    -0.656 OA 
BRANCH  25  27
HETATM   27  O   UNL     1     -11.861  14.660  65.052  1.00  0.00    -0.371 OA 
BRANCH  27  28
HETATM   28  C   UNL     1     -10.537  15.119  64.765  1.00  0.00    -0.276 C  
BRANCH  28  29
HETATM   29  O   UNL     1     -10.284  16.368  65.401  1.00  0.00    -0.546 OA 
BRANCH  29  30
HETATM   30  C   UNL     1      -9.062  16.510  65.976  1.00  0.00    -0.255 C  
HETATM   31  O   UNL     1      -8.374  15.583  66.383  1.00  0.00    -0.259 OA 
BRANCH  30  32
HETATM   32  C   UNL     1      -8.632  17.993  66.026  1.00  0.00     0.006 C  
HETATM   33  N   UNL     1      -7.163  18.067  65.964  1.00  0.00    -0.287 N  
HETATM   34  C   UNL     1      -6.406  17.937  67.238  1.00  0.00    -0.163 C  
HETATM   35  S   UNL     1      -7.706  18.206  68.462  1.00  0.00    -0.295 S  
HETATM   36  C   UNL     1      -5.541  19.108  66.768  1.00  0.00    -0.157 C  
HETATM   37  O   UNL     1      -8.072  16.922  69.035  1.00  0.00    -0.237 OA 
HETATM   38  O   UNL     1      -7.360  19.320  69.323  1.00  0.00    -0.326 OA 
HETATM   39  C   UNL     1      -9.045  18.714  67.331  1.00  0.00    -0.279 C  
HETATM   40  C   UNL     1      -6.505  19.194  65.576  1.00  0.00    -0.268 C  
HETATM   41  C   UNL     1     -10.417  18.333  67.903  1.00  0.00    -0.408 C  
HETATM   42  C   UNL     1      -9.048  20.250  67.169  1.00  0.00    -0.499 C  
HETATM   43  O   UNL     1      -6.795  20.011  64.735  1.00  0.00    -0.314 OA 
ENDBRANCH  30  32
ENDBRANCH  29  30
ENDBRANCH  28  29
ENDBRANCH  27  28
ENDBRANCH  25  27
ENDBRANCH   7  25
TORSDOF 9
ENDMDL
MODEL       25
REMARK 921   NORMALIZED FREE ENERGY PREDICTED BY IDOCK:   -7.07 KCAL/MOL
REMARK 922        TOTAL FREE ENERGY PREDICTED BY IDOCK:  -11.30 KCAL/MOL
REMARK 923 INTER-LIGAND FREE ENERGY PREDICTED BY IDOCK:  -10.45 KCAL/MOL
REMARK 924 INTRA-LIGAND FREE ENERGY PREDICTED BY IDOCK:   -0.85 KCAL/MOL
REMARK 927      BINDING AFFINITY PREDICTED BY RF-SCORE:    0.00 PKD
ROOT
HETATM    1  C   UNL     1      -7.787  11.267  68.693  1.00  0.00    -0.139 C  
HETATM    2  C   UNL     1      -7.846  10.104  67.680  1.00  0.00    -0.098 C  
HETATM    3  S   UNL     1      -7.704  10.856  65.990  1.00  0.00    -0.058 SA 
HETATM    4  C   UNL     1      -6.628   9.221  67.979  1.00  0.00    -0.060 C  
HETATM    5  C   UNL     1      -9.539  10.898  65.707  1.00  0.00    -0.216 C  
HETATM    6  C   UNL     1     -10.307  12.186  66.119  1.00  0.00    -0.234 C  
HETATM    7  C   UNL     1      -9.216   9.376  67.668  1.00  0.00    -0.127 C  
HETATM    8  C   UNL     1     -10.658  11.380  67.398  1.00  0.00    -0.218 C  
HETATM    9  O   UNL     1     -11.058  11.632  68.512  1.00  0.00    -0.201 OA 
HETATM   10  N   UNL     1     -10.119  10.235  66.890  1.00  0.00    -0.211 N  
ENDROOT
BRANCH   6  11
HETATM   11  N   UNL     1      -9.502  13.425  66.292  1.00  0.00    -0.420 N  
HETATM   12  C   UNL     1     -10.093  14.670  66.262  1.00  0.00    -0.294 C  
HETATM   13  O   UNL     1     -11.315  14.814  66.261  1.00  0.00    -0.343 OA 
HETATM   14  H   UNL     1      -8.495  13.352  66.435  1.00  0.00     0.000 HD 
BRANCH  12  15
HETATM   15  C   UNL     1      -9.112  15.863  66.195  1.00  0.00    -0.350 C  
HETATM   16  H2  UNL     1      -7.414  14.640  66.274  1.00  0.00     0.000 HD 
HETATM   17  N   UNL     1      -7.786  15.467  66.740  1.00  0.00    -0.282 NA 
HETATM   18  H1  UNL     1      -7.139  16.254  66.696  1.00  0.00     0.000 HD 
BRANCH  15  19
HETATM   19  C   UNL     1      -9.646  17.122  66.855  1.00  0.00    -0.268 A  
HETATM   20  C   UNL     1      -9.599  17.318  68.245  1.00  0.00    -0.288 A  
HETATM   21  C   UNL     1     -10.155  18.158  66.054  1.00  0.00    -0.272 A  
HETATM   22  C   UNL     1     -10.536  19.377  66.621  1.00  0.00    -0.568 A  
HETATM   23  C   UNL     1      -9.972  18.539  68.809  1.00  0.00    -0.417 A  
HETATM   24  C   UNL     1     -10.426  19.573  67.996  1.00  0.00    -0.528 A  
ENDBRANCH  15  19
ENDBRANCH  12  15
ENDBRANCH   6  11
BRANCH   7  25
HETATM   25  C   UNL     1      -9.222   8.000  66.964  1.00  0.00    -0.147 C  
HETATM   26  O   UNL     1      -8.226   7.387  66.591  1.00  0.00    -0.118 OA 
BRANCH  25  27
HETATM   27  O   UNL     1     -10.492   7.536  66.786  1.00  0.00    -0.305 OA 
BRANCH  27  28
HETATM   28  C   UNL     1     -10.749   6.257  67.373  1.00  0.00    -0.331 C  
BRANCH  28  29
HETATM   29  O   UNL     1     -11.457   6.395  68.602  1.00  0.00    -0.254 OA 
BRANCH  29  30
HETATM   30  C   UNL     1     -10.914   5.773  69.679  1.00  0.00    -0.315 C  
HETATM   31  O   UNL     1     -10.157   4.813  69.618  1.00  0.00    -0.229 OA 
BRANCH  30  32
HETATM   32  C   UNL     1     -11.349   6.448  70.999  1.00  0.00    -0.328 C  
HETATM   33  N   UNL     1     -11.733   7.841  70.719  1.00  0.00    -0.264 N  
HETATM   34  C   UNL     1     -10.656   8.868  70.699  1.00  0.00    -0.229 C  
HETATM   35  S   UNL     1      -9.305   7.994  71.517  1.00  0.00    -0.163 S  
HETATM   36  C   UNL     1     -11.590   9.769  71.510  1.00  0.00    -0.424 C  
HETATM   37  O   UNL     1      -8.349   7.574  70.507  1.00  0.00    -0.127 OA 
HETATM   38  O   UNL     1      -8.862   8.735  72.681  1.00  0.00    -0.394 OA 
HETATM   39  C   UNL     1     -10.227   6.515  72.061  1.00  0.00    -0.193 C  
HETATM   40  C   UNL     1     -12.534   8.559  71.554  1.00  0.00    -0.317 C  
HETATM   41  C   UNL     1      -9.301   5.293  72.138  1.00  0.00    -0.159 C  
HETATM   42  C   UNL     1     -10.785   6.733  73.483  1.00  0.00    -0.319 C  
HETATM   43  O   UNL     1     -13.482   8.206  72.213  1.00  0.00    -0.246 OA 
ENDBRANCH  30  32
ENDBRANCH  29  30
ENDBRANCH  28  29
ENDBRANCH  27  28
ENDBRANCH  25  27
ENDBRANCH   7  25
TORSDOF 9
ENDMDL
MODEL       26
REMARK 921   NORMALIZED FREE ENERGY PREDICTED BY IDOCK:   -7.07 KCAL/MOL
REMARK 922        TOTAL FREE ENERGY PREDICTED BY IDOCK:  -11.29 KCAL/MOL
REMARK 923 INTER-LIGAND FREE ENERGY PREDICTED BY IDOCK:  -10.13 KCAL/MOL
REMARK 924 INTRA-LIGAND FREE ENERGY PREDICTED BY IDOCK:   -1.16 KCAL/MOL
REMARK 927      BINDING AFFINITY PREDICTED BY RF-SCORE:    0.00 PKD
ROOT
HETATM    1  C   UNL     1      -9.779  10.838  69.327  1.00  0.00    -0.142 C  
HETATM    2  C   UNL     1     -10.893  11.088  68.288  1.00  0.00    -0.215 C  
HETATM    3  S   UNL     1     -10.903   9.622  67.151  1.00  0.00    -0.001 SA 
HETATM    4  C   UNL     1     -12.203  11.161  69.082  1.00  0.00    -0.244 C  
HETATM    5  C   UNL     1      -9.836  10.439  65.869  1.00  0.00    -0.235 C  
HETATM    6  C   UNL     1      -8.297  10.236  65.972  1.00  0.00    -0.142 C  
HETATM    7  C   UNL     1     -10.600  12.297  67.361  1.00  0.00    -0.222 C  
HETATM    8  C   UNL     1      -8.315  11.631  66.651  1.00  0.00    -0.154 C  
HETATM    9  O   UNL     1      -7.568  12.277  67.350  1.00  0.00    -0.140 OA 
HETATM   10  N   UNL     1      -9.636  11.814  66.363  1.00  0.00    -0.212 N  
ENDROOT
BRANCH   6  11
HETATM   11  N   UNL     1      -7.821   9.086  66.786  1.00  0.00    -0.103 N  
HETATM   12  C   UNL     1      -7.878   7.796  66.303  1.00  0.00    -0.091 C  
HETATM   13  O   UNL     1      -8.164   7.548  65.132  1.00  0.00    -0.134 OA 
HETATM   14  H   UNL     1      -7.444   9.254  67.718  1.00  0.00     0.000 HD 
BRANCH  12  15
HETATM   15  C   UNL     1      -7.595   6.690  67.344  1.00  0.00    -0.104 C  
HETATM   16  H2  UNL     1      -7.154   5.250  65.889  1.00  0.00     0.000 HD 
HETATM   17  N   UNL     1      -7.739   5.348  66.719  1.00  0.00    -0.099 NA 
HETATM   18  H1  UNL     1      -7.552   4.618  67.406  1.00  0.00     0.000 HD 
BRANCH  15  19
HETATM   19  C   UNL     1      -8.428   6.821  68.607  1.00  0.00    -0.123 A  
HETATM   20  C   UNL     1      -7.889   7.295  69.815  1.00  0.00    -0.117 A  
HETATM   21  C   UNL     1      -9.799   6.515  68.565  1.00  0.00    -0.140 A  
HETATM   22  C   UNL     1     -10.615   6.746  69.675  1.00  0.00    -0.267 A  
HETATM   23  C   UNL     1      -8.708   7.533  70.920  1.00  0.00    -0.142 A  
HETATM   24  C   UNL     1     -10.073   7.273  70.845  1.00  0.00    -0.192 A  
ENDBRANCH  15  19
ENDBRANCH  12  15
ENDBRANCH   6  11
BRANCH   7  25
HETATM   25  C   UNL     1     -11.816  12.821  66.563  1.00  0.00    -0.405 C  
HETATM   26  O   UNL     1     -12.378  12.224  65.650  1.00  0.00    -0.619 OA 
BRANCH  25  27
HETATM   27  O   UNL     1     -12.195  14.060  66.988  1.00  0.00    -0.430 OA 
BRANCH  27  28
HETATM   28  C   UNL     1     -11.656  14.448  68.255  1.00  0.00    -0.328 C  
BRANCH  28  29
HETATM   29  O   UNL     1     -11.325  15.834  68.264  1.00  0.00    -0.344 OA 
BRANCH  29  30
HETATM   30  C   UNL     1     -10.340  16.210  69.119  1.00  0.00    -0.259 C  
HETATM   31  O   UNL     1      -9.945  15.537  70.061  1.00  0.00    -0.290 OA 
BRANCH  30  32
HETATM   32  C   UNL     1      -9.757  17.587  68.736  1.00  0.00    -0.298 C  
HETATM   33  N   UNL     1     -10.585  18.178  67.672  1.00  0.00    -0.420 N  
HETATM   34  C   UNL     1     -10.281  17.802  66.265  1.00  0.00    -0.364 C  
HETATM   35  S   UNL     1      -8.635  17.079  66.428  1.00  0.00    -0.269 S  
HETATM   36  C   UNL     1     -10.438  19.281  65.904  1.00  0.00    -0.534 C  
HETATM   37  O   UNL     1      -8.757  15.633  66.349  1.00  0.00    -0.286 OA 
HETATM   38  O   UNL     1      -7.693  17.782  65.581  1.00  0.00    -0.545 OA 
HETATM   39  C   UNL     1      -8.318  17.517  68.172  1.00  0.00    -0.249 C  
HETATM   40  C   UNL     1     -10.596  19.515  67.413  1.00  0.00    -0.485 C  
HETATM   41  C   UNL     1      -7.388  16.490  68.832  1.00  0.00    -0.219 C  
HETATM   42  C   UNL     1      -7.595  18.879  68.253  1.00  0.00    -0.317 C  
HETATM   43  O   UNL     1     -10.523  20.452  68.170  1.00  0.00    -0.251 OA 
ENDBRANCH  30  32
ENDBRANCH  29  30
ENDBRANCH  28  29
ENDBRANCH  27  28
ENDBRANCH  25  27
ENDBRANCH   7  25
TORSDOF 9
ENDMDL
MODEL       27
REMARK 921   NORMALIZED FREE ENERGY PREDICTED BY IDOCK:   -7.05 KCAL/MOL
REMARK 922        TOTAL FREE ENERGY PREDICTED BY IDOCK:  -11.26 KCAL/MOL
REMARK 923 INTER-LIGAND FREE ENERGY PREDICTED BY IDOCK:  -10.25 KCAL/MOL
REMARK 924 INTRA-LIGAND FREE ENERGY PREDICTED BY IDOCK:   -1.01 KCAL/MOL
REMARK 927      BINDING AFFINITY PREDICTED BY RF-SCORE:    0.00 PKD
ROOT
HETATM    1  C   UNL     1     -10.677   7.546  67.179  1.00  0.00    -0.379 C  
HETATM    2  C   UNL     1      -9.415   8.351  66.803  1.00  0.00    -0.197 C  
HETATM    3  S   UNL     1      -8.247   8.217  68.238  1.00  0.00    -0.130 SA 
HETATM    4  C   UNL     1      -8.827   7.662  65.566  1.00  0.00    -0.029 C  
HETATM    5  C   UNL     1      -8.775   9.829  68.993  1.00  0.00    -0.148 C  
HETATM    6  C   UNL     1      -9.924   9.796  70.040  1.00  0.00    -0.254 C  
HETATM    7  C   UNL     1      -9.684   9.873  66.661  1.00  0.00    -0.198 C  
HETATM    8  C   UNL     1     -10.818  10.219  68.844  1.00  0.00    -0.228 C  
HETATM    9  O   UNL     1     -12.000  10.217  68.587  1.00  0.00    -0.149 OA 
HETATM   10  N   UNL     1      -9.737  10.400  68.031  1.00  0.00    -0.149 N  
ENDROOT
BRANCH   6  11
HETATM   11  N   UNL     1     -10.216   8.487  70.682  1.00  0.00    -0.192 N  
HETATM   12  C   UNL     1     -11.210   8.360  71.629  1.00  0.00    -0.278 C  
HETATM   13  O   UNL     1     -12.005   9.268  71.867  1.00  0.00    -0.362 OA 
HETATM   14  H   UNL     1      -9.671   7.666  70.416  1.00  0.00     0.000 HD 
BRANCH  12  15
HETATM   15  C   UNL     1     -11.227   7.015  72.389  1.00  0.00    -0.268 C  
HETATM   16  H2  UNL     1     -11.499   7.924  74.256  1.00  0.00     0.000 HD 
HETATM   17  N   UNL     1     -10.889   7.232  73.822  1.00  0.00    -0.528 NA 
HETATM   18  H1  UNL     1     -10.901   6.344  74.324  1.00  0.00     0.000 HD 
BRANCH  15  19
HETATM   19  C   UNL     1     -10.351   5.950  71.753  1.00  0.00    -0.263 A  
HETATM   20  C   UNL     1      -9.269   5.364  72.432  1.00  0.00    -0.152 A  
HETATM   21  C   UNL     1     -10.658   5.484  70.463  1.00  0.00    -0.339 A  
HETATM   22  C   UNL     1      -9.950   4.418  69.903  1.00  0.00    -0.233 A  
HETATM   23  C   UNL     1      -8.569   4.294  71.874  1.00  0.00    -0.117 A  
HETATM   24  C   UNL     1      -8.918   3.811  70.616  1.00  0.00    -0.159 A  
ENDBRANCH  15  19
ENDBRANCH  12  15
ENDBRANCH   6  11
BRANCH   7  25
HETATM   25  C   UNL     1      -8.574  10.670  65.938  1.00  0.00    -0.172 C  
HETATM   26  O   UNL     1      -7.504  11.011  66.435  1.00  0.00    -0.143 OA 
BRANCH  25  27
HETATM   27  O   UNL     1      -8.931  10.972  64.657  1.00  0.00    -0.167 OA 
BRANCH  27  28
HETATM   28  C   UNL     1     -10.184  11.650  64.529  1.00  0.00    -0.291 C  
BRANCH  28  29
HETATM   29  O   UNL     1     -10.138  12.925  65.164  1.00  0.00    -0.278 OA 
BRANCH  29  30
HETATM   30  C   UNL     1     -11.175  13.220  65.989  1.00  0.00    -0.297 C  
HETATM   31  O   UNL     1     -12.025  12.418  66.351  1.00  0.00    -0.559 OA 
BRANCH  30  32
HETATM   32  C   UNL     1     -11.132  14.697  66.441  1.00  0.00    -0.334 C  
HETATM   33  N   UNL     1      -9.938  15.338  65.867  1.00  0.00    -0.314 N  
HETATM   34  C   UNL     1      -8.654  15.208  66.608  1.00  0.00    -0.243 C  
HETATM   35  S   UNL     1      -9.226  14.661  68.231  1.00  0.00    -0.203 S  
HETATM   36  C   UNL     1      -8.422  16.696  66.337  1.00  0.00    -0.348 C  
HETATM   37  O   UNL     1      -8.961  13.238  68.357  1.00  0.00    -0.179 OA 
HETATM   38  O   UNL     1      -8.778  15.583  69.256  1.00  0.00    -0.231 OA 
HETATM   39  C   UNL     1     -11.020  14.873  67.974  1.00  0.00    -0.279 C  
HETATM   40  C   UNL     1      -9.831  16.689  65.726  1.00  0.00    -0.211 C  
HETATM   41  C   UNL     1     -11.816  13.874  68.825  1.00  0.00    -0.396 C  
HETATM   42  C   UNL     1     -11.457  16.282  68.429  1.00  0.00    -0.243 C  
HETATM   43  O   UNL     1     -10.670  17.507  65.440  1.00  0.00    -0.612 OA 
ENDBRANCH  30  32
ENDBRANCH  29  30
ENDBRANCH  28  29
ENDBRANCH  27  28
ENDBRANCH  25  27
ENDBRANCH   7  25
TORSDOF 9
ENDMDL
MODEL       28
REMARK 921   NORMALIZED FREE ENERGY PREDICTED BY IDOCK:   -7.04 KCAL/MOL
REMARK 922        TOTAL FREE ENERGY PREDICTED BY IDOCK:  -11.25 KCAL/MOL
REMARK 923 INTER-LIGAND FREE ENERGY PREDICTED BY IDOCK:  -10.86 KCAL/MOL
REMARK 924 INTRA-LIGAND FREE ENERGY PREDICTED BY IDOCK:   -0.38 KCAL/MOL
REMARK 927      BINDING AFFINITY PREDICTED BY RF-SCORE:    0.00 PKD
ROOT
HETATM    1  C   UNL     1     -10.135   9.109  66.248  1.00  0.00    -0.319 C  
HETATM    2  C   UNL     1      -9.637  10.379  65.527  1.00  0.00    -0.234 C  
HETATM    3  S   UNL     1      -8.244  11.062  66.544  1.00  0.00    -0.163 SA 
HETATM    4  C   UNL     1      -9.125   9.914  64.158  1.00  0.00    -0.294 C  
HETATM    5  C   UNL     1      -9.320  12.273  67.451  1.00  0.00    -0.183 C  
HETATM    6  C   UNL     1      -9.956  11.812  68.794  1.00  0.00    -0.115 C  
HETATM    7  C   UNL     1     -10.692  11.516  65.499  1.00  0.00    -0.272 C  
HETATM    8  C   UNL     1     -11.216  11.548  67.927  1.00  0.00    -0.279 C  
HETATM    9  O   UNL     1     -12.239  10.911  68.036  1.00  0.00    -0.422 OA 
HETATM   10  N   UNL     1     -10.651  12.134  66.832  1.00  0.00    -0.225 N  
ENDROOT
BRANCH   6  11
HETATM   11  N   UNL     1      -9.334  10.642  69.469  1.00  0.00    -0.413 N  
HETATM   12  C   UNL     1      -9.934  10.042  70.556  1.00  0.00     0.029 C  
HETATM   13  O   UNL     1     -11.076  10.329  70.913  1.00  0.00    -0.315 OA 
HETATM   14  H   UNL     1      -8.447  10.277  69.122  1.00  0.00     0.000 HD 
BRANCH  12  15
HETATM   15  C   UNL     1      -9.058   9.015  71.307  1.00  0.00    -0.232 C  
HETATM   16  H2  UNL     1      -7.535  10.399  71.694  1.00  0.00     0.000 HD 
HETATM   17  N   UNL     1      -7.638   9.459  71.313  1.00  0.00    -0.332 NA 
HETATM   18  H1  UNL     1      -7.060   8.782  71.809  1.00  0.00     0.000 HD 
BRANCH  15  19
HETATM   19  C   UNL     1      -9.208   7.596  70.787  1.00  0.00    -0.157 A  
HETATM   20  C   UNL     1      -8.106   6.828  70.374  1.00  0.00    -0.116 A  
HETATM   21  C   UNL     1     -10.480   7.000  70.766  1.00  0.00    -0.231 A  
HETATM   22  C   UNL     1     -10.633   5.657  70.413  1.00  0.00    -0.364 A  
HETATM   23  C   UNL     1      -8.259   5.484  70.030  1.00  0.00    -0.104 A  
HETATM   24  C   UNL     1      -9.520   4.895  70.063  1.00  0.00    -0.234 A  
ENDBRANCH  15  19
ENDBRANCH  12  15
ENDBRANCH   6  11
BRANCH   7  25
HETATM   25  C   UNL     1     -10.404  12.653  64.492  1.00  0.00    -0.344 C  
HETATM   26  O   UNL     1     -10.266  12.513  63.281  1.00  0.00    -0.370 OA 
BRANCH  25  27
HETATM   27  O   UNL     1     -10.306  13.861  65.119  1.00  0.00    -0.349 OA 
BRANCH  27  28
HETATM   28  C   UNL     1     -11.207  14.861  64.635  1.00  0.00    -0.341 C  
BRANCH  28  29
HETATM   29  O   UNL     1     -10.707  16.168  64.901  1.00  0.00    -0.612 OA 
BRANCH  29  30
HETATM   30  C   UNL     1     -10.288  16.402  66.171  1.00  0.00    -0.344 C  
HETATM   31  O   UNL     1     -10.906  16.078  67.176  1.00  0.00    -0.310 OA 
BRANCH  30  32
HETATM   32  C   UNL     1      -8.914  17.107  66.190  1.00  0.00    -0.182 C  
HETATM   33  N   UNL     1      -8.060  16.463  67.202  1.00  0.00    -0.167 N  
HETATM   34  C   UNL     1      -8.177  16.931  68.609  1.00  0.00    -0.254 C  
HETATM   35  S   UNL     1      -9.050  18.498  68.400  1.00  0.00    -0.327 S  
HETATM   36  C   UNL     1      -6.648  16.907  68.676  1.00  0.00    -0.173 C  
HETATM   37  O   UNL     1     -10.437  18.308  68.788  1.00  0.00    -0.292 OA 
HETATM   38  O   UNL     1      -8.273  19.583  68.966  1.00  0.00    -0.342 OA 
HETATM   39  C   UNL     1      -8.990  18.602  66.579  1.00  0.00    -0.304 C  
HETATM   40  C   UNL     1      -6.702  16.561  67.181  1.00  0.00    -0.197 C  
HETATM   41  C   UNL     1     -10.199  19.377  66.037  1.00  0.00    -0.540 C  
HETATM   42  C   UNL     1      -7.733  19.382  66.134  1.00  0.00    -0.314 C  
HETATM   43  O   UNL     1      -5.941  16.584  66.244  1.00  0.00    -0.126 OA 
ENDBRANCH  30  32
ENDBRANCH  29  30
ENDBRANCH  28  29
ENDBRANCH  27  28
ENDBRANCH  25  27
ENDBRANCH   7  25
TORSDOF 9
ENDMDL
MODEL       29
REMARK 921   NORMALIZED FREE ENERGY PREDICTED BY IDOCK:   -7.04 KCAL/MOL
REMARK 922        TOTAL FREE ENERGY PREDICTED BY IDOCK:  -11.24 KCAL/MOL
REMARK 923 INTER-LIGAND FREE ENERGY PREDICTED BY IDOCK:  -10.78 KCAL/MOL
REMARK 924 INTRA-LIGAND FREE ENERGY PREDICTED BY IDOCK:   -0.46 KCAL/MOL
REMARK 927      BINDING AFFINITY PREDICTED BY RF-SCORE:    0.00 PKD
ROOT
HETATM    1  C   UNL     1     -11.760  16.283  68.502  1.00  0.00    -0.083 C  
HETATM    2  C   UNL     1     -11.381  15.083  69.395  1.00  0.00    -0.297 C  
HETATM    3  S   UNL     1      -9.533  14.927  69.328  1.00  0.00    -0.056 SA 
HETATM    4  C   UNL     1     -11.837  15.451  70.812  1.00  0.00    -0.394 C  
HETATM    5  C   UNL     1      -9.557  13.636  67.992  1.00  0.00    -0.216 C  
HETATM    6  C   UNL     1      -9.481  14.119  66.516  1.00  0.00    -0.285 C  
HETATM    7  C   UNL     1     -11.906  13.729  68.850  1.00  0.00    -0.360 C  
HETATM    8  C   UNL     1     -11.021  13.931  66.538  1.00  0.00    -0.300 C  
HETATM    9  O   UNL     1     -11.960  14.303  65.873  1.00  0.00    -0.375 OA 
HETATM   10  N   UNL     1     -10.985  13.347  67.771  1.00  0.00    -0.257 N  
ENDROOT
BRANCH   6  11
HETATM   11  N   UNL     1      -8.964  15.494  66.282  1.00  0.00    -0.319 N  
HETATM   12  C   UNL     1      -7.674  15.841  66.623  1.00  0.00    -0.105 C  
HETATM   13  O   UNL     1      -6.844  15.004  66.976  1.00  0.00    -0.213 OA 
HETATM   14  H   UNL     1      -9.575  16.194  65.860  1.00  0.00     0.000 HD 
BRANCH  12  15
HETATM   15  C   UNL     1      -7.361  17.353  66.563  1.00  0.00    -0.277 C  
HETATM   16  H2  UNL     1      -5.302  17.071  66.822  1.00  0.00     0.000 HD 
HETATM   17  N   UNL     1      -6.055  17.632  67.218  1.00  0.00    -0.140 NA 
HETATM   18  H1  UNL     1      -5.849  18.630  67.179  1.00  0.00     0.000 HD 
BRANCH  15  19
HETATM   19  C   UNL     1      -8.475  18.223  67.119  1.00  0.00    -0.253 A  
HETATM   20  C   UNL     1      -8.618  18.470  68.495  1.00  0.00    -0.349 A  
HETATM   21  C   UNL     1      -9.364  18.856  66.233  1.00  0.00    -0.297 A  
HETATM   22  C   UNL     1     -10.318  19.760  66.706  1.00  0.00    -0.604 A  
HETATM   23  C   UNL     1      -9.566  19.380  68.964  1.00  0.00    -0.432 A  
HETATM   24  C   UNL     1     -10.406  20.037  68.068  1.00  0.00    -0.501 A  
ENDBRANCH  15  19
ENDBRANCH  12  15
ENDBRANCH   6  11
BRANCH   7  25
HETATM   25  C   UNL     1     -11.885  12.562  69.864  1.00  0.00    -0.303 C  
HETATM   26  O   UNL     1     -12.526  12.515  70.909  1.00  0.00    -0.365 OA 
BRANCH  25  27
HETATM   27  O   UNL     1     -11.041  11.568  69.462  1.00  0.00    -0.244 OA 
BRANCH  27  28
HETATM   28  C   UNL     1     -11.488  10.244  69.769  1.00  0.00    -0.256 C  
BRANCH  28  29
HETATM   29  O   UNL     1     -10.907   9.781  70.985  1.00  0.00    -0.326 OA 
BRANCH  29  30
HETATM   30  C   UNL     1     -11.731   9.095  71.818  1.00  0.00    -0.386 C  
HETATM   31  O   UNL     1     -12.928   9.312  71.945  1.00  0.00    -0.350 OA 
BRANCH  30  32
HETATM   32  C   UNL     1     -10.970   7.980  72.569  1.00  0.00    -0.364 C  
HETATM   33  N   UNL     1      -9.550   8.028  72.185  1.00  0.00    -0.194 N  
HETATM   34  C   UNL     1      -9.138   7.302  70.953  1.00  0.00    -0.151 C  
HETATM   35  S   UNL     1     -10.562   6.228  70.671  1.00  0.00    -0.262 S  
HETATM   36  C   UNL     1      -7.931   6.785  71.739  1.00  0.00    -0.101 C  
HETATM   37  O   UNL     1     -11.347   6.781  69.580  1.00  0.00    -0.300 OA 
HETATM   38  O   UNL     1     -10.144   4.841  70.642  1.00  0.00    -0.227 OA 
HETATM   39  C   UNL     1     -11.461   6.554  72.226  1.00  0.00    -0.289 C  
HETATM   40  C   UNL     1      -8.567   7.480  72.952  1.00  0.00    -0.130 C  
HETATM   41  C   UNL     1     -12.974   6.395  72.024  1.00  0.00     0.072 C  
HETATM   42  C   UNL     1     -11.051   5.524  73.300  1.00  0.00    -0.322 C  
HETATM   43  O   UNL     1      -8.460   7.425  74.153  1.00  0.00    -0.167 OA 
ENDBRANCH  30  32
ENDBRANCH  29  30
ENDBRANCH  28  29
ENDBRANCH  27  28
ENDBRANCH  25  27
ENDBRANCH   7  25
TORSDOF 9
ENDMDL
MODEL       30
REMARK 921   NORMALIZED FREE ENERGY PREDICTED BY IDOCK:   -7.03 KCAL/MOL
REMARK 922        TOTAL FREE ENERGY PREDICTED BY IDOCK:  -11.24 KCAL/MOL
REMARK 923 INTER-LIGAND FREE ENERGY PREDICTED BY IDOCK:  -10.80 KCAL/MOL
REMARK 924 INTRA-LIGAND FREE ENERGY PREDICTED BY IDOCK:   -0.44 KCAL/MOL
REMARK 927      BINDING AFFINITY PREDICTED BY RF-SCORE:    0.00 PKD
ROOT
HETATM    1  C   UNL     1     -11.902  13.448  68.464  1.00  0.00    -0.401 C  
HETATM    2  C   UNL     1     -10.937  12.317  68.052  1.00  0.00    -0.225 C  
HETATM    3  S   UNL     1      -9.350  13.128  67.535  1.00  0.00    -0.217 SA 
HETATM    4  C   UNL     1     -10.720  11.466  69.309  1.00  0.00    -0.195 C  
HETATM    5  C   UNL     1      -9.776  13.117  65.727  1.00  0.00    -0.138 C  
HETATM    6  C   UNL     1     -10.499  14.364  65.145  1.00  0.00    -0.415 C  
HETATM    7  C   UNL     1     -11.407  11.544  66.791  1.00  0.00    -0.238 C  
HETATM    8  C   UNL     1     -11.782  13.507  65.315  1.00  0.00    -0.322 C  
HETATM    9  O   UNL     1     -12.974  13.709  65.357  1.00  0.00    -0.683 OA 
HETATM   10  N   UNL     1     -11.060  12.397  65.645  1.00  0.00    -0.295 N  
ENDROOT
BRANCH   6  11
HETATM   11  N   UNL     1     -10.411  15.624  65.932  1.00  0.00    -0.325 N  
HETATM   12  C   UNL     1     -10.769  16.836  65.383  1.00  0.00    -0.189 C  
HETATM   13  O   UNL     1     -11.330  16.919  64.290  1.00  0.00    -1.202 OA 
HETATM   14  H   UNL     1     -10.080  15.590  66.896  1.00  0.00     0.000 HD 
BRANCH  12  15
HETATM   15  C   UNL     1     -10.384  18.077  66.219  1.00  0.00    -0.382 C  
HETATM   16  H2  UNL     1     -11.688  19.345  65.179  1.00  0.00     0.000 HD 
HETATM   17  N   UNL     1     -10.711  19.321  65.470  1.00  0.00    -0.460 NA 
HETATM   18  H1  UNL     1     -10.457  20.140  66.022  1.00  0.00     0.000 HD 
BRANCH  15  19
HETATM   19  C   UNL     1      -8.943  18.062  66.695  1.00  0.00    -0.285 A  
HETATM   20  C   UNL     1      -7.865  18.322  65.832  1.00  0.00    -0.082 A  
HETATM   21  C   UNL     1      -8.667  17.837  68.054  1.00  0.00    -0.251 A  
HETATM   22  C   UNL     1      -7.363  17.942  68.545  1.00  0.00    -0.268 A  
HETATM   23  C   UNL     1      -6.564  18.435  66.325  1.00  0.00    -0.255 A  
HETATM   24  C   UNL     1      -6.315  18.260  67.683  1.00  0.00    -0.188 A  
ENDBRANCH  15  19
ENDBRANCH  12  15
ENDBRANCH   6  11
BRANCH   7  25
HETATM   25  C   UNL     1     -10.699  10.192  66.547  1.00  0.00    -0.048 C  
HETATM   26  O   UNL     1      -9.888   9.964  65.654  1.00  0.00    -0.266 OA 
BRANCH  25  27
HETATM   27  O   UNL     1     -11.095   9.252  67.452  1.00  0.00    -0.082 OA 
BRANCH  27  28
HETATM   28  C   UNL     1     -10.471   7.973  67.298  1.00  0.00    -0.314 C  
BRANCH  28  29
HETATM   29  O   UNL     1      -9.812   7.582  68.499  1.00  0.00    -0.157 OA 
BRANCH  29  30
HETATM   30  C   UNL     1     -10.519   6.780  69.336  1.00  0.00    -0.217 C  
HETATM   31  O   UNL     1     -11.701   6.498  69.193  1.00  0.00    -0.193 OA 
BRANCH  30  32
HETATM   32  C   UNL     1      -9.634   6.243  70.482  1.00  0.00    -0.165 C  
HETATM   33  N   UNL     1     -10.410   5.271  71.269  1.00  0.00    -0.225 N  
HETATM   34  C   UNL     1     -11.280   5.793  72.358  1.00  0.00    -0.290 C  
HETATM   35  S   UNL     1     -10.639   7.469  72.563  1.00  0.00    -0.299 S  
HETATM   36  C   UNL     1     -10.752   4.657  73.236  1.00  0.00    -0.313 C  
HETATM   37  O   UNL     1     -11.569   8.397  71.942  1.00  0.00    -0.287 OA 
HETATM   38  O   UNL     1     -10.202   7.674  73.929  1.00  0.00    -0.207 OA 
HETATM   39  C   UNL     1      -9.177   7.336  71.477  1.00  0.00    -0.144 C  
HETATM   40  C   UNL     1      -9.817   4.334  72.062  1.00  0.00    -0.175 C  
HETATM   41  C   UNL     1      -8.828   8.699  70.864  1.00  0.00    -0.221 C  
HETATM   42  C   UNL     1      -7.946   6.896  72.299  1.00  0.00    -0.093 C  
HETATM   43  O   UNL     1      -8.800   3.708  71.893  1.00  0.00    -0.092 OA 
ENDBRANCH  30  32
ENDBRANCH  29  30
ENDBRANCH  28  29
ENDBRANCH  27  28
ENDBRANCH  25  27
ENDBRANCH   7  25
TORSDOF 9
ENDMDL
MODEL       31
REMARK 921   NORMALIZED FREE ENERGY PREDICTED BY IDOCK:   -7.03 KCAL/MOL
REMARK 922        TOTAL FREE ENERGY PREDICTED BY IDOCK:  -11.24 KCAL/MOL
REMARK 923 INTER-LIGAND FREE ENERGY PREDICTED BY IDOCK:  -10.38 KCAL/MOL
REMARK 924 INTRA-LIGAND FREE ENERGY PREDICTED BY IDOCK:   -0.86 KCAL/MOL
REMARK 927      BINDING AFFINITY PREDICTED BY RF-SCORE:    0.00 PKD
ROOT
HETATM    1  C   UNL     1     -11.828  16.331  68.464  1.00  0.00     0.062 C  
HETATM    2  C   UNL     1     -11.548  15.267  69.546  1.00  0.00    -0.322 C  
HETATM    3  S   UNL     1      -9.704  15.130  69.698  1.00  0.00    -0.067 SA 
HETATM    4  C   UNL     1     -12.155  15.814  70.844  1.00  0.00    -0.459 C  
HETATM    5  C   UNL     1      -9.582  13.673  68.553  1.00  0.00    -0.165 C  
HETATM    6  C   UNL     1      -9.347  13.956  67.042  1.00  0.00    -0.251 C  
HETATM    7  C   UNL     1     -12.011  13.844  69.134  1.00  0.00    -0.363 C  
HETATM    8  C   UNL     1     -10.880  13.750  66.924  1.00  0.00    -0.285 C  
HETATM    9  O   UNL     1     -11.743  14.016  66.119  1.00  0.00    -0.353 OA 
HETATM   10  N   UNL     1     -10.979  13.336  68.221  1.00  0.00    -0.246 N  
ENDROOT
BRANCH   6  11
HETATM   11  N   UNL     1      -8.809  15.295  66.682  1.00  0.00    -0.276 N  
HETATM   12  C   UNL     1      -7.481  15.609  66.881  1.00  0.00    -0.134 C  
HETATM   13  O   UNL     1      -6.650  14.760  67.202  1.00  0.00    -0.253 OA 
HETATM   14  H   UNL     1      -9.433  15.995  66.281  1.00  0.00     0.000 HD 
BRANCH  12  15
HETATM   15  C   UNL     1      -7.123  17.102  66.706  1.00  0.00    -0.224 C  
HETATM   16  H2  UNL     1      -5.075  16.781  66.998  1.00  0.00     0.000 HD 
HETATM   17  N   UNL     1      -5.813  17.393  67.346  1.00  0.00    -0.131 NA 
HETATM   18  H1  UNL     1      -5.577  18.378  67.230  1.00  0.00     0.000 HD 
BRANCH  15  19
HETATM   19  C   UNL     1      -8.213  18.044  67.185  1.00  0.00    -0.231 A  
HETATM   20  C   UNL     1      -8.373  18.378  68.541  1.00  0.00    -0.344 A  
HETATM   21  C   UNL     1      -9.061  18.655  66.245  1.00  0.00    -0.236 A  
HETATM   22  C   UNL     1      -9.988  19.621  66.643  1.00  0.00    -0.532 A  
HETATM   23  C   UNL     1      -9.294  19.350  68.935  1.00  0.00    -0.417 A  
HETATM   24  C   UNL     1     -10.091  19.982  67.984  1.00  0.00    -0.557 A  
ENDBRANCH  15  19
ENDBRANCH  12  15
ENDBRANCH   6  11
BRANCH   7  25
HETATM   25  C   UNL     1     -12.099  12.823  70.291  1.00  0.00    -0.297 C  
HETATM   26  O   UNL     1     -12.532  13.058  71.416  1.00  0.00    -0.287 OA 
BRANCH  25  27
HETATM   27  O   UNL     1     -11.617  11.603  69.917  1.00  0.00    -0.296 OA 
BRANCH  27  28
HETATM   28  C   UNL     1     -12.279  10.488  70.521  1.00  0.00    -0.344 C  
BRANCH  28  29
HETATM   29  O   UNL     1     -11.425   9.835  71.456  1.00  0.00    -0.378 OA 
BRANCH  29  30
HETATM   30  C   UNL     1     -11.364   8.482  71.368  1.00  0.00    -0.271 C  
HETATM   31  O   UNL     1     -11.844   7.711  72.187  1.00  0.00    -0.290 OA 
BRANCH  30  32
HETATM   32  C   UNL     1     -10.634   8.033  70.083  1.00  0.00    -0.237 C  
HETATM   33  N   UNL     1     -11.052   6.662  69.749  1.00  0.00    -0.315 N  
HETATM   34  C   UNL     1     -10.327   5.537  70.400  1.00  0.00    -0.276 C  
HETATM   35  S   UNL     1      -8.851   6.368  71.025  1.00  0.00    -0.139 S  
HETATM   36  C   UNL     1     -10.300   4.849  69.033  1.00  0.00    -0.087 C  
HETATM   37  O   UNL     1      -8.999   6.552  72.459  1.00  0.00    -0.136 OA 
HETATM   38  O   UNL     1      -7.660   5.744  70.486  1.00  0.00    -0.085 OA 
HETATM   39  C   UNL     1      -9.094   7.991  70.227  1.00  0.00    -0.148 C  
HETATM   40  C   UNL     1     -10.926   6.145  68.496  1.00  0.00    -0.320 C  
HETATM   41  C   UNL     1      -8.467   9.112  71.068  1.00  0.00    -0.221 C  
HETATM   42  C   UNL     1      -8.382   8.019  68.857  1.00  0.00    -0.126 C  
HETATM   43  O   UNL     1     -11.062   6.676  67.420  1.00  0.00    -0.346 OA 
ENDBRANCH  30  32
ENDBRANCH  29  30
ENDBRANCH  28  29
ENDBRANCH  27  28
ENDBRANCH  25  27
ENDBRANCH   7  25
TORSDOF 9
ENDMDL
MODEL       32
REMARK 921   NORMALIZED FREE ENERGY PREDICTED BY IDOCK:   -6.99 KCAL/MOL
REMARK 922        TOTAL FREE ENERGY PREDICTED BY IDOCK:  -11.17 KCAL/MOL
REMARK 923 INTER-LIGAND FREE ENERGY PREDICTED BY IDOCK:  -10.52 KCAL/MOL
REMARK 924 INTRA-LIGAND FREE ENERGY PREDICTED BY IDOCK:   -0.65 KCAL/MOL
REMARK 927      BINDING AFFINITY PREDICTED BY RF-SCORE:    0.00 PKD
ROOT
HETATM    1  C   UNL     1     -12.717  13.356  66.484  1.00  0.00     0.118 C  
HETATM    2  C   UNL     1     -11.568  14.085  65.756  1.00  0.00    -0.339 C  
HETATM    3  S   UNL     1     -10.089  12.967  65.834  1.00  0.00    -0.283 SA 
HETATM    4  C   UNL     1     -12.031  14.262  64.305  1.00  0.00    -0.449 C  
HETATM    5  C   UNL     1      -9.369  13.800  67.329  1.00  0.00    -0.239 C  
HETATM    6  C   UNL     1      -9.755  13.239  68.727  1.00  0.00     0.033 C  
HETATM    7  C   UNL     1     -11.114  15.380  66.479  1.00  0.00    -0.227 C  
HETATM    8  C   UNL     1     -10.780  14.404  68.739  1.00  0.00    -0.252 C  
HETATM    9  O   UNL     1     -11.784  14.684  69.353  1.00  0.00    -0.281 OA 
HETATM   10  N   UNL     1     -10.265  14.940  67.595  1.00  0.00    -0.235 N  
ENDROOT
BRANCH   6  11
HETATM   11  N   UNL     1     -10.294  11.854  68.774  1.00  0.00    -0.321 N  
HETATM   12  C   UNL     1      -9.458  10.765  68.896  1.00  0.00    -0.181 C  
HETATM   13  O   UNL     1      -8.258  10.886  69.139  1.00  0.00    -0.146 OA 
HETATM   14  H   UNL     1     -11.302  11.706  68.714  1.00  0.00     0.000 HD 
BRANCH  12  15
HETATM   15  C   UNL     1     -10.129   9.391  68.672  1.00  0.00    -0.190 C  
HETATM   16  H2  UNL     1     -10.909   9.930  66.804  1.00  0.00     0.000 HD 
HETATM   17  N   UNL     1     -11.230   9.514  67.678  1.00  0.00    -0.413 NA 
HETATM   18  H1  UNL     1     -11.672   8.608  67.530  1.00  0.00     0.000 HD 
BRANCH  15  19
HETATM   19  C   UNL     1     -10.593   8.728  69.956  1.00  0.00    -0.232 A  
HETATM   20  C   UNL     1     -11.131   9.461  71.027  1.00  0.00    -0.414 A  
HETATM   21  C   UNL     1     -10.541   7.328  70.068  1.00  0.00    -0.247 A  
HETATM   22  C   UNL     1     -11.077   6.681  71.185  1.00  0.00    -0.326 A  
HETATM   23  C   UNL     1     -11.673   8.813  72.138  1.00  0.00    -0.433 A  
HETATM   24  C   UNL     1     -11.660   7.423  72.210  1.00  0.00    -0.333 A  
ENDBRANCH  15  19
ENDBRANCH  12  15
ENDBRANCH   6  11
BRANCH   7  25
HETATM   25  C   UNL     1     -10.243  16.335  65.631  1.00  0.00    -0.343 C  
HETATM   26  O   UNL     1      -9.055  16.172  65.371  1.00  0.00    -0.248 OA 
BRANCH  25  27
HETATM   27  O   UNL     1     -10.959  17.414  65.202  1.00  0.00    -0.582 OA 
BRANCH  27  28
HETATM   28  C   UNL     1     -10.775  18.601  65.980  1.00  0.00    -0.246 C  
BRANCH  28  29
HETATM   29  O   UNL     1      -9.399  18.967  66.030  1.00  0.00    -0.467 OA 
BRANCH  29  30
HETATM   30  C   UNL     1      -9.045  19.832  67.014  1.00  0.00    -0.340 C  
HETATM   31  O   UNL     1      -9.814  20.283  67.852  1.00  0.00    -0.385 OA 
BRANCH  30  32
HETATM   32  C   UNL     1      -7.536  20.158  66.961  1.00  0.00    -0.280 C  
HETATM   33  N   UNL     1      -6.936  19.463  65.811  1.00  0.00    -0.273 N  
HETATM   34  C   UNL     1      -6.495  18.055  66.002  1.00  0.00    -0.264 C  
HETATM   35  S   UNL     1      -6.469  17.923  67.803  1.00  0.00    -0.191 S  
HETATM   36  C   UNL     1      -5.219  18.420  65.241  1.00  0.00    -0.206 C  
HETATM   37  O   UNL     1      -7.640  17.175  68.227  1.00  0.00    -0.205 OA 
HETATM   38  O   UNL     1      -5.149  17.537  68.257  1.00  0.00    -0.137 OA 
HETATM   39  C   UNL     1      -6.754  19.680  68.208  1.00  0.00    -0.278 C  
HETATM   40  C   UNL     1      -5.758  19.857  65.252  1.00  0.00    -0.175 C  
HETATM   41  C   UNL     1      -7.484  19.818  69.552  1.00  0.00    -0.059 C  
HETATM   42  C   UNL     1      -5.405  20.413  68.364  1.00  0.00    -0.266 C  
HETATM   43  O   UNL     1      -5.312  20.966  65.086  1.00  0.00    -0.189 OA 
ENDBRANCH  30  32
ENDBRANCH  29  30
ENDBRANCH  28  29
ENDBRANCH  27  28
ENDBRANCH  25  27
ENDBRANCH   7  25
TORSDOF 9
ENDMDL
MODEL       33
REMARK 921   NORMALIZED FREE ENERGY PREDICTED BY IDOCK:   -6.95 KCAL/MOL
REMARK 922        TOTAL FREE ENERGY PREDICTED BY IDOCK:  -11.11 KCAL/MOL
REMARK 923 INTER-LIGAND FREE ENERGY PREDICTED BY IDOCK:  -10.18 KCAL/MOL
REMARK 924 INTRA-LIGAND FREE ENERGY PREDICTED BY IDOCK:   -0.93 KCAL/MOL
REMARK 927      BINDING AFFINITY PREDICTED BY RF-SCORE:    0.00 PKD
ROOT
HETATM    1  C   UNL     1      -7.990  11.613  66.900  1.00  0.00    -0.161 C  
HETATM    2  C   UNL     1      -8.572  10.280  66.386  1.00  0.00    -0.133 C  
HETATM    3  S   UNL     1     -10.410  10.368  66.628  1.00  0.00    -0.212 SA 
HETATM    4  C   UNL     1      -8.230  10.216  64.892  1.00  0.00    -0.157 C  
HETATM    5  C   UNL     1     -10.375   9.468  68.252  1.00  0.00    -0.207 C  
HETATM    6  C   UNL     1     -10.253  10.317  69.549  1.00  0.00    -0.236 C  
HETATM    7  C   UNL     1      -8.128   9.055  67.230  1.00  0.00    -0.103 C  
HETATM    8  C   UNL     1      -8.749   9.946  69.465  1.00  0.00    -0.190 C  
HETATM    9  O   UNL     1      -7.714  10.359  69.936  1.00  0.00    -0.155 OA 
HETATM   10  N   UNL     1      -8.966   9.075  68.437  1.00  0.00    -0.134 N  
ENDROOT
BRANCH   6  11
HETATM   11  N   UNL     1     -10.607  11.758  69.448  1.00  0.00    -0.440 N  
HETATM   12  C   UNL     1     -11.763  12.251  70.015  1.00  0.00    -0.242 C  
HETATM   13  O   UNL     1     -12.465  11.573  70.763  1.00  0.00    -0.362 OA 
HETATM   14  H   UNL     1      -9.983  12.394  68.951  1.00  0.00     0.000 HD 
BRANCH  12  15
HETATM   15  C   UNL     1     -12.128  13.698  69.613  1.00  0.00    -0.321 C  
HETATM   16  H2  UNL     1     -10.744  13.751  68.043  1.00  0.00     0.000 HD 
HETATM   17  N   UNL     1     -11.011  14.315  68.849  1.00  0.00    -0.250 NA 
HETATM   18  H1  UNL     1     -11.252  15.270  68.584  1.00  0.00     0.000 HD 
BRANCH  15  19
HETATM   19  C   UNL     1     -12.560  14.560  70.786  1.00  0.00    -0.418 A  
HETATM   20  C   UNL     1     -13.912  14.761  71.112  1.00  0.00    -0.355 A  
HETATM   21  C   UNL     1     -11.583  15.136  71.616  1.00  0.00    -0.463 A  
HETATM   22  C   UNL     1     -11.948  15.828  72.774  1.00  0.00    -0.598 A  
HETATM   23  C   UNL     1     -14.274  15.445  72.273  1.00  0.00    -0.639 A  
HETATM   24  C   UNL     1     -13.293  15.965  73.111  1.00  0.00    -0.681 A  
ENDBRANCH  15  19
ENDBRANCH  12  15
ENDBRANCH   6  11
BRANCH   7  25
HETATM   25  C   UNL     1      -8.366   7.680  66.566  1.00  0.00    -0.129 C  
HETATM   26  O   UNL     1      -8.625   7.497  65.381  1.00  0.00    -0.130 OA 
BRANCH  25  27
HETATM   27  O   UNL     1      -8.265   6.665  67.472  1.00  0.00    -0.120 OA 
BRANCH  27  28
HETATM   28  C   UNL     1      -9.322   5.703  67.412  1.00  0.00    -0.113 C  
BRANCH  28  29
HETATM   29  O   UNL     1     -10.212   5.856  68.514  1.00  0.00    -0.160 OA 
BRANCH  29  30
HETATM   30  C   UNL     1     -10.105   4.932  69.503  1.00  0.00    -0.216 C  
HETATM   31  O   UNL     1      -9.469   3.891  69.414  1.00  0.00    -0.166 OA 
BRANCH  30  32
HETATM   32  C   UNL     1     -10.869   5.373  70.771  1.00  0.00    -0.120 C  
HETATM   33  N   UNL     1     -10.737   6.831  70.926  1.00  0.00    -0.228 N  
HETATM   34  C   UNL     1      -9.531   7.349  71.627  1.00  0.00    -0.150 C  
HETATM   35  S   UNL     1      -8.914   5.859  72.439  1.00  0.00    -0.136 S  
HETATM   36  C   UNL     1     -10.459   8.305  72.379  1.00  0.00    -0.404 C  
HETATM   37  O   UNL     1      -7.762   5.375  71.698  1.00  0.00    -0.100 OA 
HETATM   38  O   UNL     1      -8.829   6.069  73.870  1.00  0.00    -0.126 OA 
HETATM   39  C   UNL     1     -10.317   4.750  72.075  1.00  0.00    -0.179 C  
HETATM   40  C   UNL     1     -11.605   7.568  71.672  1.00  0.00    -0.268 C  
HETATM   41  C   UNL     1      -9.848   3.292  71.977  1.00  0.00    -0.240 C  
HETATM   42  C   UNL     1     -11.346   4.804  73.225  1.00  0.00    -0.408 C  
HETATM   43  O   UNL     1     -12.797   7.445  71.821  1.00  0.00    -0.332 OA 
ENDBRANCH  30  32
ENDBRANCH  29  30
ENDBRANCH  28  29
ENDBRANCH  27  28
ENDBRANCH  25  27
ENDBRANCH   7  25
TORSDOF 9
ENDMDL
MODEL       34
REMARK 921   NORMALIZED FREE ENERGY PREDICTED BY IDOCK:   -6.92 KCAL/MOL
REMARK 922        TOTAL FREE ENERGY PREDICTED BY IDOCK:  -11.07 KCAL/MOL
REMARK 923 INTER-LIGAND FREE ENERGY PREDICTED BY IDOCK:  -10.06 KCAL/MOL
REMARK 924 INTRA-LIGAND FREE ENERGY PREDICTED BY IDOCK:   -1.01 KCAL/MOL
REMARK 927      BINDING AFFINITY PREDICTED BY RF-SCORE:    0.00 PKD
ROOT
HETATM    1  C   UNL     1      -7.791   7.221  67.381  1.00  0.00    -0.112 C  
HETATM    2  C   UNL     1      -7.887   8.604  66.702  1.00  0.00    -0.097 C  
HETATM    3  S   UNL     1      -8.184   9.844  68.050  1.00  0.00    -0.113 SA 
HETATM    4  C   UNL     1      -6.525   8.846  66.041  1.00  0.00    -0.061 C  
HETATM    5  C   UNL     1     -10.027   9.853  67.820  1.00  0.00    -0.165 C  
HETATM    6  C   UNL     1     -10.868   8.860  68.671  1.00  0.00     0.009 C  
HETATM    7  C   UNL     1      -9.120   8.740  65.770  1.00  0.00    -0.212 C  
HETATM    8  C   UNL     1     -10.848   7.987  67.388  1.00  0.00    -0.076 C  
HETATM    9  O   UNL     1     -11.053   6.827  67.112  1.00  0.00    -0.384 OA 
HETATM   10  N   UNL     1     -10.267   8.981  66.656  1.00  0.00    -0.275 N  
ENDROOT
BRANCH   6  11
HETATM   11  N   UNL     1     -10.223   8.299  69.888  1.00  0.00    -0.197 N  
HETATM   12  C   UNL     1     -10.489   8.815  71.139  1.00  0.00    -0.245 C  
HETATM   13  O   UNL     1     -11.383   9.638  71.331  1.00  0.00    -0.361 OA 
HETATM   14  H   UNL     1      -9.573   7.519  69.797  1.00  0.00     0.000 HD 
BRANCH  12  15
HETATM   15  C   UNL     1      -9.562   8.312  72.269  1.00  0.00    -0.285 C  
HETATM   16  H2  UNL     1      -8.108   9.776  71.906  1.00  0.00     0.000 HD 
HETATM   17  N   UNL     1      -8.166   8.765  72.025  1.00  0.00    -0.366 NA 
HETATM   18  H1  UNL     1      -7.554   8.433  72.771  1.00  0.00     0.000 HD 
BRANCH  15  19
HETATM   19  C   UNL     1      -9.643   6.813  72.495  1.00  0.00    -0.165 A  
HETATM   20  C   UNL     1      -8.531   5.969  72.335  1.00  0.00    -0.116 A  
HETATM   21  C   UNL     1     -10.851   6.245  72.935  1.00  0.00    -0.284 A  
HETATM   22  C   UNL     1     -10.922   4.891  73.272  1.00  0.00    -0.390 A  
HETATM   23  C   UNL     1      -8.601   4.619  72.681  1.00  0.00    -0.115 A  
HETATM   24  C   UNL     1      -9.792   4.083  73.163  1.00  0.00    -0.176 A  
ENDBRANCH  15  19
ENDBRANCH  12  15
ENDBRANCH   6  11
BRANCH   7  25
HETATM   25  C   UNL     1      -9.075   9.936  64.793  1.00  0.00    -0.237 C  
HETATM   26  O   UNL     1      -8.066  10.372  64.247  1.00  0.00    -0.160 OA 
BRANCH  25  27
HETATM   27  O   UNL     1     -10.314  10.478  64.610  1.00  0.00    -0.344 OA 
BRANCH  27  28
HETATM   28  C   UNL     1     -10.320  11.886  64.361  1.00  0.00    -0.299 C  
BRANCH  28  29
HETATM   29  O   UNL     1     -10.109  12.616  65.565  1.00  0.00    -0.273 OA 
BRANCH  29  30
HETATM   30  C   UNL     1     -11.224  12.978  66.251  1.00  0.00    -0.301 C  
HETATM   31  O   UNL     1     -12.119  12.209  66.574  1.00  0.00    -0.627 OA 
BRANCH  30  32
HETATM   32  C   UNL     1     -11.209  14.482  66.598  1.00  0.00    -0.346 C  
HETATM   33  N   UNL     1     -10.014  15.100  65.998  1.00  0.00    -0.289 N  
HETATM   34  C   UNL     1      -8.742  15.041  66.768  1.00  0.00    -0.260 C  
HETATM   35  S   UNL     1      -9.333  14.601  68.416  1.00  0.00    -0.205 S  
HETATM   36  C   UNL     1      -8.525  16.510  66.396  1.00  0.00    -0.357 C  
HETATM   37  O   UNL     1      -9.051  13.194  68.646  1.00  0.00    -0.100 OA 
HETATM   38  O   UNL     1      -8.915  15.599  69.380  1.00  0.00    -0.253 OA 
HETATM   39  C   UNL     1     -11.126  14.768  68.116  1.00  0.00    -0.278 C  
HETATM   40  C   UNL     1      -9.923  16.438  65.765  1.00  0.00    -0.302 C  
HETATM   41  C   UNL     1     -11.922  13.819  69.022  1.00  0.00    -0.399 C  
HETATM   42  C   UNL     1     -11.590  16.199  68.464  1.00  0.00    -0.265 C  
HETATM   43  O   UNL     1     -10.769  17.222  65.409  1.00  0.00    -0.583 OA 
ENDBRANCH  30  32
ENDBRANCH  29  30
ENDBRANCH  28  29
ENDBRANCH  27  28
ENDBRANCH  25  27
ENDBRANCH   7  25
TORSDOF 9
ENDMDL
MODEL       35
REMARK 921   NORMALIZED FREE ENERGY PREDICTED BY IDOCK:   -6.89 KCAL/MOL
REMARK 922        TOTAL FREE ENERGY PREDICTED BY IDOCK:  -11.02 KCAL/MOL
REMARK 923 INTER-LIGAND FREE ENERGY PREDICTED BY IDOCK:   -9.61 KCAL/MOL
REMARK 924 INTRA-LIGAND FREE ENERGY PREDICTED BY IDOCK:   -1.41 KCAL/MOL
REMARK 927      BINDING AFFINITY PREDICTED BY RF-SCORE:    0.00 PKD
ROOT
HETATM    1  C   UNL     1     -11.299   6.442  69.658  1.00  0.00    -0.479 C  
HETATM    2  C   UNL     1     -10.277   6.759  68.547  1.00  0.00    -0.175 C  
HETATM    3  S   UNL     1      -8.611   6.843  69.359  1.00  0.00    -0.133 SA 
HETATM    4  C   UNL     1     -10.338   5.581  67.567  1.00  0.00    -0.268 C  
HETATM    5  C   UNL     1      -8.644   8.690  69.544  1.00  0.00    -0.131 C  
HETATM    6  C   UNL     1      -9.218   9.276  70.865  1.00  0.00    -0.233 C  
HETATM    7  C   UNL     1     -10.475   8.165  67.920  1.00  0.00    -0.197 C  
HETATM    8  C   UNL     1     -10.514   9.471  70.033  1.00  0.00    -0.247 C  
HETATM    9  O   UNL     1     -11.686   9.660  70.264  1.00  0.00    -0.240 OA 
HETATM   10  N   UNL     1      -9.887   9.115  68.874  1.00  0.00    -0.169 N  
ENDROOT
BRANCH   6  11
HETATM   11  N   UNL     1      -9.290   8.361  72.034  1.00  0.00    -0.236 N  
HETATM   12  C   UNL     1      -8.239   8.249  72.920  1.00  0.00    -0.165 C  
HETATM   13  O   UNL     1      -7.272   9.010  72.886  1.00  0.00    -0.322 OA 
HETATM   14  H   UNL     1     -10.132   7.805  72.185  1.00  0.00     0.000 HD 
BRANCH  12  15
HETATM   15  C   UNL     1      -8.348   7.082  73.927  1.00  0.00    -0.139 C  
HETATM   16  H2  UNL     1      -6.489   7.491  74.802  1.00  0.00     0.000 HD 
HETATM   17  N   UNL     1      -6.995   6.696  74.412  1.00  0.00    -0.091 NA 
HETATM   18  H1  UNL     1      -7.067   5.926  75.077  1.00  0.00     0.000 HD 
BRANCH  15  19
HETATM   19  C   UNL     1      -9.122   5.891  73.391  1.00  0.00    -0.132 A  
HETATM   20  C   UNL     1      -8.526   4.915  72.574  1.00  0.00    -0.120 A  
HETATM   21  C   UNL     1     -10.465   5.717  73.764  1.00  0.00    -0.295 A  
HETATM   22  C   UNL     1     -11.166   4.567  73.390  1.00  0.00    -0.404 A  
HETATM   23  C   UNL     1      -9.224   3.763  72.210  1.00  0.00    -0.163 A  
HETATM   24  C   UNL     1     -10.539   3.582  72.630  1.00  0.00    -0.132 A  
ENDBRANCH  15  19
ENDBRANCH  12  15
ENDBRANCH   6  11
BRANCH   7  25
HETATM   25  C   UNL     1      -9.741   8.395  66.580  1.00  0.00    -0.260 C  
HETATM   26  O   UNL     1      -8.776   7.752  66.177  1.00  0.00    -0.142 OA 
BRANCH  25  27
HETATM   27  O   UNL     1     -10.292   9.428  65.881  1.00  0.00    -0.191 OA 
BRANCH  27  28
HETATM   28  C   UNL     1      -9.539   9.846  64.738  1.00  0.00    -0.271 C  
BRANCH  28  29
HETATM   29  O   UNL     1      -9.270  11.244  64.790  1.00  0.00    -0.185 OA 
BRANCH  29  30
HETATM   30  C   UNL     1     -10.346  12.065  64.688  1.00  0.00    -0.287 C  
HETATM   31  O   UNL     1     -11.347  11.819  64.028  1.00  0.00    -0.363 OA 
BRANCH  30  32
HETATM   32  C   UNL     1     -10.162  13.343  65.535  1.00  0.00    -0.290 C  
HETATM   33  N   UNL     1      -9.173  13.077  66.592  1.00  0.00    -0.241 N  
HETATM   34  C   UNL     1      -9.658  12.463  67.858  1.00  0.00    -0.205 C  
HETATM   35  S   UNL     1     -11.439  12.726  67.732  1.00  0.00    -0.347 S  
HETATM   36  C   UNL     1      -8.783  13.472  68.606  1.00  0.00    -0.001 C  
HETATM   37  O   UNL     1     -12.067  11.467  67.369  1.00  0.00    -0.593 OA 
HETATM   38  O   UNL     1     -11.916  13.480  68.875  1.00  0.00    -0.336 OA 
HETATM   39  C   UNL     1     -11.452  13.801  66.256  1.00  0.00    -0.335 C  
HETATM   40  C   UNL     1      -8.494  14.075  67.224  1.00  0.00    -0.207 C  
HETATM   41  C   UNL     1     -12.758  13.630  65.468  1.00  0.00    -0.514 C  
HETATM   42  C   UNL     1     -11.385  15.284  66.680  1.00  0.00    -0.170 C  
HETATM   43  O   UNL     1      -8.066  15.117  66.791  1.00  0.00    -0.204 OA 
ENDBRANCH  30  32
ENDBRANCH  29  30
ENDBRANCH  28  29
ENDBRANCH  27  28
ENDBRANCH  25  27
ENDBRANCH   7  25
TORSDOF 9
ENDMDL
MODEL       36
REMARK 921   NORMALIZED FREE ENERGY PREDICTED BY IDOCK:   -6.87 KCAL/MOL
REMARK 922        TOTAL FREE ENERGY PREDICTED BY IDOCK:  -10.99 KCAL/MOL
REMARK 923 INTER-LIGAND FREE ENERGY PREDICTED BY IDOCK:   -9.81 KCAL/MOL
REMARK 924 INTRA-LIGAND FREE ENERGY PREDICTED BY IDOCK:   -1.18 KCAL/MOL
REMARK 927      BINDING AFFINITY PREDICTED BY RF-SCORE:    0.00 PKD
ROOT
HETATM    1  C   UNL     1      -9.499  11.076  68.618  1.00  0.00    -0.197 C  
HETATM    2  C   UNL     1     -10.553  11.082  67.492  1.00  0.00    -0.227 C  
HETATM    3  S   UNL     1     -10.839   9.312  67.015  1.00  0.00     0.143 SA 
HETATM    4  C   UNL     1     -11.823  11.685  68.104  1.00  0.00    -0.315 C  
HETATM    5  C   UNL     1      -9.646   9.361  65.592  1.00  0.00    -0.274 C  
HETATM    6  C   UNL     1      -8.171   8.955  65.869  1.00  0.00    -0.119 C  
HETATM    7  C   UNL     1     -10.048  11.759  66.189  1.00  0.00    -0.224 C  
HETATM    8  C   UNL     1      -7.928  10.486  65.950  1.00  0.00    -0.154 C  
HETATM    9  O   UNL     1      -7.071  11.216  66.392  1.00  0.00    -0.135 OA 
HETATM   10  N   UNL     1      -9.194  10.763  65.526  1.00  0.00    -0.194 N  
ENDROOT
BRANCH   6  11
HETATM   11  N   UNL     1      -7.910   8.156  67.096  1.00  0.00    -0.100 N  
HETATM   12  C   UNL     1      -8.060   6.786  67.102  1.00  0.00    -0.117 C  
HETATM   13  O   UNL     1      -8.250   6.145  66.069  1.00  0.00    -0.115 OA 
HETATM   14  H   UNL     1      -7.614   8.630  67.949  1.00  0.00     0.000 HD 
BRANCH  12  15
HETATM   15  C   UNL     1      -8.008   6.123  68.497  1.00  0.00    -0.108 C  
HETATM   16  H2  UNL     1      -7.087   4.383  67.782  1.00  0.00     0.000 HD 
HETATM   17  N   UNL     1      -7.885   4.647  68.359  1.00  0.00    -0.080 NA 
HETATM   18  H1  UNL     1      -7.851   4.210  69.280  1.00  0.00     0.000 HD 
BRANCH  15  19
HETATM   19  C   UNL     1      -9.166   6.517  69.396  1.00  0.00    -0.144 A  
HETATM   20  C   UNL     1      -9.041   7.497  70.395  1.00  0.00    -0.153 A  
HETATM   21  C   UNL     1     -10.427   5.929  69.195  1.00  0.00    -0.338 A  
HETATM   22  C   UNL     1     -11.540   6.361  69.921  1.00  0.00    -0.422 A  
HETATM   23  C   UNL     1     -10.155   7.934  71.113  1.00  0.00    -0.210 A  
HETATM   24  C   UNL     1     -11.407   7.376  70.866  1.00  0.00    -0.300 A  
ENDBRANCH  15  19
ENDBRANCH  12  15
ENDBRANCH   6  11
BRANCH   7  25
HETATM   25  C   UNL     1     -11.150  12.125  65.170  1.00  0.00    -0.322 C  
HETATM   26  O   UNL     1     -11.234  11.689  64.026  1.00  0.00    -0.361 OA 
BRANCH  25  27
HETATM   27  O   UNL     1     -12.036  13.021  65.694  1.00  0.00    -0.381 OA 
BRANCH  27  28
HETATM   28  C   UNL     1     -12.014  14.312  65.078  1.00  0.00    -0.410 C  
BRANCH  28  29
HETATM   29  O   UNL     1     -10.682  14.809  64.986  1.00  0.00    -0.380 OA 
BRANCH  29  30
HETATM   30  C   UNL     1     -10.532  16.151  65.128  1.00  0.00    -0.268 C  
HETATM   31  O   UNL     1     -11.233  16.989  64.579  1.00  0.00    -1.091 OA 
BRANCH  30  32
HETATM   32  C   UNL     1      -9.377  16.489  66.096  1.00  0.00    -0.304 C  
HETATM   33  N   UNL     1      -8.863  15.241  66.683  1.00  0.00    -0.276 N  
HETATM   34  C   UNL     1      -9.549  14.708  67.891  1.00  0.00    -0.212 C  
HETATM   35  S   UNL     1     -10.505  16.141  68.429  1.00  0.00    -0.289 S  
HETATM   36  C   UNL     1      -8.161  14.445  68.482  1.00  0.00    -0.151 C  
HETATM   37  O   UNL     1     -11.895  15.932  68.060  1.00  0.00    -0.170 OA 
HETATM   38  O   UNL     1     -10.154  16.495  69.790  1.00  0.00    -0.163 OA 
HETATM   39  C   UNL     1      -9.806  17.380  67.285  1.00  0.00    -0.278 C  
HETATM   40  C   UNL     1      -7.619  15.149  67.230  1.00  0.00    -0.203 C  
HETATM   41  C   UNL     1     -10.836  18.473  66.969  1.00  0.00    -0.257 C  
HETATM   42  C   UNL     1      -8.603  18.089  67.944  1.00  0.00    -0.258 C  
HETATM   43  O   UNL     1      -6.583  15.667  66.891  1.00  0.00    -0.258 OA 
ENDBRANCH  30  32
ENDBRANCH  29  30
ENDBRANCH  28  29
ENDBRANCH  27  28
ENDBRANCH  25  27
ENDBRANCH   7  25
TORSDOF 9
ENDMDL
MODEL       37
REMARK 921   NORMALIZED FREE ENERGY PREDICTED BY IDOCK:   -6.86 KCAL/MOL
REMARK 922        TOTAL FREE ENERGY PREDICTED BY IDOCK:  -10.97 KCAL/MOL
REMARK 923 INTER-LIGAND FREE ENERGY PREDICTED BY IDOCK:  -10.52 KCAL/MOL
REMARK 924 INTRA-LIGAND FREE ENERGY PREDICTED BY IDOCK:   -0.45 KCAL/MOL
REMARK 927      BINDING AFFINITY PREDICTED BY RF-SCORE:    0.00 PKD
ROOT
HETATM    1  C   UNL     1     -10.232  14.333  64.999  1.00  0.00    -0.402 C  
HETATM    2  C   UNL     1     -10.709  12.868  65.083  1.00  0.00    -0.305 C  
HETATM    3  S   UNL     1     -11.827  12.750  66.559  1.00  0.00    -0.368 SA 
HETATM    4  C   UNL     1     -11.495  12.604  63.792  1.00  0.00    -0.539 C  
HETATM    5  C   UNL     1     -10.488  12.143  67.694  1.00  0.00    -0.206 C  
HETATM    6  C   UNL     1      -9.684  13.203  68.498  1.00  0.00    -0.137 C  
HETATM    7  C   UNL     1      -9.560  11.870  65.385  1.00  0.00    -0.165 C  
HETATM    8  C   UNL     1      -8.627  13.026  67.376  1.00  0.00    -0.199 C  
HETATM    9  O   UNL     1      -7.674  13.646  66.961  1.00  0.00    -0.043 OA 
HETATM   10  N   UNL     1      -9.305  11.977  66.828  1.00  0.00    -0.199 N  
ENDROOT
BRANCH   6  11
HETATM   11  N   UNL     1     -10.301  14.548  68.648  1.00  0.00    -0.237 N  
HETATM   12  C   UNL     1      -9.617  15.587  69.241  1.00  0.00    -0.266 C  
HETATM   13  O   UNL     1      -8.421  15.507  69.520  1.00  0.00    -0.256 OA 
HETATM   14  H   UNL     1     -11.249  14.705  68.306  1.00  0.00     0.000 HD 
BRANCH  12  15
HETATM   15  C   UNL     1     -10.465  16.838  69.560  1.00  0.00    -0.263 C  
HETATM   16  H2  UNL     1     -11.942  15.743  70.563  1.00  0.00     0.000 HD 
HETATM   17  N   UNL     1     -11.875  16.446  69.828  1.00  0.00    -0.232 NA 
HETATM   18  H1  UNL     1     -12.435  17.272  70.038  1.00  0.00     0.000 HD 
BRANCH  15  19
HETATM   19  C   UNL     1     -10.367  17.922  68.501  1.00  0.00    -0.365 A  
HETATM   20  C   UNL     1     -10.064  19.257  68.818  1.00  0.00    -0.477 A  
HETATM   21  C   UNL     1     -10.526  17.580  67.147  1.00  0.00    -0.312 A  
HETATM   22  C   UNL     1     -10.317  18.528  66.142  1.00  0.00    -0.457 A  
HETATM   23  C   UNL     1      -9.847  20.200  67.813  1.00  0.00    -0.547 A  
HETATM   24  C   UNL     1      -9.958  19.832  66.475  1.00  0.00    -0.570 A  
ENDBRANCH  15  19
ENDBRANCH  12  15
ENDBRANCH   6  11
BRANCH   7  25
HETATM   25  C   UNL     1      -9.894  10.384  65.119  1.00  0.00    -0.313 C  
HETATM   26  O   UNL     1      -9.735   9.800  64.051  1.00  0.00    -0.116 OA 
BRANCH  25  27
HETATM   27  O   UNL     1     -10.410   9.782  66.229  1.00  0.00    -0.235 OA 
BRANCH  27  28
HETATM   28  C   UNL     1      -9.905   8.468  66.485  1.00  0.00    -0.272 C  
BRANCH  28  29
HETATM   29  O   UNL     1      -9.398   8.369  67.812  1.00  0.00    -0.134 OA 
BRANCH  29  30
HETATM   30  C   UNL     1     -10.032   7.492  68.632  1.00  0.00    -0.172 C  
HETATM   31  O   UNL     1     -11.100   6.950  68.377  1.00  0.00    -0.164 OA 
BRANCH  30  32
HETATM   32  C   UNL     1      -9.222   7.240  69.923  1.00  0.00    -0.141 C  
HETATM   33  N   UNL     1      -9.492   5.873  70.397  1.00  0.00    -0.161 N  
HETATM   34  C   UNL     1     -10.687   5.660  71.259  1.00  0.00    -0.244 C  
HETATM   35  S   UNL     1     -11.080   7.349  71.760  1.00  0.00    -0.243 S  
HETATM   36  C   UNL     1      -9.806   4.780  72.149  1.00  0.00    -0.228 C  
HETATM   37  O   UNL     1     -12.230   7.801  70.995  1.00  0.00    -0.293 OA 
HETATM   38  O   UNL     1     -11.073   7.456  73.205  1.00  0.00    -0.353 OA 
HETATM   39  C   UNL     1      -9.602   8.183  71.088  1.00  0.00    -0.160 C  
HETATM   40  C   UNL     1      -8.649   5.212  71.238  1.00  0.00    -0.127 C  
HETATM   41  C   UNL     1      -9.923   9.634  70.701  1.00  0.00    -0.299 C  
HETATM   42  C   UNL     1      -8.497   8.251  72.164  1.00  0.00    -0.239 C  
HETATM   43  O   UNL     1      -7.443   5.221  71.291  1.00  0.00    -0.085 OA 
ENDBRANCH  30  32
ENDBRANCH  29  30
ENDBRANCH  28  29
ENDBRANCH  27  28
ENDBRANCH  25  27
ENDBRANCH   7  25
TORSDOF 9
ENDMDL
MODEL       38
REMARK 921   NORMALIZED FREE ENERGY PREDICTED BY IDOCK:   -6.84 KCAL/MOL
REMARK 922        TOTAL FREE ENERGY PREDICTED BY IDOCK:  -10.94 KCAL/MOL
REMARK 923 INTER-LIGAND FREE ENERGY PREDICTED BY IDOCK:   -9.87 KCAL/MOL
REMARK 924 INTRA-LIGAND FREE ENERGY PREDICTED BY IDOCK:   -1.07 KCAL/MOL
REMARK 927      BINDING AFFINITY PREDICTED BY RF-SCORE:    0.00 PKD
ROOT
HETATM    1  C   UNL     1     -10.473   8.347  72.623  1.00  0.00    -0.317 C  
HETATM    2  C   UNL     1     -11.485   8.856  71.576  1.00  0.00    -0.321 C  
HETATM    3  S   UNL     1     -11.620   7.540  70.276  1.00  0.00    -0.013 SA 
HETATM    4  C   UNL     1     -12.818   9.016  72.318  1.00  0.00    -0.474 C  
HETATM    5  C   UNL     1     -10.386   8.342  69.143  1.00  0.00    -0.220 C  
HETATM    6  C   UNL     1      -8.895   7.925  69.284  1.00  0.00    -0.142 C  
HETATM    7  C   UNL     1     -10.988  10.110  70.809  1.00  0.00    -0.242 C  
HETATM    8  C   UNL     1      -8.771   9.226  70.120  1.00  0.00    -0.204 C  
HETATM    9  O   UNL     1      -7.988   9.685  70.920  1.00  0.00    -0.307 OA 
HETATM   10  N   UNL     1     -10.040   9.615  69.802  1.00  0.00    -0.217 N  
ENDROOT
BRANCH   6  11
HETATM   11  N   UNL     1      -8.617   6.639  69.977  1.00  0.00    -0.139 N  
HETATM   12  C   UNL     1      -8.827   5.429  69.350  1.00  0.00    -0.105 C  
HETATM   13  O   UNL     1      -9.091   5.351  68.151  1.00  0.00    -0.108 OA 
HETATM   14  H   UNL     1      -8.263   6.651  70.934  1.00  0.00     0.000 HD 
BRANCH  12  15
HETATM   15  C   UNL     1      -8.744   4.188  70.268  1.00  0.00    -0.074 C  
HETATM   16  H2  UNL     1      -9.067   2.841  68.698  1.00  0.00     0.000 HD 
HETATM   17  N   UNL     1      -9.430   3.032  69.631  1.00  0.00    -0.141 NA 
HETATM   18  H1  UNL     1      -9.375   2.214  70.236  1.00  0.00     0.000 HD 
BRANCH  15  19
HETATM   19  C   UNL     1      -9.250   4.444  71.677  1.00  0.00    -0.186 A  
HETATM   20  C   UNL     1     -10.620   4.503  71.983  1.00  0.00    -0.103 A  
HETATM   21  C   UNL     1      -8.327   4.570  72.729  1.00  0.00    -0.107 A  
HETATM   22  C   UNL     1      -8.764   4.679  74.052  1.00  0.00    -0.104 A  
HETATM   23  C   UNL     1     -11.055   4.604  73.305  1.00  0.00    -0.403 A  
HETATM   24  C   UNL     1     -10.127   4.677  74.341  1.00  0.00    -0.255 A  
ENDBRANCH  15  19
ENDBRANCH  12  15
ENDBRANCH   6  11
BRANCH   7  25
HETATM   25  C   UNL     1     -12.080  10.877  70.028  1.00  0.00    -0.355 C  
HETATM   26  O   UNL     1     -12.334  10.735  68.836  1.00  0.00    -0.433 OA 
BRANCH  25  27
HETATM   27  O   UNL     1     -12.737  11.763  70.830  1.00  0.00    -0.314 OA 
BRANCH  27  28
HETATM   28  C   UNL     1     -12.172  13.077  70.859  1.00  0.00    -0.220 C  
BRANCH  28  29
HETATM   29  O   UNL     1     -12.731  13.893  69.834  1.00  0.00    -0.212 OA 
BRANCH  29  30
HETATM   30  C   UNL     1     -12.026  15.005  69.503  1.00  0.00    -0.313 C  
HETATM   31  O   UNL     1     -11.540  15.785  70.311  1.00  0.00    -0.310 OA 
BRANCH  30  32
HETATM   32  C   UNL     1     -11.888  15.150  67.971  1.00  0.00    -0.202 C  
HETATM   33  N   UNL     1     -11.827  13.809  67.368  1.00  0.00    -0.380 N  
HETATM   34  C   UNL     1     -10.500  13.140  67.295  1.00  0.00    -0.243 C  
HETATM   35  S   UNL     1      -9.378  14.523  67.591  1.00  0.00    -0.207 S  
HETATM   36  C   UNL     1     -10.856  12.733  65.863  1.00  0.00    -0.295 C  
HETATM   37  O   UNL     1      -8.883  14.432  68.954  1.00  0.00    -0.157 OA 
HETATM   38  O   UNL     1      -8.454  14.663  66.484  1.00  0.00    -0.111 OA 
HETATM   39  C   UNL     1     -10.598  15.880  67.530  1.00  0.00    -0.315 C  
HETATM   40  C   UNL     1     -12.120  13.583  66.057  1.00  0.00    -0.445 C  
HETATM   41  C   UNL     1     -10.154  17.052  68.416  1.00  0.00    -0.302 C  
HETATM   42  C   UNL     1     -10.705  16.432  66.093  1.00  0.00    -0.174 C  
HETATM   43  O   UNL     1     -12.952  14.097  65.349  1.00  0.00    -0.706 OA 
ENDBRANCH  30  32
ENDBRANCH  29  30
ENDBRANCH  28  29
ENDBRANCH  27  28
ENDBRANCH  25  27
ENDBRANCH   7  25
TORSDOF 9
ENDMDL
MODEL       39
REMARK 921   NORMALIZED FREE ENERGY PREDICTED BY IDOCK:   -6.82 KCAL/MOL
REMARK 922        TOTAL FREE ENERGY PREDICTED BY IDOCK:  -10.91 KCAL/MOL
REMARK 923 INTER-LIGAND FREE ENERGY PREDICTED BY IDOCK:   -9.67 KCAL/MOL
REMARK 924 INTRA-LIGAND FREE ENERGY PREDICTED BY IDOCK:   -1.24 KCAL/MOL
REMARK 927      BINDING AFFINITY PREDICTED BY RF-SCORE:    0.00 PKD
ROOT
HETATM    1  C   UNL     1      -7.978  10.922  66.387  1.00  0.00    -0.157 C  
HETATM    2  C   UNL     1      -8.902   9.698  66.214  1.00  0.00    -0.151 C  
HETATM    3  S   UNL     1     -10.641  10.301  66.454  1.00  0.00    -0.048 SA 
HETATM    4  C   UNL     1      -8.697   9.214  64.774  1.00  0.00    -0.208 C  
HETATM    5  C   UNL     1     -10.705   9.813  68.245  1.00  0.00    -0.233 C  
HETATM    6  C   UNL     1     -10.286  10.875  69.301  1.00  0.00    -0.166 C  
HETATM    7  C   UNL     1      -8.706   8.626  67.318  1.00  0.00    -0.129 C  
HETATM    8  C   UNL     1      -8.927  10.126  69.286  1.00  0.00    -0.183 C  
HETATM    9  O   UNL     1      -7.791  10.362  69.630  1.00  0.00    -0.156 OA 
HETATM   10  N   UNL     1      -9.423   9.129  68.498  1.00  0.00    -0.145 N  
ENDROOT
BRANCH   6  11
HETATM   11  N   UNL     1     -10.288  12.297  68.866  1.00  0.00    -0.409 N  
HETATM   12  C   UNL     1     -11.287  13.163  69.255  1.00  0.00    -0.253 C  
HETATM   13  O   UNL     1     -12.123  12.856  70.104  1.00  0.00    -0.340 OA 
HETATM   14  H   UNL     1      -9.535  12.639  68.268  1.00  0.00     0.000 HD 
BRANCH  12  15
HETATM   15  C   UNL     1     -11.301  14.524  68.525  1.00  0.00    -0.286 C  
HETATM   16  H2  UNL     1     -12.108  15.545  70.166  1.00  0.00     0.000 HD 
HETATM   17  N   UNL     1     -12.282  15.440  69.167  1.00  0.00    -0.596 NA 
HETATM   18  H1  UNL     1     -12.291  16.339  68.685  1.00  0.00     0.000 HD 
BRANCH  15  19
HETATM   19  C   UNL     1     -11.528  14.405  67.028  1.00  0.00    -0.376 A  
HETATM   20  C   UNL     1     -10.746  15.104  66.093  1.00  0.00    -0.327 A  
HETATM   21  C   UNL     1     -12.513  13.525  66.548  1.00  0.00    -0.309 A  
HETATM   22  C   UNL     1     -12.660  13.299  65.177  1.00  0.00    -0.512 A  
HETATM   23  C   UNL     1     -10.888  14.870  64.724  1.00  0.00    -0.382 A  
HETATM   24  C   UNL     1     -11.835  13.958  64.267  1.00  0.00    -0.441 A  
ENDBRANCH  15  19
ENDBRANCH  12  15
ENDBRANCH   6  11
BRANCH   7  25
HETATM   25  C   UNL     1      -9.318   7.242  67.005  1.00  0.00    -0.148 C  
HETATM   26  O   UNL     1     -10.510   7.016  66.821  1.00  0.00    -0.262 OA 
BRANCH  25  27
HETATM   27  O   UNL     1      -8.360   6.271  66.967  1.00  0.00    -0.109 OA 
BRANCH  27  28
HETATM   28  C   UNL     1      -7.859   5.876  68.247  1.00  0.00    -0.105 C  
BRANCH  28  29
HETATM   29  O   UNL     1      -8.826   6.109  69.266  1.00  0.00    -0.124 OA 
BRANCH  29  30
HETATM   30  C   UNL     1      -9.462   5.012  69.751  1.00  0.00    -0.150 C  
HETATM   31  O   UNL     1      -9.191   3.859  69.441  1.00  0.00    -0.121 OA 
BRANCH  30  32
HETATM   32  C   UNL     1     -10.558   5.399  70.768  1.00  0.00    -0.223 C  
HETATM   33  N   UNL     1     -10.671   6.866  70.814  1.00  0.00    -0.227 N  
HETATM   34  C   UNL     1      -9.750   7.606  71.718  1.00  0.00    -0.161 C  
HETATM   35  S   UNL     1      -9.140   6.281  72.781  1.00  0.00    -0.129 S  
HETATM   36  C   UNL     1     -10.954   8.445  72.151  1.00  0.00    -0.411 C  
HETATM   37  O   UNL     1      -7.789   5.942  72.367  1.00  0.00    -0.101 OA 
HETATM   38  O   UNL     1      -9.426   6.582  74.170  1.00  0.00    -0.172 OA 
HETATM   39  C   UNL     1     -10.248   4.945  72.215  1.00  0.00    -0.196 C  
HETATM   40  C   UNL     1     -11.786   7.498  71.275  1.00  0.00    -0.294 C  
HETATM   41  C   UNL     1      -9.570   3.576  72.359  1.00  0.00    -0.198 C  
HETATM   42  C   UNL     1     -11.517   4.902  73.094  1.00  0.00    -0.362 C  
HETATM   43  O   UNL     1     -12.950   7.198  71.162  1.00  0.00    -0.366 OA 
ENDBRANCH  30  32
ENDBRANCH  29  30
ENDBRANCH  28  29
ENDBRANCH  27  28
ENDBRANCH  25  27
ENDBRANCH   7  25
TORSDOF 9
ENDMDL
MODEL       40
REMARK 921   NORMALIZED FREE ENERGY PREDICTED BY IDOCK:   -6.79 KCAL/MOL
REMARK 922        TOTAL FREE ENERGY PREDICTED BY IDOCK:  -10.87 KCAL/MOL
REMARK 923 INTER-LIGAND FREE ENERGY PREDICTED BY IDOCK:  -10.25 KCAL/MOL
REMARK 924 INTRA-LIGAND FREE ENERGY PREDICTED BY IDOCK:   -0.62 KCAL/MOL
REMARK 927      BINDING AFFINITY PREDICTED BY RF-SCORE:    0.00 PKD
ROOT
HETATM    1  C   UNL     1     -11.911  11.721  66.980  1.00  0.00    -0.126 C  
HETATM    2  C   UNL     1     -11.508  12.649  65.815  1.00  0.00    -0.358 C  
HETATM    3  S   UNL     1      -9.669  12.499  65.621  1.00  0.00    -0.093 SA 
HETATM    4  C   UNL     1     -12.225  12.104  64.574  1.00  0.00    -0.404 C  
HETATM    5  C   UNL     1      -9.303  14.003  66.648  1.00  0.00    -0.277 C  
HETATM    6  C   UNL     1      -9.069  13.800  68.171  1.00  0.00    -0.194 C  
HETATM    7  C   UNL     1     -11.746  14.151  66.123  1.00  0.00    -0.393 C  
HETATM    8  C   UNL     1     -10.551  14.240  68.299  1.00  0.00    -0.245 C  
HETATM    9  O   UNL     1     -11.420  14.165  69.138  1.00  0.00    -0.260 OA 
HETATM   10  N   UNL     1     -10.625  14.567  66.977  1.00  0.00    -0.276 N  
ENDROOT
BRANCH   6  11
HETATM   11  N   UNL     1      -8.723  12.427  68.625  1.00  0.00    -0.372 N  
HETATM   12  C   UNL     1      -7.443  11.931  68.490  1.00  0.00    -0.117 C  
HETATM   13  O   UNL     1      -6.499  12.643  68.151  1.00  0.00    -0.065 OA 
HETATM   14  H   UNL     1      -9.445  11.840  69.043  1.00  0.00     0.000 HD 
BRANCH  12  15
HETATM   15  C   UNL     1      -7.292  10.417  68.761  1.00  0.00    -0.089 C  
HETATM   16  H2  UNL     1      -5.199  10.482  68.702  1.00  0.00     0.000 HD 
HETATM   17  N   UNL     1      -5.962   9.943  68.293  1.00  0.00    -0.043 NA 
HETATM   18  H1  UNL     1      -5.862   8.945  68.472  1.00  0.00     0.000 HD 
BRANCH  15  19
HETATM   19  C   UNL     1      -8.426   9.585  68.191  1.00  0.00    -0.119 A  
HETATM   20  C   UNL     1      -8.393   9.066  66.885  1.00  0.00    -0.119 A  
HETATM   21  C   UNL     1      -9.526   9.266  69.005  1.00  0.00    -0.155 A  
HETATM   22  C   UNL     1     -10.523   8.399  68.551  1.00  0.00    -0.201 A  
HETATM   23  C   UNL     1      -9.385   8.193  66.436  1.00  0.00    -0.269 A  
HETATM   24  C   UNL     1     -10.442   7.848  67.274  1.00  0.00    -0.390 A  
ENDBRANCH  15  19
ENDBRANCH  12  15
ENDBRANCH   6  11
BRANCH   7  25
HETATM   25  C   UNL     1     -11.716  15.086  64.892  1.00  0.00    -0.336 C  
HETATM   26  O   UNL     1     -12.566  15.124  64.007  1.00  0.00    -0.791 OA 
BRANCH  25  27
HETATM   27  O   UNL     1     -10.603  15.875  64.893  1.00  0.00    -0.546 OA 
BRANCH  27  28
HETATM   28  C   UNL     1     -10.831  17.229  65.295  1.00  0.00     0.004 C  
BRANCH  28  29
HETATM   29  O   UNL     1      -9.634  17.821  65.789  1.00  0.00    -0.519 OA 
BRANCH  29  30
HETATM   30  C   UNL     1      -9.778  18.987  66.469  1.00  0.00    -0.357 C  
HETATM   31  O   UNL     1     -10.827  19.376  66.966  1.00  0.00    -0.476 OA 
BRANCH  30  32
HETATM   32  C   UNL     1      -8.441  19.754  66.562  1.00  0.00    -0.345 C  
HETATM   33  N   UNL     1      -7.477  19.151  65.627  1.00  0.00    -0.172 N  
HETATM   34  C   UNL     1      -6.691  17.979  66.100  1.00  0.00    -0.268 C  
HETATM   35  S   UNL     1      -6.941  18.069  67.886  1.00  0.00    -0.215 S  
HETATM   36  C   UNL     1      -5.461  18.630  65.463  1.00  0.00    -0.216 C  
HETATM   37  O   UNL     1      -7.903  17.050  68.268  1.00  0.00    -0.198 OA 
HETATM   38  O   UNL     1      -5.665  18.163  68.566  1.00  0.00    -0.174 OA 
HETATM   39  C   UNL     1      -7.784  19.687  67.961  1.00  0.00    -0.297 C  
HETATM   40  C   UNL     1      -6.384  19.822  65.171  1.00  0.00    -0.269 C  
HETATM   41  C   UNL     1      -8.744  19.746  69.158  1.00  0.00     0.025 C  
HETATM   42  C   UNL     1      -6.749  20.813  68.172  1.00  0.00    -0.266 C  
HETATM   43  O   UNL     1      -6.252  20.988  64.889  1.00  0.00    -0.267 OA 
ENDBRANCH  30  32
ENDBRANCH  29  30
ENDBRANCH  28  29
ENDBRANCH  27  28
ENDBRANCH  25  27
ENDBRANCH   7  25
TORSDOF 9
ENDMDL
MODEL       41
REMARK 921   NORMALIZED FREE ENERGY PREDICTED BY IDOCK:   -6.78 KCAL/MOL
REMARK 922        TOTAL FREE ENERGY PREDICTED BY IDOCK:  -10.86 KCAL/MOL
REMARK 923 INTER-LIGAND FREE ENERGY PREDICTED BY IDOCK:  -10.07 KCAL/MOL
REMARK 924 INTRA-LIGAND FREE ENERGY PREDICTED BY IDOCK:   -0.78 KCAL/MOL
REMARK 927      BINDING AFFINITY PREDICTED BY RF-SCORE:    0.00 PKD
ROOT
HETATM    1  C   UNL     1     -10.766   7.068  68.385  1.00  0.00    -0.224 C  
HETATM    2  C   UNL     1     -10.221   8.451  67.973  1.00  0.00    -0.212 C  
HETATM    3  S   UNL     1      -8.621   8.689  68.881  1.00  0.00    -0.130 SA 
HETATM    4  C   UNL     1      -9.974   8.376  66.461  1.00  0.00    -0.335 C  
HETATM    5  C   UNL     1      -9.394   9.657  70.265  1.00  0.00    -0.242 C  
HETATM    6  C   UNL     1      -9.883   8.870  71.514  1.00  0.00    -0.314 C  
HETATM    7  C   UNL     1     -11.117   9.625  68.449  1.00  0.00    -0.037 C  
HETATM    8  C   UNL     1     -11.278   8.975  70.842  1.00  0.00    -0.287 C  
HETATM    9  O   UNL     1     -12.346   8.417  70.944  1.00  0.00    -0.197 OA 
HETATM   10  N   UNL     1     -10.807   9.813  69.873  1.00  0.00    -0.255 N  
ENDROOT
BRANCH   6  11
HETATM   11  N   UNL     1      -9.323   7.507  71.715  1.00  0.00    -0.144 N  
HETATM   12  C   UNL     1      -9.605   6.778  72.851  1.00  0.00    -0.149 C  
HETATM   13  O   UNL     1     -10.454   7.140  73.665  1.00  0.00    -0.358 OA 
HETATM   14  H   UNL     1      -8.718   7.103  70.999  1.00  0.00     0.000 HD 
BRANCH  12  15
HETATM   15  C   UNL     1      -8.757   5.501  73.042  1.00  0.00    -0.121 C  
HETATM   16  H2  UNL     1      -7.005   6.400  72.328  1.00  0.00     0.000 HD 
HETATM   17  N   UNL     1      -7.551   5.552  72.173  1.00  0.00    -0.099 NA 
HETATM   18  H1  UNL     1      -6.991   4.710  72.299  1.00  0.00     0.000 HD 
BRANCH  15  19
HETATM   19  C   UNL     1      -9.544   4.217  72.848  1.00  0.00    -0.159 A  
HETATM   20  C   UNL     1      -9.208   3.272  71.864  1.00  0.00    -0.180 A  
HETATM   21  C   UNL     1     -10.613   3.926  73.713  1.00  0.00    -0.290 A  
HETATM   22  C   UNL     1     -11.274   2.697  73.640  1.00  0.00    -0.315 A  
HETATM   23  C   UNL     1      -9.864   2.043  71.798  1.00  0.00    -0.218 A  
HETATM   24  C   UNL     1     -10.887   1.749  72.696  1.00  0.00    -0.172 A  
ENDBRANCH  15  19
ENDBRANCH  12  15
ENDBRANCH   6  11
BRANCH   7  25
HETATM   25  C   UNL     1     -10.836  10.984  67.768  1.00  0.00    -0.249 C  
HETATM   26  O   UNL     1      -9.723  11.438  67.518  1.00  0.00    -0.176 OA 
BRANCH  25  27
HETATM   27  O   UNL     1     -11.993  11.645  67.479  1.00  0.00    -0.622 OA 
BRANCH  27  28
HETATM   28  C   UNL     1     -11.941  12.455  66.300  1.00  0.00    -0.298 C  
BRANCH  28  29
HETATM   29  O   UNL     1     -11.946  13.839  66.634  1.00  0.00    -0.388 OA 
BRANCH  29  30
HETATM   30  C   UNL     1     -10.898  14.570  66.174  1.00  0.00    -0.317 C  
HETATM   31  O   UNL     1     -10.172  14.235  65.248  1.00  0.00    -0.353 OA 
BRANCH  30  32
HETATM   32  C   UNL     1     -10.754  15.899  66.949  1.00  0.00    -0.289 C  
HETATM   33  N   UNL     1      -9.849  16.790  66.205  1.00  0.00    -0.294 N  
HETATM   34  C   UNL     1      -8.386  16.645  66.436  1.00  0.00    -0.318 C  
HETATM   35  S   UNL     1      -8.353  15.678  67.960  1.00  0.00    -0.147 S  
HETATM   36  C   UNL     1      -8.310  18.172  66.494  1.00  0.00    -0.288 C  
HETATM   37  O   UNL     1      -8.014  14.305  67.628  1.00  0.00    -0.151 OA 
HETATM   38  O   UNL     1      -7.615  16.387  68.986  1.00  0.00    -0.213 OA 
HETATM   39  C   UNL     1     -10.134  15.731  68.356  1.00  0.00    -0.222 C  
HETATM   40  C   UNL     1      -9.841  18.140  66.387  1.00  0.00    -0.353 C  
HETATM   41  C   UNL     1     -10.559  14.477  69.132  1.00  0.00    -0.242 C  
HETATM   42  C   UNL     1     -10.437  16.937  69.271  1.00  0.00    -0.319 C  
HETATM   43  O   UNL     1     -10.755  18.898  66.605  1.00  0.00    -0.398 OA 
ENDBRANCH  30  32
ENDBRANCH  29  30
ENDBRANCH  28  29
ENDBRANCH  27  28
ENDBRANCH  25  27
ENDBRANCH   7  25
TORSDOF 9
ENDMDL
MODEL       42
REMARK 921   NORMALIZED FREE ENERGY PREDICTED BY IDOCK:   -6.75 KCAL/MOL
REMARK 922        TOTAL FREE ENERGY PREDICTED BY IDOCK:  -10.81 KCAL/MOL
REMARK 923 INTER-LIGAND FREE ENERGY PREDICTED BY IDOCK:   -9.83 KCAL/MOL
REMARK 924 INTRA-LIGAND FREE ENERGY PREDICTED BY IDOCK:   -0.99 KCAL/MOL
REMARK 927      BINDING AFFINITY PREDICTED BY RF-SCORE:    0.00 PKD
ROOT
HETATM    1  C   UNL     1      -8.837  15.222  69.566  1.00  0.00    -0.181 C  
HETATM    2  C   UNL     1      -8.367  14.224  68.487  1.00  0.00    -0.156 C  
HETATM    3  S   UNL     1      -8.202  15.181  66.906  1.00  0.00    -0.138 SA 
HETATM    4  C   UNL     1      -6.997  13.715  68.951  1.00  0.00    -0.110 C  
HETATM    5  C   UNL     1      -9.888  14.708  66.287  1.00  0.00    -0.300 C  
HETATM    6  C   UNL     1     -11.077  15.650  66.630  1.00  0.00    -0.147 C  
HETATM    7  C   UNL     1      -9.419  13.128  68.171  1.00  0.00    -0.222 C  
HETATM    8  C   UNL     1     -11.356  14.630  67.765  1.00  0.00    -0.322 C  
HETATM    9  O   UNL     1     -11.986  14.617  68.798  1.00  0.00    -0.306 OA 
HETATM   10  N   UNL     1     -10.411  13.766  67.294  1.00  0.00    -0.252 N  
ENDROOT
BRANCH   6  11
HETATM   11  N   UNL     1     -10.740  17.043  67.030  1.00  0.00    -0.215 N  
HETATM   12  C   UNL     1     -10.563  18.034  66.088  1.00  0.00    -0.261 C  
HETATM   13  O   UNL     1     -10.834  17.863  64.900  1.00  0.00    -0.768 OA 
HETATM   14  H   UNL     1     -10.639  17.269  68.019  1.00  0.00     0.000 HD 
BRANCH  12  15
HETATM   15  C   UNL     1      -9.969  19.355  66.627  1.00  0.00    -0.390 C  
HETATM   16  H2  UNL     1     -11.121  20.548  65.349  1.00  0.00     0.000 HD 
HETATM   17  N   UNL     1     -10.146  20.442  65.627  1.00  0.00    -0.493 NA 
HETATM   18  H1  UNL     1      -9.754  21.313  65.982  1.00  0.00     0.000 HD 
BRANCH  15  19
HETATM   19  C   UNL     1      -8.525  19.228  67.079  1.00  0.00    -0.305 A  
HETATM   20  C   UNL     1      -8.166  19.163  68.436  1.00  0.00    -0.384 A  
HETATM   21  C   UNL     1      -7.507  19.113  66.116  1.00  0.00    -0.294 A  
HETATM   22  C   UNL     1      -6.186  18.868  66.500  1.00  0.00    -0.198 A  
HETATM   23  C   UNL     1      -6.848  18.910  68.817  1.00  0.00    -0.311 A  
HETATM   24  C   UNL     1      -5.861  18.748  67.849  1.00  0.00    -0.197 A  
ENDBRANCH  15  19
ENDBRANCH  12  15
ENDBRANCH   6  11
BRANCH   7  25
HETATM   25  C   UNL     1      -8.881  11.907  67.391  1.00  0.00    -0.171 C  
HETATM   26  O   UNL     1      -8.419  11.936  66.254  1.00  0.00    -0.104 OA 
BRANCH  25  27
HETATM   27  O   UNL     1      -8.991  10.761  68.122  1.00  0.00    -0.132 OA 
BRANCH  27  28
HETATM   28  C   UNL     1      -9.762   9.728  67.501  1.00  0.00    -0.157 C  
BRANCH  28  29
HETATM   29  O   UNL     1     -10.699   9.173  68.419  1.00  0.00    -0.194 OA 
BRANCH  29  30
HETATM   30  C   UNL     1     -10.526   7.863  68.733  1.00  0.00    -0.176 C  
HETATM   31  O   UNL     1     -11.030   6.930  68.123  1.00  0.00    -0.207 OA 
BRANCH  30  32
HETATM   32  C   UNL     1      -9.585   7.695  69.947  1.00  0.00    -0.160 C  
HETATM   33  N   UNL     1      -9.286   6.265  70.125  1.00  0.00    -0.156 N  
HETATM   34  C   UNL     1     -10.244   5.448  70.917  1.00  0.00    -0.234 C  
HETATM   35  S   UNL     1     -11.204   6.726  71.758  1.00  0.00    -0.272 S  
HETATM   36  C   UNL     1      -9.034   4.817  71.610  1.00  0.00    -0.160 C  
HETATM   37  O   UNL     1     -12.493   6.842  71.098  1.00  0.00    -0.367 OA 
HETATM   38  O   UNL     1     -11.129   6.545  73.193  1.00  0.00    -0.243 OA 
HETATM   39  C   UNL     1     -10.202   8.176  71.281  1.00  0.00    -0.195 C  
HETATM   40  C   UNL     1      -8.195   5.827  70.813  1.00  0.00    -0.123 C  
HETATM   41  C   UNL     1     -11.072   9.438  71.203  1.00  0.00    -0.432 C  
HETATM   42  C   UNL     1      -9.125   8.450  72.353  1.00  0.00    -0.326 C  
HETATM   43  O   UNL     1      -7.080   6.286  70.873  1.00  0.00    -0.066 OA 
ENDBRANCH  30  32
ENDBRANCH  29  30
ENDBRANCH  28  29
ENDBRANCH  27  28
ENDBRANCH  25  27
ENDBRANCH   7  25
TORSDOF 9
ENDMDL
MODEL       43
REMARK 921   NORMALIZED FREE ENERGY PREDICTED BY IDOCK:   -6.75 KCAL/MOL
REMARK 922        TOTAL FREE ENERGY PREDICTED BY IDOCK:  -10.81 KCAL/MOL
REMARK 923 INTER-LIGAND FREE ENERGY PREDICTED BY IDOCK:   -9.75 KCAL/MOL
REMARK 924 INTRA-LIGAND FREE ENERGY PREDICTED BY IDOCK:   -1.06 KCAL/MOL
REMARK 927      BINDING AFFINITY PREDICTED BY RF-SCORE:    0.00 PKD
ROOT
HETATM    1  C   UNL     1      -8.963   6.611  68.794  1.00  0.00    -0.125 C  
HETATM    2  C   UNL     1      -7.891   7.699  69.006  1.00  0.00    -0.119 C  
HETATM    3  S   UNL     1      -8.462   8.745  70.428  1.00  0.00    -0.171 SA 
HETATM    4  C   UNL     1      -6.600   6.955  69.372  1.00  0.00    -0.048 C  
HETATM    5  C   UNL     1      -9.235  10.038  69.342  1.00  0.00    -0.216 C  
HETATM    6  C   UNL     1     -10.737   9.872  68.976  1.00  0.00    -0.222 C  
HETATM    7  C   UNL     1      -7.782   8.688  67.816  1.00  0.00    -0.102 C  
HETATM    8  C   UNL     1     -10.189   9.280  67.651  1.00  0.00    -0.230 C  
HETATM    9  O   UNL     1     -10.620   8.597  66.750  1.00  0.00    -0.269 OA 
HETATM   10  N   UNL     1      -8.906   9.622  67.966  1.00  0.00    -0.120 N  
ENDROOT
BRANCH   6  11
HETATM   11  N   UNL     1     -11.548   8.974  69.842  1.00  0.00    -0.441 N  
HETATM   12  C   UNL     1     -12.196   9.454  70.960  1.00  0.00    -0.279 C  
HETATM   13  O   UNL     1     -12.277  10.657  71.203  1.00  0.00    -0.349 OA 
HETATM   14  H   UNL     1     -11.627   7.986  69.603  1.00  0.00     0.000 HD 
BRANCH  12  15
HETATM   15  C   UNL     1     -12.780   8.372  71.897  1.00  0.00    -0.355 C  
HETATM   16  H2  UNL     1     -14.137   9.692  72.792  1.00  0.00     0.000 HD 
HETATM   17  N   UNL     1     -13.433   9.010  73.072  1.00  0.00    -0.936 NA 
HETATM   18  H1  UNL     1     -13.817   8.297  73.690  1.00  0.00     0.000 HD 
BRANCH  15  19
HETATM   19  C   UNL     1     -11.765   7.321  72.311  1.00  0.00    -0.304 A  
HETATM   20  C   UNL     1     -11.796   6.009  71.808  1.00  0.00    -0.190 A  
HETATM   21  C   UNL     1     -10.721   7.675  73.183  1.00  0.00    -0.445 A  
HETATM   22  C   UNL     1      -9.703   6.766  73.483  1.00  0.00    -0.228 A  
HETATM   23  C   UNL     1     -10.773   5.106  72.101  1.00  0.00    -0.252 A  
HETATM   24  C   UNL     1      -9.720   5.489  72.926  1.00  0.00    -0.170 A  
ENDBRANCH  15  19
ENDBRANCH  12  15
ENDBRANCH   6  11
BRANCH   7  25
HETATM   25  C   UNL     1      -6.504   9.556  67.798  1.00  0.00    -0.058 C  
HETATM   26  O   UNL     1      -5.447   9.256  67.251  1.00  0.00    -0.040 OA 
BRANCH  25  27
HETATM   27  O   UNL     1      -6.682  10.719  68.489  1.00  0.00    -0.055 OA 
BRANCH  27  28
HETATM   28  C   UNL     1      -6.231  11.894  67.808  1.00  0.00    -0.070 C  
BRANCH  28  29
HETATM   29  O   UNL     1      -7.322  12.581  67.204  1.00  0.00    -0.137 OA 
BRANCH  29  30
HETATM   30  C   UNL     1      -7.714  13.732  67.809  1.00  0.00    -0.168 C  
HETATM   31  O   UNL     1      -7.451  14.033  68.965  1.00  0.00    -0.119 OA 
BRANCH  30  32
HETATM   32  C   UNL     1      -8.514  14.632  66.842  1.00  0.00    -0.173 C  
HETATM   33  N   UNL     1      -8.887  15.872  67.541  1.00  0.00    -0.187 N  
HETATM   34  C   UNL     1     -10.131  15.863  68.357  1.00  0.00    -0.223 C  
HETATM   35  S   UNL     1     -10.952  14.373  67.752  1.00  0.00    -0.283 S  
HETATM   36  C   UNL     1     -10.465  17.226  67.747  1.00  0.00    -0.371 C  
HETATM   37  O   UNL     1     -10.791  13.323  68.742  1.00  0.00    -0.245 OA 
HETATM   38  O   UNL     1     -12.267  14.700  67.238  1.00  0.00    -0.294 OA 
HETATM   39  C   UNL     1      -9.838  13.997  66.355  1.00  0.00    -0.296 C  
HETATM   40  C   UNL     1      -9.217  17.014  66.877  1.00  0.00    -0.240 C  
HETATM   41  C   UNL     1      -9.798  12.487  66.080  1.00  0.00    -0.266 C  
HETATM   42  C   UNL     1     -10.363  14.664  65.065  1.00  0.00    -0.432 C  
HETATM   43  O   UNL     1      -8.769  17.474  65.855  1.00  0.00    -0.525 OA 
ENDBRANCH  30  32
ENDBRANCH  29  30
ENDBRANCH  28  29
ENDBRANCH  27  28
ENDBRANCH  25  27
ENDBRANCH   7  25
TORSDOF 9
ENDMDL
MODEL       44
REMARK 921   NORMALIZED FREE ENERGY PREDICTED BY IDOCK:   -6.72 KCAL/MOL
REMARK 922        TOTAL FREE ENERGY PREDICTED BY IDOCK:  -10.77 KCAL/MOL
REMARK 923 INTER-LIGAND FREE ENERGY PREDICTED BY IDOCK:   -9.79 KCAL/MOL
REMARK 924 INTRA-LIGAND FREE ENERGY PREDICTED BY IDOCK:   -0.98 KCAL/MOL
REMARK 927      BINDING AFFINITY PREDICTED BY RF-SCORE:    0.00 PKD
ROOT
HETATM    1  C   UNL     1      -8.462   6.677  69.229  1.00  0.00    -0.124 C  
HETATM    2  C   UNL     1      -7.622   7.970  69.293  1.00  0.00    -0.096 C  
HETATM    3  S   UNL     1      -8.425   9.070  70.553  1.00  0.00    -0.219 SA 
HETATM    4  C   UNL     1      -6.226   7.544  69.764  1.00  0.00    -0.030 C  
HETATM    5  C   UNL     1      -9.395  10.031  69.295  1.00  0.00    -0.214 C  
HETATM    6  C   UNL     1     -10.827   9.532  68.949  1.00  0.00    -0.150 C  
HETATM    7  C   UNL     1      -7.666   8.791  67.977  1.00  0.00    -0.101 C  
HETATM    8  C   UNL     1     -10.135   8.882  67.721  1.00  0.00    -0.210 C  
HETATM    9  O   UNL     1     -10.400   8.013  66.921  1.00  0.00    -0.306 OA 
HETATM   10  N   UNL     1      -8.951   9.503  67.991  1.00  0.00    -0.124 N  
ENDROOT
BRANCH   6  11
HETATM   11  N   UNL     1     -11.479   8.621  69.927  1.00  0.00    -0.449 N  
HETATM   12  C   UNL     1     -12.352   9.101  70.879  1.00  0.00    -0.142 C  
HETATM   13  O   UNL     1     -12.762  10.261  70.864  1.00  0.00    -0.332 OA 
HETATM   14  H   UNL     1     -11.277   7.621  69.892  1.00  0.00     0.000 HD 
BRANCH  12  15
HETATM   15  C   UNL     1     -12.748   8.091  71.979  1.00  0.00    -0.302 C  
HETATM   16  H2  UNL     1     -14.214   9.348  72.790  1.00  0.00     0.000 HD 
HETATM   17  N   UNL     1     -13.417   8.797  73.106  1.00  0.00    -0.927 NA 
HETATM   18  H1  UNL     1     -13.677   8.130  73.832  1.00  0.00     0.000 HD 
BRANCH  15  19
HETATM   19  C   UNL     1     -11.590   7.231  72.454  1.00  0.00    -0.307 A  
HETATM   20  C   UNL     1     -11.438   5.892  72.055  1.00  0.00    -0.311 A  
HETATM   21  C   UNL     1     -10.600   7.797  73.274  1.00  0.00    -0.350 A  
HETATM   22  C   UNL     1      -9.460   7.068  73.623  1.00  0.00    -0.239 A  
HETATM   23  C   UNL     1     -10.295   5.169  72.396  1.00  0.00    -0.257 A  
HETATM   24  C   UNL     1      -9.299   5.761  73.168  1.00  0.00    -0.139 A  
ENDBRANCH  15  19
ENDBRANCH  12  15
ENDBRANCH   6  11
BRANCH   7  25
HETATM   25  C   UNL     1      -6.575   9.878  67.845  1.00  0.00    -0.064 C  
HETATM   26  O   UNL     1      -5.514   9.751  67.242  1.00  0.00    -0.039 OA 
BRANCH  25  27
HETATM   27  O   UNL     1      -6.928  11.020  68.501  1.00  0.00    -0.064 OA 
BRANCH  27  28
HETATM   28  C   UNL     1      -6.821  12.215  67.722  1.00  0.00    -0.106 C  
BRANCH  28  29
HETATM   29  O   UNL     1      -7.802  13.169  68.116  1.00  0.00    -0.124 OA 
BRANCH  29  30
HETATM   30  C   UNL     1      -8.572  13.683  67.123  1.00  0.00    -0.192 C  
HETATM   31  O   UNL     1      -8.416  14.790  66.625  1.00  0.00    -0.199 OA 
BRANCH  30  32
HETATM   32  C   UNL     1      -9.658  12.679  66.676  1.00  0.00    -0.249 C  
HETATM   33  N   UNL     1      -9.748  12.695  65.207  1.00  0.00    -0.102 N  
HETATM   34  C   UNL     1     -10.620  13.723  64.575  1.00  0.00    -0.386 C  
HETATM   35  S   UNL     1     -11.613  14.270  65.980  1.00  0.00    -0.368 S  
HETATM   36  C   UNL     1     -11.140  12.620  63.651  1.00  0.00    -0.496 C  
HETATM   37  O   UNL     1     -11.117  15.563  66.420  1.00  0.00    -0.283 OA 
HETATM   38  O   UNL     1     -13.022  14.084  65.699  1.00  0.00    -0.608 OA 
HETATM   39  C   UNL     1     -11.073  13.023  67.198  1.00  0.00    -0.273 C  
HETATM   40  C   UNL     1     -10.286  11.665  64.497  1.00  0.00    -0.291 C  
HETATM   41  C   UNL     1     -11.143  13.586  68.624  1.00  0.00    -0.299 C  
HETATM   42  C   UNL     1     -12.018  11.802  67.161  1.00  0.00     0.026 C  
HETATM   43  O   UNL     1     -10.228  10.475  64.693  1.00  0.00    -0.345 OA 
ENDBRANCH  30  32
ENDBRANCH  29  30
ENDBRANCH  28  29
ENDBRANCH  27  28
ENDBRANCH  25  27
ENDBRANCH   7  25
TORSDOF 9
ENDMDL
MODEL       45
REMARK 921   NORMALIZED FREE ENERGY PREDICTED BY IDOCK:   -6.71 KCAL/MOL
REMARK 922        TOTAL FREE ENERGY PREDICTED BY IDOCK:  -10.74 KCAL/MOL
REMARK 923 INTER-LIGAND FREE ENERGY PREDICTED BY IDOCK:   -9.44 KCAL/MOL
REMARK 924 INTRA-LIGAND FREE ENERGY PREDICTED BY IDOCK:   -1.31 KCAL/MOL
REMARK 927      BINDING AFFINITY PREDICTED BY RF-SCORE:    0.00 PKD
ROOT
HETATM    1  C   UNL     1     -11.870  16.197  68.178  1.00  0.00     0.149 C  
HETATM    2  C   UNL     1     -11.622  15.092  69.226  1.00  0.00    -0.315 C  
HETATM    3  S   UNL     1      -9.794  15.052  69.542  1.00  0.00    -0.066 SA 
HETATM    4  C   UNL     1     -12.375  15.529  70.488  1.00  0.00    -0.461 C  
HETATM    5  C   UNL     1      -9.480  13.670  68.341  1.00  0.00    -0.190 C  
HETATM    6  C   UNL     1      -9.128  14.050  66.875  1.00  0.00    -0.248 C  
HETATM    7  C   UNL     1     -11.956  13.670  68.703  1.00  0.00    -0.360 C  
HETATM    8  C   UNL     1     -10.629  13.763  66.605  1.00  0.00    -0.274 C  
HETATM    9  O   UNL     1     -11.431  14.024  65.737  1.00  0.00    -0.308 OA 
HETATM   10  N   UNL     1     -10.817  13.273  67.864  1.00  0.00    -0.238 N  
ENDROOT
BRANCH   6  11
HETATM   11  N   UNL     1      -8.644  15.436  66.634  1.00  0.00    -0.275 N  
HETATM   12  C   UNL     1      -7.358  15.811  66.962  1.00  0.00    -0.191 C  
HETATM   13  O   UNL     1      -6.507  14.992  67.307  1.00  0.00    -0.305 OA 
HETATM   14  H   UNL     1      -9.274  16.122  66.219  1.00  0.00     0.000 HD 
BRANCH  12  15
HETATM   15  C   UNL     1      -7.078  17.329  66.898  1.00  0.00    -0.199 C  
HETATM   16  H2  UNL     1      -5.064  17.114  67.429  1.00  0.00     0.000 HD 
HETATM   17  N   UNL     1      -5.876  17.663  67.708  1.00  0.00    -0.139 NA 
HETATM   18  H1  UNL     1      -5.692  18.665  67.666  1.00  0.00     0.000 HD 
BRANCH  15  19
HETATM   19  C   UNL     1      -8.276  18.181  67.279  1.00  0.00    -0.234 A  
HETATM   20  C   UNL     1      -8.642  18.406  68.617  1.00  0.00    -0.315 A  
HETATM   21  C   UNL     1      -9.019  18.818  66.270  1.00  0.00    -0.244 A  
HETATM   22  C   UNL     1     -10.047  19.707  66.594  1.00  0.00    -0.555 A  
HETATM   23  C   UNL     1      -9.663  19.301  68.939  1.00  0.00    -0.493 A  
HETATM   24  C   UNL     1     -10.355  19.963  67.929  1.00  0.00    -0.545 A  
ENDBRANCH  15  19
ENDBRANCH  12  15
ENDBRANCH   6  11
BRANCH   7  25
HETATM   25  C   UNL     1     -12.084  12.582  69.794  1.00  0.00    -0.224 C  
HETATM   26  O   UNL     1     -12.369  12.785  70.970  1.00  0.00    -0.356 OA 
BRANCH  25  27
HETATM   27  O   UNL     1     -11.826  11.340  69.292  1.00  0.00    -0.301 OA 
BRANCH  27  28
HETATM   28  C   UNL     1     -11.199  10.442  70.213  1.00  0.00    -0.320 C  
BRANCH  28  29
HETATM   29  O   UNL     1     -10.021   9.875  69.648  1.00  0.00    -0.204 OA 
BRANCH  29  30
HETATM   30  C   UNL     1     -10.072   8.548  69.366  1.00  0.00    -0.205 C  
HETATM   31  O   UNL     1     -10.940   7.785  69.769  1.00  0.00    -0.237 OA 
BRANCH  30  32
HETATM   32  C   UNL     1      -8.907   8.123  68.444  1.00  0.00    -0.133 C  
HETATM   33  N   UNL     1      -8.010   9.273  68.247  1.00  0.00    -0.102 N  
HETATM   34  C   UNL     1      -8.345  10.237  67.164  1.00  0.00    -0.122 C  
HETATM   35  S   UNL     1      -9.541   9.295  66.194  1.00  0.00    -0.277 S  
HETATM   36  C   UNL     1      -6.864  10.222  66.781  1.00  0.00    -0.088 C  
HETATM   37  O   UNL     1     -10.872   9.801  66.485  1.00  0.00    -0.045 OA 
HETATM   38  O   UNL     1      -9.088   9.172  64.823  1.00  0.00    -0.200 OA 
HETATM   39  C   UNL     1      -9.362   7.683  67.033  1.00  0.00    -0.157 C  
HETATM   40  C   UNL     1      -6.715   9.129  67.849  1.00  0.00    -0.068 C  
HETATM   41  C   UNL     1     -10.672   6.885  66.967  1.00  0.00    -0.432 C  
HETATM   42  C   UNL     1      -8.293   6.830  66.317  1.00  0.00    -0.126 C  
HETATM   43  O   UNL     1      -5.909   8.276  68.129  1.00  0.00    -0.036 OA 
ENDBRANCH  30  32
ENDBRANCH  29  30
ENDBRANCH  28  29
ENDBRANCH  27  28
ENDBRANCH  25  27
ENDBRANCH   7  25
TORSDOF 9
ENDMDL
MODEL       46
REMARK 921   NORMALIZED FREE ENERGY PREDICTED BY IDOCK:   -6.71 KCAL/MOL
REMARK 922        TOTAL FREE ENERGY PREDICTED BY IDOCK:  -10.74 KCAL/MOL
REMARK 923 INTER-LIGAND FREE ENERGY PREDICTED BY IDOCK:   -9.65 KCAL/MOL
REMARK 924 INTRA-LIGAND FREE ENERGY PREDICTED BY IDOCK:   -1.09 KCAL/MOL
REMARK 927      BINDING AFFINITY PREDICTED BY RF-SCORE:    0.00 PKD
ROOT
HETATM    1  C   UNL     1      -8.490  10.996  68.955  1.00  0.00    -0.124 C  
HETATM    2  C   UNL     1      -8.715   9.947  67.845  1.00  0.00    -0.129 C  
HETATM    3  S   UNL     1      -8.691  10.861  66.231  1.00  0.00    -0.175 SA 
HETATM    4  C   UNL     1      -7.528   8.979  67.931  1.00  0.00    -0.085 C  
HETATM    5  C   UNL     1     -10.539  11.022  66.141  1.00  0.00    -0.228 C  
HETATM    6  C   UNL     1     -11.186  12.298  66.752  1.00  0.00    -0.318 C  
HETATM    7  C   UNL     1     -10.121   9.293  67.901  1.00  0.00    -0.200 C  
HETATM    8  C   UNL     1     -11.461  11.384  67.975  1.00  0.00    -0.307 C  
HETATM    9  O   UNL     1     -11.736  11.539  69.143  1.00  0.00    -0.272 OA 
HETATM   10  N   UNL     1     -11.042  10.271  67.306  1.00  0.00    -0.222 N  
ENDROOT
BRANCH   6  11
HETATM   11  N   UNL     1     -10.297  13.471  66.961  1.00  0.00    -0.251 N  
HETATM   12  C   UNL     1     -10.524  14.666  66.311  1.00  0.00    -0.298 C  
HETATM   13  O   UNL     1     -11.551  14.873  65.666  1.00  0.00    -0.329 OA 
HETATM   14  H   UNL     1      -9.504  13.391  67.598  1.00  0.00     0.000 HD 
BRANCH  12  15
HETATM   15  C   UNL     1      -9.384  15.703  66.423  1.00  0.00    -0.300 C  
HETATM   16  H2  UNL     1      -7.943  14.263  66.907  1.00  0.00     0.000 HD 
HETATM   17  N   UNL     1      -8.277  15.161  67.256  1.00  0.00    -0.192 NA 
HETATM   18  H1  UNL     1      -7.525  15.846  67.329  1.00  0.00     0.000 HD 
BRANCH  15  19
HETATM   19  C   UNL     1      -9.851  17.063  66.911  1.00  0.00    -0.273 A  
HETATM   20  C   UNL     1      -9.911  17.390  68.277  1.00  0.00    -0.310 A  
HETATM   21  C   UNL     1     -10.183  18.057  65.974  1.00  0.00    -0.304 A  
HETATM   22  C   UNL     1     -10.493  19.354  66.390  1.00  0.00    -0.581 A  
HETATM   23  C   UNL     1     -10.212  18.689  68.689  1.00  0.00    -0.359 A  
HETATM   24  C   UNL     1     -10.489  19.674  67.746  1.00  0.00    -0.573 A  
ENDBRANCH  15  19
ENDBRANCH  12  15
ENDBRANCH   6  11
BRANCH   7  25
HETATM   25  C   UNL     1     -10.276   7.999  67.071  1.00  0.00    -0.303 C  
HETATM   26  O   UNL     1      -9.655   7.732  66.047  1.00  0.00    -0.087 OA 
BRANCH  25  27
HETATM   27  O   UNL     1     -11.215   7.170  67.611  1.00  0.00    -0.108 OA 
BRANCH  27  28
HETATM   28  C   UNL     1     -10.745   6.356  68.689  1.00  0.00    -0.285 C  
BRANCH  28  29
HETATM   29  O   UNL     1     -11.655   6.389  69.785  1.00  0.00    -0.431 OA 
BRANCH  29  30
HETATM   30  C   UNL     1     -11.127   6.133  71.009  1.00  0.00    -0.297 C  
HETATM   31  O   UNL     1     -11.732   5.596  71.928  1.00  0.00    -0.137 OA 
BRANCH  30  32
HETATM   32  C   UNL     1      -9.651   6.580  71.092  1.00  0.00    -0.171 C  
HETATM   33  N   UNL     1      -8.883   5.562  71.826  1.00  0.00    -0.135 N  
HETATM   34  C   UNL     1      -8.858   5.648  73.312  1.00  0.00    -0.121 C  
HETATM   35  S   UNL     1      -9.451   7.331  73.589  1.00  0.00    -0.271 S  
HETATM   36  C   UNL     1      -7.356   5.366  73.238  1.00  0.00    -0.095 C  
HETATM   37  O   UNL     1     -10.833   7.266  74.032  1.00  0.00    -0.212 OA 
HETATM   38  O   UNL     1      -8.473   8.087  74.346  1.00  0.00    -0.240 OA 
HETATM   39  C   UNL     1      -9.448   7.909  71.857  1.00  0.00    -0.168 C  
HETATM   40  C   UNL     1      -7.531   5.446  71.714  1.00  0.00    -0.092 C  
HETATM   41  C   UNL     1     -10.523   8.982  71.638  1.00  0.00    -0.426 C  
HETATM   42  C   UNL     1      -8.094   8.571  71.522  1.00  0.00    -0.191 C  
HETATM   43  O   UNL     1      -6.816   5.599  70.754  1.00  0.00    -0.049 OA 
ENDBRANCH  30  32
ENDBRANCH  29  30
ENDBRANCH  28  29
ENDBRANCH  27  28
ENDBRANCH  25  27
ENDBRANCH   7  25
TORSDOF 9
ENDMDL
MODEL       47
REMARK 921   NORMALIZED FREE ENERGY PREDICTED BY IDOCK:   -6.71 KCAL/MOL
REMARK 922        TOTAL FREE ENERGY PREDICTED BY IDOCK:  -10.74 KCAL/MOL
REMARK 923 INTER-LIGAND FREE ENERGY PREDICTED BY IDOCK:  -10.01 KCAL/MOL
REMARK 924 INTRA-LIGAND FREE ENERGY PREDICTED BY IDOCK:   -0.73 KCAL/MOL
REMARK 927      BINDING AFFINITY PREDICTED BY RF-SCORE:    0.00 PKD
ROOT
HETATM    1  C   UNL     1     -11.181  15.608  68.728  1.00  0.00    -0.332 C  
HETATM    2  C   UNL     1     -11.267  14.527  67.631  1.00  0.00    -0.322 C  
HETATM    3  S   UNL     1      -9.539  13.912  67.349  1.00  0.00    -0.243 SA 
HETATM    4  C   UNL     1     -12.146  13.410  68.206  1.00  0.00    -0.271 C  
HETATM    5  C   UNL     1      -9.232  15.035  65.901  1.00  0.00    -0.123 C  
HETATM    6  C   UNL     1      -8.596  16.425  66.185  1.00  0.00    -0.308 C  
HETATM    7  C   UNL     1     -11.709  15.089  66.255  1.00  0.00    -0.096 C  
HETATM    8  C   UNL     1     -10.058  16.938  66.101  1.00  0.00    -0.333 C  
HETATM    9  O   UNL     1     -10.662  17.929  66.444  1.00  0.00    -0.263 OA 
HETATM   10  N   UNL     1     -10.516  15.724  65.679  1.00  0.00    -0.360 N  
ENDROOT
BRANCH   6  11
HETATM   11  N   UNL     1      -7.888  16.591  67.482  1.00  0.00    -0.150 N  
HETATM   12  C   UNL     1      -6.511  16.579  67.552  1.00  0.00    -0.154 C  
HETATM   13  O   UNL     1      -5.805  16.598  66.544  1.00  0.00    -0.324 OA 
HETATM   14  H   UNL     1      -8.430  16.717  68.337  1.00  0.00     0.000 HD 
BRANCH  12  15
HETATM   15  C   UNL     1      -5.924  16.502  68.979  1.00  0.00    -0.150 C  
HETATM   16  H2  UNL     1      -6.813  14.650  69.387  1.00  0.00     0.000 HD 
HETATM   17  N   UNL     1      -6.730  15.572  69.815  1.00  0.00    -0.175 NA 
HETATM   18  H1  UNL     1      -6.342  15.521  70.757  1.00  0.00     0.000 HD 
BRANCH  15  19
HETATM   19  C   UNL     1      -5.757  17.860  69.638  1.00  0.00    -0.233 A  
HETATM   20  C   UNL     1      -6.149  19.053  69.007  1.00  0.00    -0.261 A  
HETATM   21  C   UNL     1      -5.248  17.935  70.946  1.00  0.00    -0.269 A  
HETATM   22  C   UNL     1      -5.201  19.156  71.624  1.00  0.00    -0.348 A  
HETATM   23  C   UNL     1      -6.110  20.270  69.690  1.00  0.00    -0.379 A  
HETATM   24  C   UNL     1      -5.649  20.319  71.002  1.00  0.00    -0.321 A  
ENDBRANCH  15  19
ENDBRANCH  12  15
ENDBRANCH   6  11
BRANCH   7  25
HETATM   25  C   UNL     1     -12.166  14.027  65.228  1.00  0.00    -0.440 C  
HETATM   26  O   UNL     1     -13.271  13.493  65.201  1.00  0.00    -0.720 OA 
BRANCH  25  27
HETATM   27  O   UNL     1     -11.173  13.733  64.340  1.00  0.00    -0.376 OA 
BRANCH  27  28
HETATM   28  C   UNL     1     -11.130  12.364  63.925  1.00  0.00    -0.415 C  
BRANCH  28  29
HETATM   29  O   UNL     1     -10.871  11.505  65.031  1.00  0.00    -0.296 OA 
BRANCH  29  30
HETATM   30  C   UNL     1      -9.774  10.712  64.928  1.00  0.00    -0.284 C  
HETATM   31  O   UNL     1      -9.552   9.951  63.996  1.00  0.00    -0.253 OA 
BRANCH  30  32
HETATM   32  C   UNL     1      -8.821  10.910  66.127  1.00  0.00    -0.186 C  
HETATM   33  N   UNL     1      -7.482  10.422  65.759  1.00  0.00    -0.143 N  
HETATM   34  C   UNL     1      -7.197   8.972  65.938  1.00  0.00    -0.093 C  
HETATM   35  S   UNL     1      -8.553   8.466  67.017  1.00  0.00    -0.123 S  
HETATM   36  C   UNL     1      -5.849   9.377  66.537  1.00  0.00    -0.058 C  
HETATM   37  O   UNL     1      -9.534   7.749  66.220  1.00  0.00    -0.189 OA 
HETATM   38  O   UNL     1      -8.030   7.881  68.236  1.00  0.00    -0.118 OA 
HETATM   39  C   UNL     1      -9.237  10.117  67.388  1.00  0.00    -0.141 C  
HETATM   40  C   UNL     1      -6.354  10.821  66.411  1.00  0.00    -0.122 C  
HETATM   41  C   UNL     1     -10.745  10.034  67.662  1.00  0.00    -0.340 C  
HETATM   42  C   UNL     1      -8.589  10.683  68.670  1.00  0.00    -0.144 C  
HETATM   43  O   UNL     1      -6.068  11.898  66.875  1.00  0.00    -0.153 OA 
ENDBRANCH  30  32
ENDBRANCH  29  30
ENDBRANCH  28  29
ENDBRANCH  27  28
ENDBRANCH  25  27
ENDBRANCH   7  25
TORSDOF 9
ENDMDL
MODEL       48
REMARK 921   NORMALIZED FREE ENERGY PREDICTED BY IDOCK:   -6.70 KCAL/MOL
REMARK 922        TOTAL FREE ENERGY PREDICTED BY IDOCK:  -10.73 KCAL/MOL
REMARK 923 INTER-LIGAND FREE ENERGY PREDICTED BY IDOCK:   -9.30 KCAL/MOL
REMARK 924 INTRA-LIGAND FREE ENERGY PREDICTED BY IDOCK:   -1.43 KCAL/MOL
REMARK 927      BINDING AFFINITY PREDICTED BY RF-SCORE:    0.00 PKD
ROOT
HETATM    1  C   UNL     1      -9.722  11.212  68.722  1.00  0.00    -0.194 C  
HETATM    2  C   UNL     1      -8.287  11.027  68.184  1.00  0.00    -0.130 C  
HETATM    3  S   UNL     1      -8.200  11.932  66.567  1.00  0.00     0.052 SA 
HETATM    4  C   UNL     1      -7.361  11.682  69.216  1.00  0.00     0.025 C  
HETATM    5  C   UNL     1      -8.537  10.417  65.546  1.00  0.00    -0.169 C  
HETATM    6  C   UNL     1     -10.016  10.099  65.187  1.00  0.00    -0.309 C  
HETATM    7  C   UNL     1      -7.957   9.554  67.823  1.00  0.00    -0.099 C  
HETATM    8  C   UNL     1      -9.931   9.112  66.381  1.00  0.00    -0.288 C  
HETATM    9  O   UNL     1     -10.714   8.524  67.092  1.00  0.00    -0.280 OA 
HETATM   10  N   UNL     1      -8.588   9.310  66.519  1.00  0.00    -0.129 N  
ENDROOT
BRANCH   6  11
HETATM   11  N   UNL     1     -10.992  11.217  65.294  1.00  0.00    -0.191 N  
HETATM   12  C   UNL     1     -11.196  12.090  64.246  1.00  0.00    -0.357 C  
HETATM   13  O   UNL     1     -10.717  11.895  63.130  1.00  0.00    -0.354 OA 
HETATM   14  H   UNL     1     -11.520  11.340  66.158  1.00  0.00     0.000 HD 
BRANCH  12  15
HETATM   15  C   UNL     1     -12.036  13.341  64.586  1.00  0.00    -0.408 C  
HETATM   16  H2  UNL     1     -12.877  13.459  62.672  1.00  0.00     0.000 HD 
HETATM   17  N   UNL     1     -12.403  14.066  63.340  1.00  0.00    -1.154 NA 
HETATM   18  H1  UNL     1     -12.958  14.892  63.564  1.00  0.00     0.000 HD 
BRANCH  15  19
HETATM   19  C   UNL     1     -11.375  14.255  65.602  1.00  0.00    -0.317 A  
HETATM   20  C   UNL     1     -10.279  15.073  65.275  1.00  0.00    -0.409 A  
HETATM   21  C   UNL     1     -11.903  14.339  66.902  1.00  0.00    -0.458 A  
HETATM   22  C   UNL     1     -11.396  15.263  67.820  1.00  0.00    -0.331 A  
HETATM   23  C   UNL     1      -9.780  16.000  66.190  1.00  0.00    -0.353 A  
HETATM   24  C   UNL     1     -10.347  16.106  67.457  1.00  0.00    -0.286 A  
ENDBRANCH  15  19
ENDBRANCH  12  15
ENDBRANCH   6  11
BRANCH   7  25
HETATM   25  C   UNL     1      -6.455   9.245  67.636  1.00  0.00    -0.063 C  
HETATM   26  O   UNL     1      -5.752   9.658  66.718  1.00  0.00    -0.049 OA 
BRANCH  25  27
HETATM   27  O   UNL     1      -5.986   8.431  68.625  1.00  0.00    -0.042 OA 
BRANCH  27  28
HETATM   28  C   UNL     1      -6.037   7.033  68.322  1.00  0.00    -0.034 C  
BRANCH  28  29
HETATM   29  O   UNL     1      -7.252   6.456  68.791  1.00  0.00    -0.079 OA 
BRANCH  29  30
HETATM   30  C   UNL     1      -7.468   6.521  70.130  1.00  0.00    -0.094 C  
HETATM   31  O   UNL     1      -6.627   6.271  70.982  1.00  0.00    -0.047 OA 
BRANCH  30  32
HETATM   32  C   UNL     1      -8.909   6.979  70.446  1.00  0.00    -0.155 C  
HETATM   33  N   UNL     1      -8.963   7.464  71.835  1.00  0.00    -0.125 N  
HETATM   34  C   UNL     1      -9.183   6.461  72.912  1.00  0.00    -0.136 C  
HETATM   35  S   UNL     1      -9.774   5.038  71.970  1.00  0.00    -0.170 S  
HETATM   36  C   UNL     1     -10.182   7.441  73.530  1.00  0.00    -0.400 C  
HETATM   37  O   UNL     1      -8.693   4.073  71.867  1.00  0.00    -0.101 OA 
HETATM   38  O   UNL     1     -11.078   4.628  72.450  1.00  0.00    -0.075 OA 
HETATM   39  C   UNL     1      -9.957   5.846  70.343  1.00  0.00    -0.192 C  
HETATM   40  C   UNL     1      -9.943   8.299  72.279  1.00  0.00    -0.296 C  
HETATM   41  C   UNL     1      -9.746   4.837  69.207  1.00  0.00    -0.266 C  
HETATM   42  C   UNL     1     -11.392   6.394  70.183  1.00  0.00    -0.485 C  
HETATM   43  O   UNL     1     -10.502   9.208  71.715  1.00  0.00    -0.352 OA 
ENDBRANCH  30  32
ENDBRANCH  29  30
ENDBRANCH  28  29
ENDBRANCH  27  28
ENDBRANCH  25  27
ENDBRANCH   7  25
TORSDOF 9
ENDMDL
MODEL       49
REMARK 921   NORMALIZED FREE ENERGY PREDICTED BY IDOCK:   -6.67 KCAL/MOL
REMARK 922        TOTAL FREE ENERGY PREDICTED BY IDOCK:  -10.69 KCAL/MOL
REMARK 923 INTER-LIGAND FREE ENERGY PREDICTED BY IDOCK:   -9.97 KCAL/MOL
REMARK 924 INTRA-LIGAND FREE ENERGY PREDICTED BY IDOCK:   -0.71 KCAL/MOL
REMARK 927      BINDING AFFINITY PREDICTED BY RF-SCORE:    0.00 PKD
ROOT
HETATM    1  C   UNL     1      -9.285  10.525  69.325  1.00  0.00    -0.164 C  
HETATM    2  C   UNL     1     -10.438  11.337  68.701  1.00  0.00    -0.203 C  
HETATM    3  S   UNL     1     -10.975  10.424  67.177  1.00  0.00    -0.122 SA 
HETATM    4  C   UNL     1     -11.562  11.346  69.744  1.00  0.00    -0.407 C  
HETATM    5  C   UNL     1      -9.933  11.450  66.032  1.00  0.00    -0.231 C  
HETATM    6  C   UNL     1      -8.494  10.950  65.717  1.00  0.00    -0.155 C  
HETATM    7  C   UNL     1      -9.992  12.730  68.182  1.00  0.00    -0.229 C  
HETATM    8  C   UNL     1      -8.069  11.974  66.804  1.00  0.00    -0.081 C  
HETATM    9  O   UNL     1      -7.093  12.169  67.491  1.00  0.00    -0.111 OA 
HETATM   10  N   UNL     1      -9.331  12.485  66.893  1.00  0.00    -0.213 N  
ENDROOT
BRANCH   6  11
HETATM   11  N   UNL     1      -8.206   9.515  65.981  1.00  0.00    -0.114 N  
HETATM   12  C   UNL     1      -8.465   8.549  65.032  1.00  0.00    -0.164 C  
HETATM   13  O   UNL     1      -8.784   8.834  63.879  1.00  0.00    -0.113 OA 
HETATM   14  H   UNL     1      -7.809   9.241  66.879  1.00  0.00     0.000 HD 
BRANCH  12  15
HETATM   15  C   UNL     1      -8.360   7.090  65.533  1.00  0.00    -0.133 C  
HETATM   16  H2  UNL     1      -8.350   6.288  63.599  1.00  0.00     0.000 HD 
HETATM   17  N   UNL     1      -8.839   6.152  64.483  1.00  0.00    -0.318 NA 
HETATM   18  H1  UNL     1      -8.771   5.190  64.813  1.00  0.00     0.000 HD 
BRANCH  15  19
HETATM   19  C   UNL     1      -9.053   6.857  66.864  1.00  0.00    -0.152 A  
HETATM   20  C   UNL     1     -10.448   6.725  66.970  1.00  0.00    -0.369 A  
HETATM   21  C   UNL     1      -8.280   6.709  68.028  1.00  0.00    -0.117 A  
HETATM   22  C   UNL     1      -8.880   6.369  69.244  1.00  0.00    -0.128 A  
HETATM   23  C   UNL     1     -11.044   6.377  68.183  1.00  0.00    -0.358 A  
HETATM   24  C   UNL     1     -10.259   6.184  69.316  1.00  0.00    -0.251 A  
ENDBRANCH  15  19
ENDBRANCH  12  15
ENDBRANCH   6  11
BRANCH   7  25
HETATM   25  C   UNL     1     -11.141  13.722  67.892  1.00  0.00    -0.264 C  
HETATM   26  O   UNL     1     -12.145  13.869  68.582  1.00  0.00    -0.358 OA 
BRANCH  25  27
HETATM   27  O   UNL     1     -10.915  14.424  66.744  1.00  0.00    -0.303 OA 
BRANCH  27  28
HETATM   28  C   UNL     1     -10.815  15.840  66.921  1.00  0.00    -0.265 C  
BRANCH  28  29
HETATM   29  O   UNL     1      -9.643  16.349  66.290  1.00  0.00    -0.273 OA 
BRANCH  29  30
HETATM   30  C   UNL     1      -8.517  16.372  67.047  1.00  0.00    -0.197 C  
HETATM   31  O   UNL     1      -7.660  15.499  67.045  1.00  0.00    -0.215 OA 
BRANCH  30  32
HETATM   32  C   UNL     1      -8.436  17.660  67.897  1.00  0.00    -0.233 C  
HETATM   33  N   UNL     1      -9.457  18.609  67.424  1.00  0.00    -0.294 N  
HETATM   34  C   UNL     1      -9.107  19.495  66.281  1.00  0.00    -0.360 C  
HETATM   35  S   UNL     1      -7.309  19.336  66.235  1.00  0.00    -0.276 S  
HETATM   36  C   UNL     1      -9.757  20.643  67.055  1.00  0.00    -0.485 C  
HETATM   37  O   UNL     1      -6.951  18.464  65.129  1.00  0.00    -0.501 OA 
HETATM   38  O   UNL     1      -6.688  20.638  66.372  1.00  0.00    -0.246 OA 
HETATM   39  C   UNL     1      -7.080  18.395  67.782  1.00  0.00    -0.218 C  
HETATM   40  C   UNL     1      -9.919  19.630  68.198  1.00  0.00    -0.437 C  
HETATM   41  C   UNL     1      -5.836  17.499  67.697  1.00  0.00    -0.150 C  
HETATM   42  C   UNL     1      -6.843  19.363  68.961  1.00  0.00    -0.377 C  
HETATM   43  O   UNL     1     -10.126  19.670  69.386  1.00  0.00    -0.390 OA 
ENDBRANCH  30  32
ENDBRANCH  29  30
ENDBRANCH  28  29
ENDBRANCH  27  28
ENDBRANCH  25  27
ENDBRANCH   7  25
TORSDOF 9
ENDMDL
MODEL       50
REMARK 921   NORMALIZED FREE ENERGY PREDICTED BY IDOCK:   -6.67 KCAL/MOL
REMARK 922        TOTAL FREE ENERGY PREDICTED BY IDOCK:  -10.69 KCAL/MOL
REMARK 923 INTER-LIGAND FREE ENERGY PREDICTED BY IDOCK:   -9.71 KCAL/MOL
REMARK 924 INTRA-LIGAND FREE ENERGY PREDICTED BY IDOCK:   -0.97 KCAL/MOL
REMARK 927      BINDING AFFINITY PREDICTED BY RF-SCORE:    0.00 PKD
ROOT
HETATM    1  C   UNL     1     -10.865  13.782  69.238  1.00  0.00    -0.141 C  
HETATM    2  C   UNL     1     -11.027  13.577  67.717  1.00  0.00    -0.266 C  
HETATM    3  S   UNL     1     -10.875  11.754  67.402  1.00  0.00    -0.267 SA 
HETATM    4  C   UNL     1     -12.440  14.065  67.372  1.00  0.00     0.035 C  
HETATM    5  C   UNL     1      -9.071  11.843  66.970  1.00  0.00    -0.191 C  
HETATM    6  C   UNL     1      -8.041  11.640  68.118  1.00  0.00    -0.148 C  
HETATM    7  C   UNL     1      -9.877  14.211  66.891  1.00  0.00    -0.265 C  
HETATM    8  C   UNL     1      -7.977  13.191  68.124  1.00  0.00    -0.154 C  
HETATM    9  O   UNL     1      -7.598  14.051  68.886  1.00  0.00    -0.123 OA 
HETATM   10  N   UNL     1      -8.745  13.281  67.000  1.00  0.00    -0.208 N  
ENDROOT
BRANCH   6  11
HETATM   11  N   UNL     1      -8.529  10.972  69.353  1.00  0.00    -0.379 N  
HETATM   12  C   UNL     1      -8.147   9.685  69.668  1.00  0.00    -0.141 C  
HETATM   13  O   UNL     1      -7.267   9.093  69.045  1.00  0.00    -0.069 OA 
HETATM   14  H   UNL     1      -9.158  11.475  69.980  1.00  0.00     0.000 HD 
BRANCH  12  15
HETATM   15  C   UNL     1      -8.928   9.033  70.832  1.00  0.00    -0.243 C  
HETATM   16  H2  UNL     1      -7.831  10.039  72.305  1.00  0.00     0.000 HD 
HETATM   17  N   UNL     1      -8.124   9.088  72.082  1.00  0.00    -0.320 NA 
HETATM   18  H1  UNL     1      -8.639   8.658  72.850  1.00  0.00     0.000 HD 
BRANCH  15  19
HETATM   19  C   UNL     1      -9.406   7.625  70.524  1.00  0.00    -0.163 A  
HETATM   20  C   UNL     1      -8.840   6.491  71.131  1.00  0.00    -0.138 A  
HETATM   21  C   UNL     1     -10.489   7.440  69.648  1.00  0.00    -0.237 A  
HETATM   22  C   UNL     1     -11.033   6.169  69.444  1.00  0.00    -0.454 A  
HETATM   23  C   UNL     1      -9.390   5.224  70.933  1.00  0.00    -0.197 A  
HETATM   24  C   UNL     1     -10.495   5.065  70.101  1.00  0.00    -0.235 A  
ENDBRANCH  15  19
ENDBRANCH  12  15
ENDBRANCH   6  11
BRANCH   7  25
HETATM   25  C   UNL     1     -10.161  14.364  65.380  1.00  0.00    -0.382 C  
HETATM   26  O   UNL     1     -10.519  13.462  64.628  1.00  0.00    -0.385 OA 
BRANCH  25  27
HETATM   27  O   UNL     1      -9.951  15.645  64.960  1.00  0.00    -0.362 OA 
BRANCH  27  28
HETATM   28  C   UNL     1     -10.957  16.579  65.363  1.00  0.00    -0.131 C  
BRANCH  28  29
HETATM   29  O   UNL     1     -10.477  17.916  65.266  1.00  0.00    -0.585 OA 
BRANCH  29  30
HETATM   30  C   UNL     1     -10.322  18.584  66.438  1.00  0.00    -0.423 C  
HETATM   31  O   UNL     1     -11.188  18.689  67.296  1.00  0.00    -0.133 OA 
BRANCH  30  32
HETATM   32  C   UNL     1      -8.901  19.175  66.566  1.00  0.00    -0.334 C  
HETATM   33  N   UNL     1      -7.946  18.273  65.903  1.00  0.00    -0.091 N  
HETATM   34  C   UNL     1      -7.405  17.133  66.691  1.00  0.00    -0.250 C  
HETATM   35  S   UNL     1      -7.830  17.622  68.377  1.00  0.00    -0.274 S  
HETATM   36  C   UNL     1      -6.028  17.474  66.117  1.00  0.00    -0.229 C  
HETATM   37  O   UNL     1      -8.972  16.836  68.810  1.00  0.00    -0.248 OA 
HETATM   38  O   UNL     1      -6.635  17.689  69.194  1.00  0.00    -0.236 OA 
HETATM   39  C   UNL     1      -8.417  19.315  68.029  1.00  0.00    -0.317 C  
HETATM   40  C   UNL     1      -6.720  18.689  65.482  1.00  0.00    -0.249 C  
HETATM   41  C   UNL     1      -9.480  19.744  69.050  1.00  0.00    -0.261 C  
HETATM   42  C   UNL     1      -7.251  20.317  68.162  1.00  0.00    -0.266 C  
HETATM   43  O   UNL     1      -6.381  19.744  65.004  1.00  0.00    -0.250 OA 
ENDBRANCH  30  32
ENDBRANCH  29  30
ENDBRANCH  28  29
ENDBRANCH  27  28
ENDBRANCH  25  27
ENDBRANCH   7  25
TORSDOF 9
ENDMDL
MODEL       51
REMARK 921   NORMALIZED FREE ENERGY PREDICTED BY IDOCK:   -6.67 KCAL/MOL
REMARK 922        TOTAL FREE ENERGY PREDICTED BY IDOCK:  -10.68 KCAL/MOL
REMARK 923 INTER-LIGAND FREE ENERGY PREDICTED BY IDOCK:  -10.49 KCAL/MOL
REMARK 924 INTRA-LIGAND FREE ENERGY PREDICTED BY IDOCK:   -0.20 KCAL/MOL
REMARK 927      BINDING AFFINITY PREDICTED BY RF-SCORE:    0.00 PKD
ROOT
HETATM    1  C   UNL     1     -10.321  13.727  64.952  1.00  0.00    -0.420 C  
HETATM    2  C   UNL     1     -10.575  12.208  65.039  1.00  0.00    -0.291 C  
HETATM    3  S   UNL     1     -11.743  11.939  66.455  1.00  0.00    -0.014 SA 
HETATM    4  C   UNL     1     -11.238  11.813  63.714  1.00  0.00    -0.518 C  
HETATM    5  C   UNL     1     -10.394  11.555  67.672  1.00  0.00    -0.186 C  
HETATM    6  C   UNL     1      -9.806  12.734  68.497  1.00  0.00    -0.143 C  
HETATM    7  C   UNL     1      -9.307  11.399  65.423  1.00  0.00    -0.186 C  
HETATM    8  C   UNL     1      -8.673  12.707  67.438  1.00  0.00    -0.191 C  
HETATM    9  O   UNL     1      -7.803  13.460  67.063  1.00  0.00    -0.074 OA 
HETATM   10  N   UNL     1      -9.153  11.561  66.875  1.00  0.00    -0.174 N  
ENDROOT
BRANCH   6  11
HETATM   11  N   UNL     1     -10.627  13.971  68.587  1.00  0.00    -0.253 N  
HETATM   12  C   UNL     1     -10.214  15.051  69.339  1.00  0.00    -0.223 C  
HETATM   13  O   UNL     1      -9.087  15.113  69.829  1.00  0.00    -0.148 OA 
HETATM   14  H   UNL     1     -11.513  14.022  68.083  1.00  0.00     0.000 HD 
BRANCH  12  15
HETATM   15  C   UNL     1     -11.277  16.153  69.548  1.00  0.00    -0.337 C  
HETATM   16  H2  UNL     1     -10.189  17.589  68.481  1.00  0.00     0.000 HD 
HETATM   17  N   UNL     1     -10.662  17.497  69.380  1.00  0.00    -0.310 NA 
HETATM   18  H1  UNL     1     -11.363  18.224  69.518  1.00  0.00     0.000 HD 
BRANCH  15  19
HETATM   19  C   UNL     1     -12.023  16.030  70.865  1.00  0.00    -0.376 A  
HETATM   20  C   UNL     1     -13.242  15.339  70.974  1.00  0.00    -0.546 A  
HETATM   21  C   UNL     1     -11.458  16.571  72.032  1.00  0.00    -0.077 A  
HETATM   22  C   UNL     1     -12.058  16.365  73.277  1.00  0.00    -0.553 A  
HETATM   23  C   UNL     1     -13.835  15.127  72.220  1.00  0.00    -0.618 A  
HETATM   24  C   UNL     1     -13.236  15.627  73.372  1.00  0.00    -0.628 A  
ENDBRANCH  15  19
ENDBRANCH  12  15
ENDBRANCH   6  11
BRANCH   7  25
HETATM   25  C   UNL     1      -9.397   9.878  65.168  1.00  0.00    -0.258 C  
HETATM   26  O   UNL     1      -8.683   9.242  64.398  1.00  0.00    -0.193 OA 
BRANCH  25  27
HETATM   27  O   UNL     1     -10.392   9.307  65.905  1.00  0.00    -0.154 OA 
BRANCH  27  28
HETATM   28  C   UNL     1      -9.983   8.190  66.700  1.00  0.00    -0.269 C  
BRANCH  28  29
HETATM   29  O   UNL     1     -10.634   8.202  67.967  1.00  0.00    -0.200 OA 
BRANCH  29  30
HETATM   30  C   UNL     1     -10.555   7.057  68.692  1.00  0.00    -0.210 C  
HETATM   31  O   UNL     1     -11.147   6.021  68.420  1.00  0.00    -0.314 OA 
BRANCH  30  32
HETATM   32  C   UNL     1      -9.599   7.216  69.894  1.00  0.00    -0.163 C  
HETATM   33  N   UNL     1      -9.327   5.887  70.468  1.00  0.00    -0.161 N  
HETATM   34  C   UNL     1     -10.290   5.352  71.468  1.00  0.00    -0.225 C  
HETATM   35  S   UNL     1     -11.208   6.839  71.921  1.00  0.00    -0.273 S  
HETATM   36  C   UNL     1      -9.082   4.913  72.299  1.00  0.00    -0.146 C  
HETATM   37  O   UNL     1     -12.506   6.795  71.268  1.00  0.00    -0.362 OA 
HETATM   38  O   UNL     1     -11.114   7.069  73.349  1.00  0.00    -0.262 OA 
HETATM   39  C   UNL     1     -10.184   8.069  71.044  1.00  0.00    -0.190 C  
HETATM   40  C   UNL     1      -8.235   5.636  71.241  1.00  0.00    -0.125 C  
HETATM   41  C   UNL     1     -11.028   9.279  70.620  1.00  0.00    -0.336 C  
HETATM   42  C   UNL     1      -9.085   8.609  71.984  1.00  0.00    -0.311 C  
HETATM   43  O   UNL     1      -7.110   6.065  71.158  1.00  0.00    -0.069 OA 
ENDBRANCH  30  32
ENDBRANCH  29  30
ENDBRANCH  28  29
ENDBRANCH  27  28
ENDBRANCH  25  27
ENDBRANCH   7  25
TORSDOF 9
ENDMDL
MODEL       52
REMARK 921   NORMALIZED FREE ENERGY PREDICTED BY IDOCK:   -6.66 KCAL/MOL
REMARK 922        TOTAL FREE ENERGY PREDICTED BY IDOCK:  -10.67 KCAL/MOL
REMARK 923 INTER-LIGAND FREE ENERGY PREDICTED BY IDOCK:  -10.73 KCAL/MOL
REMARK 924 INTRA-LIGAND FREE ENERGY PREDICTED BY IDOCK:    0.06 KCAL/MOL
REMARK 927      BINDING AFFINITY PREDICTED BY RF-SCORE:    0.00 PKD
ROOT
HETATM    1  C   UNL     1     -10.937  16.395  69.127  1.00  0.00    -0.324 C  
HETATM    2  C   UNL     1     -11.150  15.020  68.461  1.00  0.00    -0.272 C  
HETATM    3  S   UNL     1      -9.478  14.229  68.318  1.00  0.00    -0.212 SA 
HETATM    4  C   UNL     1     -12.042  14.220  69.419  1.00  0.00    -0.361 C  
HETATM    5  C   UNL     1      -9.216  14.784  66.565  1.00  0.00    -0.276 C  
HETATM    6  C   UNL     1      -8.495  16.143  66.335  1.00  0.00    -0.334 C  
HETATM    7  C   UNL     1     -11.658  15.123  66.998  1.00  0.00    -0.174 C  
HETATM    8  C   UNL     1      -9.933  16.698  66.154  1.00  0.00    -0.337 C  
HETATM    9  O   UNL     1     -10.463  17.785  66.175  1.00  0.00    -0.366 OA 
HETATM   10  N   UNL     1     -10.478  15.448  66.186  1.00  0.00    -0.303 N  
ENDROOT
BRANCH   6  11
HETATM   11  N   UNL     1      -7.692  16.680  67.466  1.00  0.00    -0.160 N  
HETATM   12  C   UNL     1      -6.315  16.618  67.459  1.00  0.00    -0.162 C  
HETATM   13  O   UNL     1      -5.682  16.275  66.461  1.00  0.00    -0.209 OA 
HETATM   14  H   UNL     1      -8.169  17.103  68.263  1.00  0.00     0.000 HD 
BRANCH  12  15
HETATM   15  C   UNL     1      -5.632  16.974  68.798  1.00  0.00    -0.139 C  
HETATM   16  H2  UNL     1      -6.407  15.300  69.790  1.00  0.00     0.000 HD 
HETATM   17  N   UNL     1      -6.337  16.308  69.926  1.00  0.00    -0.176 NA 
HETATM   18  H1  UNL     1      -5.887  16.543  70.810  1.00  0.00     0.000 HD 
BRANCH  15  19
HETATM   19  C   UNL     1      -5.485  18.469  69.022  1.00  0.00    -0.200 A  
HETATM   20  C   UNL     1      -5.323  19.375  67.960  1.00  0.00    -0.181 A  
HETATM   21  C   UNL     1      -5.569  18.983  70.328  1.00  0.00    -0.258 A  
HETATM   22  C   UNL     1      -5.563  20.362  70.554  1.00  0.00    -0.347 A  
HETATM   23  C   UNL     1      -5.327  20.752  68.187  1.00  0.00    -0.318 A  
HETATM   24  C   UNL     1      -5.462  21.245  69.481  1.00  0.00    -0.037 A  
ENDBRANCH  15  19
ENDBRANCH  12  15
ENDBRANCH   6  11
BRANCH   7  25
HETATM   25  C   UNL     1     -12.235  13.815  66.411  1.00  0.00    -0.436 C  
HETATM   26  O   UNL     1     -12.787  13.708  65.319  1.00  0.00    -0.672 OA 
BRANCH  25  27
HETATM   27  O   UNL     1     -12.070  12.767  67.268  1.00  0.00    -0.399 OA 
BRANCH  27  28
HETATM   28  C   UNL     1     -11.387  11.640  66.711  1.00  0.00    -0.286 C  
BRANCH  28  29
HETATM   29  O   UNL     1     -11.511  10.502  67.557  1.00  0.00    -0.431 OA 
BRANCH  29  30
HETATM   30  C   UNL     1     -10.525  10.328  68.475  1.00  0.00    -0.192 C  
HETATM   31  O   UNL     1      -9.510  11.008  68.540  1.00  0.00    -0.174 OA 
BRANCH  30  32
HETATM   32  C   UNL     1     -10.860   9.179  69.451  1.00  0.00    -0.151 C  
HETATM   33  N   UNL     1     -10.143   9.402  70.717  1.00  0.00    -0.285 N  
HETATM   34  C   UNL     1      -8.743   8.909  70.819  1.00  0.00    -0.206 C  
HETATM   35  S   UNL     1      -8.653   7.777  69.415  1.00  0.00    -0.135 S  
HETATM   36  C   UNL     1      -9.100   8.380  72.210  1.00  0.00    -0.313 C  
HETATM   37  O   UNL     1      -7.906   8.422  68.350  1.00  0.00    -0.109 OA 
HETATM   38  O   UNL     1      -8.287   6.449  69.866  1.00  0.00    -0.126 OA 
HETATM   39  C   UNL     1     -10.417   7.786  68.945  1.00  0.00    -0.194 C  
HETATM   40  C   UNL     1     -10.533   8.827  71.888  1.00  0.00    -0.353 C  
HETATM   41  C   UNL     1     -10.581   7.535  67.439  1.00  0.00    -0.364 C  
HETATM   42  C   UNL     1     -11.163   6.642  69.664  1.00  0.00    -0.397 C  
HETATM   43  O   UNL     1     -11.641   8.599  72.309  1.00  0.00    -0.362 OA 
ENDBRANCH  30  32
ENDBRANCH  29  30
ENDBRANCH  28  29
ENDBRANCH  27  28
ENDBRANCH  25  27
ENDBRANCH   7  25
TORSDOF 9
ENDMDL
MODEL       53
REMARK 921   NORMALIZED FREE ENERGY PREDICTED BY IDOCK:   -6.64 KCAL/MOL
REMARK 922        TOTAL FREE ENERGY PREDICTED BY IDOCK:  -10.64 KCAL/MOL
REMARK 923 INTER-LIGAND FREE ENERGY PREDICTED BY IDOCK:   -9.79 KCAL/MOL
REMARK 924 INTRA-LIGAND FREE ENERGY PREDICTED BY IDOCK:   -0.85 KCAL/MOL
REMARK 927      BINDING AFFINITY PREDICTED BY RF-SCORE:    0.00 PKD
ROOT
HETATM    1  C   UNL     1      -8.359   7.242  71.076  1.00  0.00    -0.119 C  
HETATM    2  C   UNL     1      -9.717   7.552  71.740  1.00  0.00    -0.160 C  
HETATM    3  S   UNL     1     -10.710   5.986  71.688  1.00  0.00    -0.260 SA 
HETATM    4  C   UNL     1      -9.401   7.939  73.190  1.00  0.00    -0.337 C  
HETATM    5  C   UNL     1     -11.617   6.453  70.136  1.00  0.00    -0.381 C  
HETATM    6  C   UNL     1     -11.006   6.006  68.778  1.00  0.00    -0.312 C  
HETATM    7  C   UNL     1     -10.566   8.577  70.941  1.00  0.00    -0.208 C  
HETATM    8  C   UNL     1     -10.451   7.454  68.728  1.00  0.00    -0.199 C  
HETATM    9  O   UNL     1      -9.584   8.042  68.122  1.00  0.00    -0.149 OA 
HETATM   10  N   UNL     1     -11.164   7.823  69.831  1.00  0.00    -0.134 N  
ENDROOT
BRANCH   6  11
HETATM   11  N   UNL     1     -10.017   4.896  68.815  1.00  0.00    -0.159 N  
HETATM   12  C   UNL     1      -9.681   4.199  67.674  1.00  0.00    -0.122 C  
HETATM   13  O   UNL     1     -10.047   4.561  66.556  1.00  0.00    -0.225 OA 
HETATM   14  H   UNL     1      -9.578   4.646  69.701  1.00  0.00     0.000 HD 
BRANCH  12  15
HETATM   15  C   UNL     1      -8.847   2.919  67.905  1.00  0.00    -0.133 C  
HETATM   16  H2  UNL     1      -9.657   1.933  66.245  1.00  0.00     0.000 HD 
HETATM   17  N   UNL     1      -9.493   1.759  67.236  1.00  0.00    -0.383 NA 
HETATM   18  H1  UNL     1      -8.943   0.914  67.389  1.00  0.00     0.000 HD 
BRANCH  15  19
HETATM   19  C   UNL     1      -8.557   2.643  69.370  1.00  0.00    -0.115 A  
HETATM   20  C   UNL     1      -7.585   3.359  70.090  1.00  0.00    -0.044 A  
HETATM   21  C   UNL     1      -9.319   1.682  70.055  1.00  0.00    -0.165 A  
HETATM   22  C   UNL     1      -9.162   1.495  71.431  1.00  0.00    -0.147 A  
HETATM   23  C   UNL     1      -7.437   3.178  71.466  1.00  0.00    -0.040 A  
HETATM   24  C   UNL     1      -8.235   2.257  72.138  1.00  0.00    -0.054 A  
ENDBRANCH  15  19
ENDBRANCH  12  15
ENDBRANCH   6  11
BRANCH   7  25
HETATM   25  C   UNL     1     -11.746   9.201  71.720  1.00  0.00    -0.386 C  
HETATM   26  O   UNL     1     -12.562   8.579  72.394  1.00  0.00    -0.374 OA 
BRANCH  25  27
HETATM   27  O   UNL     1     -11.789  10.555  71.560  1.00  0.00    -0.255 OA 
BRANCH  27  28
HETATM   28  C   UNL     1     -12.569  11.000  70.446  1.00  0.00    -0.267 C  
BRANCH  28  29
HETATM   29  O   UNL     1     -12.016  12.185  69.881  1.00  0.00    -0.319 OA 
BRANCH  29  30
HETATM   30  C   UNL     1     -11.444  12.054  68.656  1.00  0.00    -0.297 C  
HETATM   31  O   UNL     1     -10.762  11.099  68.308  1.00  0.00    -0.174 OA 
BRANCH  30  32
HETATM   32  C   UNL     1     -11.786  13.252  67.744  1.00  0.00    -0.358 C  
HETATM   33  N   UNL     1     -11.712  12.819  66.339  1.00  0.00    -0.384 N  
HETATM   34  C   UNL     1     -10.384  12.852  65.670  1.00  0.00    -0.282 C  
HETATM   35  S   UNL     1      -9.436  13.898  66.795  1.00  0.00    -0.282 S  
HETATM   36  C   UNL     1     -11.083  13.468  64.456  1.00  0.00    -0.394 C  
HETATM   37  O   UNL     1      -8.554  13.051  67.579  1.00  0.00    -0.169 OA 
HETATM   38  O   UNL     1      -8.908  15.047  66.086  1.00  0.00    -0.217 OA 
HETATM   39  C   UNL     1     -10.801  14.437  67.881  1.00  0.00    -0.251 C  
HETATM   40  C   UNL     1     -12.342  13.489  65.334  1.00  0.00    -0.478 C  
HETATM   41  C   UNL     1     -10.289  14.724  69.299  1.00  0.00    -0.213 C  
HETATM   42  C   UNL     1     -11.405  15.758  67.357  1.00  0.00    -0.106 C  
HETATM   43  O   UNL     1     -13.411  14.050  65.328  1.00  0.00    -0.741 OA 
ENDBRANCH  30  32
ENDBRANCH  29  30
ENDBRANCH  28  29
ENDBRANCH  27  28
ENDBRANCH  25  27
ENDBRANCH   7  25
TORSDOF 9
ENDMDL
MODEL       54
REMARK 921   NORMALIZED FREE ENERGY PREDICTED BY IDOCK:   -6.63 KCAL/MOL
REMARK 922        TOTAL FREE ENERGY PREDICTED BY IDOCK:  -10.63 KCAL/MOL
REMARK 923 INTER-LIGAND FREE ENERGY PREDICTED BY IDOCK:  -10.20 KCAL/MOL
REMARK 924 INTRA-LIGAND FREE ENERGY PREDICTED BY IDOCK:   -0.43 KCAL/MOL
REMARK 927      BINDING AFFINITY PREDICTED BY RF-SCORE:    0.00 PKD
ROOT
HETATM    1  C   UNL     1     -12.737  15.316  69.267  1.00  0.00     0.267 C  
HETATM    2  C   UNL     1     -11.839  14.094  69.549  1.00  0.00    -0.322 C  
HETATM    3  S   UNL     1     -10.082  14.682  69.440  1.00  0.00     0.022 SA 
HETATM    4  C   UNL     1     -12.168  13.648  70.978  1.00  0.00    -0.374 C  
HETATM    5  C   UNL     1      -9.870  14.147  67.674  1.00  0.00    -0.229 C  
HETATM    6  C   UNL     1     -10.192  15.183  66.560  1.00  0.00    -0.276 C  
HETATM    7  C   UNL     1     -11.948  12.994  68.459  1.00  0.00    -0.261 C  
HETATM    8  C   UNL     1     -11.553  14.441  66.480  1.00  0.00    -0.378 C  
HETATM    9  O   UNL     1     -12.654  14.672  66.034  1.00  0.00    -0.184 OA 
HETATM   10  N   UNL     1     -11.131  13.463  67.332  1.00  0.00    -0.271 N  
ENDROOT
BRANCH   6  11
HETATM   11  N   UNL     1     -10.218  16.616  66.957  1.00  0.00    -0.285 N  
HETATM   12  C   UNL     1     -10.455  17.610  66.032  1.00  0.00    -0.278 C  
HETATM   13  O   UNL     1     -10.818  17.361  64.883  1.00  0.00    -0.814 OA 
HETATM   14  H   UNL     1     -10.058  16.868  67.933  1.00  0.00     0.000 HD 
BRANCH  12  15
HETATM   15  C   UNL     1     -10.198  19.050  66.532  1.00  0.00    -0.421 C  
HETATM   16  H2  UNL     1     -11.668  19.883  65.295  1.00  0.00     0.000 HD 
HETATM   17  N   UNL     1     -10.687  20.035  65.530  1.00  0.00    -0.321 NA 
HETATM   18  H1  UNL     1     -10.517  20.985  65.860  1.00  0.00     0.000 HD 
BRANCH  15  19
HETATM   19  C   UNL     1      -8.752  19.305  66.921  1.00  0.00    -0.323 A  
HETATM   20  C   UNL     1      -8.399  19.931  68.128  1.00  0.00    -0.280 A  
HETATM   21  C   UNL     1      -7.721  18.852  66.080  1.00  0.00    -0.281 A  
HETATM   22  C   UNL     1      -6.383  18.959  66.471  1.00  0.00    -0.208 A  
HETATM   23  C   UNL     1      -7.064  20.029  68.521  1.00  0.00    -0.309 A  
HETATM   24  C   UNL     1      -6.057  19.530  67.699  1.00  0.00    -0.215 A  
ENDBRANCH  15  19
ENDBRANCH  12  15
ENDBRANCH   6  11
BRANCH   7  25
HETATM   25  C   UNL     1     -11.374  11.615  68.859  1.00  0.00    -0.267 C  
HETATM   26  O   UNL     1     -10.184  11.314  68.864  1.00  0.00    -0.200 OA 
BRANCH  25  27
HETATM   27  O   UNL     1     -12.365  10.743  69.203  1.00  0.00    -0.400 OA 
BRANCH  27  28
HETATM   28  C   UNL     1     -12.325  10.297  70.561  1.00  0.00    -0.284 C  
BRANCH  28  29
HETATM   29  O   UNL     1     -11.873   8.949  70.640  1.00  0.00    -0.241 OA 
BRANCH  29  30
HETATM   30  C   UNL     1     -11.799   8.414  71.886  1.00  0.00    -0.336 C  
HETATM   31  O   UNL     1     -12.755   8.260  72.634  1.00  0.00    -0.242 OA 
BRANCH  30  32
HETATM   32  C   UNL     1     -10.353   7.995  72.234  1.00  0.00    -0.271 C  
HETATM   33  N   UNL     1      -9.449   8.477  71.177  1.00  0.00    -0.178 N  
HETATM   34  C   UNL     1      -9.270   7.622  69.973  1.00  0.00    -0.151 C  
HETATM   35  S   UNL     1      -9.933   6.043  70.545  1.00  0.00    -0.192 S  
HETATM   36  C   UNL     1      -7.770   7.906  70.074  1.00  0.00    -0.089 C  
HETATM   37  O   UNL     1     -11.253   5.861  69.965  1.00  0.00    -0.364 OA 
HETATM   38  O   UNL     1      -8.929   5.005  70.423  1.00  0.00    -0.118 OA 
HETATM   39  C   UNL     1     -10.152   6.463  72.308  1.00  0.00    -0.176 C  
HETATM   40  C   UNL     1      -8.111   8.639  71.379  1.00  0.00    -0.151 C  
HETATM   41  C   UNL     1     -11.310   5.663  72.919  1.00  0.00    -0.325 C  
HETATM   42  C   UNL     1      -8.886   6.081  73.104  1.00  0.00    -0.128 C  
HETATM   43  O   UNL     1      -7.515   9.017  72.358  1.00  0.00    -0.340 OA 
ENDBRANCH  30  32
ENDBRANCH  29  30
ENDBRANCH  28  29
ENDBRANCH  27  28
ENDBRANCH  25  27
ENDBRANCH   7  25
TORSDOF 9
ENDMDL
MODEL       55
REMARK 921   NORMALIZED FREE ENERGY PREDICTED BY IDOCK:   -6.60 KCAL/MOL
REMARK 922        TOTAL FREE ENERGY PREDICTED BY IDOCK:  -10.58 KCAL/MOL
REMARK 923 INTER-LIGAND FREE ENERGY PREDICTED BY IDOCK:   -9.48 KCAL/MOL
REMARK 924 INTRA-LIGAND FREE ENERGY PREDICTED BY IDOCK:   -1.10 KCAL/MOL
REMARK 927      BINDING AFFINITY PREDICTED BY RF-SCORE:    0.00 PKD
ROOT
HETATM    1  C   UNL     1     -11.118   6.306  69.988  1.00  0.00    -0.455 C  
HETATM    2  C   UNL     1     -10.434   7.558  69.400  1.00  0.00    -0.222 C  
HETATM    3  S   UNL     1      -8.708   7.594  70.078  1.00  0.00    -0.142 SA 
HETATM    4  C   UNL     1     -10.410   7.353  67.881  1.00  0.00    -0.258 C  
HETATM    5  C   UNL     1      -9.132   8.754  71.465  1.00  0.00    -0.252 C  
HETATM    6  C   UNL     1      -9.558   8.132  72.825  1.00  0.00    -0.283 C  
HETATM    7  C   UNL     1     -11.071   8.886  69.889  1.00  0.00    -0.136 C  
HETATM    8  C   UNL     1     -11.000   8.416  72.327  1.00  0.00    -0.361 C  
HETATM    9  O   UNL     1     -12.115   8.041  72.608  1.00  0.00    -0.328 OA 
HETATM   10  N   UNL     1     -10.546   9.109  71.243  1.00  0.00    -0.302 N  
ENDROOT
BRANCH   6  11
HETATM   11  N   UNL     1      -9.185   6.712  73.064  1.00  0.00    -0.131 N  
HETATM   12  C   UNL     1      -8.026   6.380  73.734  1.00  0.00    -0.101 C  
HETATM   13  O   UNL     1      -7.337   7.224  74.306  1.00  0.00    -0.106 OA 
HETATM   14  H   UNL     1      -9.798   5.969  72.727  1.00  0.00     0.000 HD 
BRANCH  12  15
HETATM   15  C   UNL     1      -7.641   4.884  73.681  1.00  0.00    -0.091 C  
HETATM   16  H2  UNL     1      -5.810   5.187  74.652  1.00  0.00     0.000 HD 
HETATM   17  N   UNL     1      -6.167   4.730  73.813  1.00  0.00    -0.044 NA 
HETATM   18  H1  UNL     1      -5.913   3.743  73.778  1.00  0.00     0.000 HD 
BRANCH  15  19
HETATM   19  C   UNL     1      -8.182   4.163  72.459  1.00  0.00    -0.099 A  
HETATM   20  C   UNL     1      -7.526   4.197  71.217  1.00  0.00    -0.055 A  
HETATM   21  C   UNL     1      -9.346   3.385  72.576  1.00  0.00    -0.157 A  
HETATM   22  C   UNL     1      -9.797   2.610  71.504  1.00  0.00    -0.193 A  
HETATM   23  C   UNL     1      -7.973   3.416  70.150  1.00  0.00    -0.053 A  
HETATM   24  C   UNL     1      -9.099   2.612  70.298  1.00  0.00    -0.182 A  
ENDBRANCH  15  19
ENDBRANCH  12  15
ENDBRANCH   6  11
BRANCH   7  25
HETATM   25  C   UNL     1     -10.687  10.139  69.069  1.00  0.00    -0.221 C  
HETATM   26  O   UNL     1      -9.628  10.752  69.163  1.00  0.00    -0.204 OA 
BRANCH  25  27
HETATM   27  O   UNL     1     -11.688  10.504  68.218  1.00  0.00    -0.401 OA 
BRANCH  27  28
HETATM   28  C   UNL     1     -12.020  11.895  68.248  1.00  0.00    -0.167 C  
BRANCH  28  29
HETATM   29  O   UNL     1     -12.221  12.398  66.931  1.00  0.00    -0.527 OA 
BRANCH  29  30
HETATM   30  C   UNL     1     -11.959  13.718  66.746  1.00  0.00    -0.426 C  
HETATM   31  O   UNL     1     -12.488  14.419  65.894  1.00  0.00    -0.388 OA 
BRANCH  30  32
HETATM   32  C   UNL     1     -10.923  14.234  67.770  1.00  0.00    -0.264 C  
HETATM   33  N   UNL     1     -11.217  15.643  68.077  1.00  0.00    -0.341 N  
HETATM   34  C   UNL     1     -10.653  16.683  67.175  1.00  0.00    -0.264 C  
HETATM   35  S   UNL     1      -9.396  15.746  66.280  1.00  0.00    -0.351 S  
HETATM   36  C   UNL     1     -10.274  17.473  68.429  1.00  0.00    -0.372 C  
HETATM   37  O   UNL     1      -9.898  15.457  64.947  1.00  0.00    -0.223 OA 
HETATM   38  O   UNL     1      -8.095  16.360  66.455  1.00  0.00    -0.288 OA 
HETATM   39  C   UNL     1      -9.467  14.201  67.249  1.00  0.00    -0.229 C  
HETATM   40  C   UNL     1     -10.773  16.251  69.213  1.00  0.00    -0.307 C  
HETATM   41  C   UNL     1      -9.092  12.993  66.379  1.00  0.00    -0.073 C  
HETATM   42  C   UNL     1      -8.438  14.250  68.399  1.00  0.00    -0.166 C  
HETATM   43  O   UNL     1     -10.650  15.811  70.330  1.00  0.00    -0.314 OA 
ENDBRANCH  30  32
ENDBRANCH  29  30
ENDBRANCH  28  29
ENDBRANCH  27  28
ENDBRANCH  25  27
ENDBRANCH   7  25
TORSDOF 9
ENDMDL
MODEL       56
REMARK 921   NORMALIZED FREE ENERGY PREDICTED BY IDOCK:   -6.55 KCAL/MOL
REMARK 922        TOTAL FREE ENERGY PREDICTED BY IDOCK:  -10.50 KCAL/MOL
REMARK 923 INTER-LIGAND FREE ENERGY PREDICTED BY IDOCK:   -9.74 KCAL/MOL
REMARK 924 INTRA-LIGAND FREE ENERGY PREDICTED BY IDOCK:   -0.76 KCAL/MOL
REMARK 927      BINDING AFFINITY PREDICTED BY RF-SCORE:    0.00 PKD
ROOT
HETATM    1  C   UNL     1     -11.119   6.743  69.774  1.00  0.00    -0.368 C  
HETATM    2  C   UNL     1     -10.326   7.106  68.501  1.00  0.00    -0.183 C  
HETATM    3  S   UNL     1      -8.565   6.607  68.807  1.00  0.00    -0.121 SA 
HETATM    4  C   UNL     1     -10.933   6.266  67.371  1.00  0.00    -0.447 C  
HETATM    5  C   UNL     1      -8.036   8.303  69.347  1.00  0.00    -0.115 C  
HETATM    6  C   UNL     1      -8.112   8.637  70.864  1.00  0.00    -0.136 C  
HETATM    7  C   UNL     1     -10.257   8.634  68.241  1.00  0.00    -0.198 C  
HETATM    8  C   UNL     1      -9.453   9.321  70.488  1.00  0.00    -0.264 C  
HETATM    9  O   UNL     1     -10.442   9.696  71.075  1.00  0.00    -0.304 OA 
HETATM   10  N   UNL     1      -9.228   9.150  69.153  1.00  0.00    -0.143 N  
ENDROOT
BRANCH   6  11
HETATM   11  N   UNL     1      -8.172   7.487  71.806  1.00  0.00    -0.104 N  
HETATM   12  C   UNL     1      -8.118   7.677  73.170  1.00  0.00    -0.123 C  
HETATM   13  O   UNL     1      -8.185   8.796  73.677  1.00  0.00    -0.366 OA 
HETATM   14  H   UNL     1      -8.256   6.540  71.435  1.00  0.00     0.000 HD 
BRANCH  12  15
HETATM   15  C   UNL     1      -7.930   6.391  74.007  1.00  0.00    -0.100 C  
HETATM   16  H2  UNL     1      -5.845   6.576  74.066  1.00  0.00     0.000 HD 
HETATM   17  N   UNL     1      -6.547   5.870  73.843  1.00  0.00    -0.077 NA 
HETATM   18  H1  UNL     1      -6.423   5.022  74.396  1.00  0.00     0.000 HD 
BRANCH  15  19
HETATM   19  C   UNL     1      -8.976   5.328  73.723  1.00  0.00    -0.123 A  
HETATM   20  C   UNL     1     -10.353   5.572  73.864  1.00  0.00    -0.285 A  
HETATM   21  C   UNL     1      -8.570   4.070  73.247  1.00  0.00    -0.092 A  
HETATM   22  C   UNL     1      -9.513   3.115  72.857  1.00  0.00    -0.137 A  
HETATM   23  C   UNL     1     -11.293   4.621  73.467  1.00  0.00    -0.353 A  
HETATM   24  C   UNL     1     -10.874   3.399  72.950  1.00  0.00    -0.132 A  
ENDBRANCH  15  19
ENDBRANCH  12  15
ENDBRANCH   6  11
BRANCH   7  25
HETATM   25  C   UNL     1      -9.809   9.038  66.818  1.00  0.00    -0.234 C  
HETATM   26  O   UNL     1      -9.635   8.265  65.880  1.00  0.00    -0.137 OA 
BRANCH  25  27
HETATM   27  O   UNL     1      -9.609  10.384  66.721  1.00  0.00    -0.163 OA 
BRANCH  27  28
HETATM   28  C   UNL     1     -10.039  10.965  65.487  1.00  0.00    -0.267 C  
BRANCH  28  29
HETATM   29  O   UNL     1     -10.196  12.374  65.616  1.00  0.00    -0.253 OA 
BRANCH  29  30
HETATM   30  C   UNL     1     -11.306  12.796  66.274  1.00  0.00    -0.320 C  
HETATM   31  O   UNL     1     -12.232  12.069  66.609  1.00  0.00    -0.550 OA 
BRANCH  30  32
HETATM   32  C   UNL     1     -11.241  14.309  66.576  1.00  0.00    -0.332 C  
HETATM   33  N   UNL     1     -10.049  14.876  65.926  1.00  0.00    -0.305 N  
HETATM   34  C   UNL     1      -8.757  14.805  66.661  1.00  0.00    -0.194 C  
HETATM   35  S   UNL     1      -9.312  14.429  68.337  1.00  0.00    -0.207 S  
HETATM   36  C   UNL     1      -8.512  16.256  66.240  1.00  0.00    -0.369 C  
HETATM   37  O   UNL     1      -9.061  13.023  68.602  1.00  0.00    -0.094 OA 
HETATM   38  O   UNL     1      -8.841  15.443  69.259  1.00  0.00    -0.231 OA 
HETATM   39  C   UNL     1     -11.108  14.636  68.082  1.00  0.00    -0.274 C  
HETATM   40  C   UNL     1      -9.929  16.204  65.650  1.00  0.00    -0.297 C  
HETATM   41  C   UNL     1     -11.902  13.735  69.038  1.00  0.00    -0.397 C  
HETATM   42  C   UNL     1     -11.523  16.089  68.400  1.00  0.00    -0.331 C  
HETATM   43  O   UNL     1     -10.763  17.001  65.295  1.00  0.00    -0.616 OA 
ENDBRANCH  30  32
ENDBRANCH  29  30
ENDBRANCH  28  29
ENDBRANCH  27  28
ENDBRANCH  25  27
ENDBRANCH   7  25
TORSDOF 9
ENDMDL
MODEL       57
REMARK 921   NORMALIZED FREE ENERGY PREDICTED BY IDOCK:   -6.54 KCAL/MOL
REMARK 922        TOTAL FREE ENERGY PREDICTED BY IDOCK:  -10.49 KCAL/MOL
REMARK 923 INTER-LIGAND FREE ENERGY PREDICTED BY IDOCK:   -9.30 KCAL/MOL
REMARK 924 INTRA-LIGAND FREE ENERGY PREDICTED BY IDOCK:   -1.19 KCAL/MOL
REMARK 927      BINDING AFFINITY PREDICTED BY RF-SCORE:    0.00 PKD
ROOT
HETATM    1  C   UNL     1      -7.754   5.331  67.853  1.00  0.00    -0.088 C  
HETATM    2  C   UNL     1      -7.678   6.827  67.485  1.00  0.00    -0.110 C  
HETATM    3  S   UNL     1      -8.456   7.765  68.884  1.00  0.00    -0.128 SA 
HETATM    4  C   UNL     1      -6.185   7.161  67.380  1.00  0.00    -0.045 C  
HETATM    5  C   UNL     1     -10.118   7.878  68.062  1.00  0.00    -0.192 C  
HETATM    6  C   UNL     1     -11.151   6.755  68.358  1.00  0.00    -0.136 C  
HETATM    7  C   UNL     1      -8.537   7.194  66.246  1.00  0.00    -0.139 C  
HETATM    8  C   UNL     1     -10.671   6.171  67.003  1.00  0.00    -0.350 C  
HETATM    9  O   UNL     1     -10.723   5.101  66.439  1.00  0.00    -0.308 OA 
HETATM   10  N   UNL     1      -9.922   7.278  66.729  1.00  0.00    -0.221 N  
ENDROOT
BRANCH   6  11
HETATM   11  N   UNL     1     -10.923   5.931  69.575  1.00  0.00    -0.372 N  
HETATM   12  C   UNL     1     -11.485   6.275  70.786  1.00  0.00    -0.316 C  
HETATM   13  O   UNL     1     -12.326   7.168  70.886  1.00  0.00    -0.344 OA 
HETATM   14  H   UNL     1     -10.340   5.097  69.514  1.00  0.00     0.000 HD 
BRANCH  12  15
HETATM   15  C   UNL     1     -10.958   5.486  72.005  1.00  0.00    -0.214 C  
HETATM   16  H2  UNL     1     -12.867   4.844  72.581  1.00  0.00     0.000 HD 
HETATM   17  N   UNL     1     -12.048   5.287  72.998  1.00  0.00    -0.468 NA 
HETATM   18  H1  UNL     1     -11.700   4.766  73.802  1.00  0.00     0.000 HD 
BRANCH  15  19
HETATM   19  C   UNL     1      -9.720   6.100  72.634  1.00  0.00    -0.164 A  
HETATM   20  C   UNL     1      -9.790   6.957  73.746  1.00  0.00    -0.313 A  
HETATM   21  C   UNL     1      -8.452   5.764  72.132  1.00  0.00    -0.122 A  
HETATM   22  C   UNL     1      -7.291   6.213  72.768  1.00  0.00    -0.089 A  
HETATM   23  C   UNL     1      -8.630   7.397  74.385  1.00  0.00    -0.249 A  
HETATM   24  C   UNL     1      -7.381   7.013  73.905  1.00  0.00    -0.098 A  
ENDBRANCH  15  19
ENDBRANCH  12  15
ENDBRANCH   6  11
BRANCH   7  25
HETATM   25  C   UNL     1      -8.221   8.567  65.611  1.00  0.00    -0.130 C  
HETATM   26  O   UNL     1      -7.561   9.458  66.137  1.00  0.00    -0.095 OA 
BRANCH  25  27
HETATM   27  O   UNL     1      -8.784   8.686  64.375  1.00  0.00    -0.109 OA 
BRANCH  27  28
HETATM   28  C   UNL     1      -8.966  10.033  63.928  1.00  0.00    -0.242 C  
BRANCH  28  29
HETATM   29  O   UNL     1     -10.178  10.579  64.439  1.00  0.00    -0.346 OA 
BRANCH  29  30
HETATM   30  C   UNL     1     -10.285  11.932  64.409  1.00  0.00    -0.297 C  
HETATM   31  O   UNL     1     -10.695  12.575  63.452  1.00  0.00    -0.426 OA 
BRANCH  30  32
HETATM   32  C   UNL     1      -9.851  12.562  65.751  1.00  0.00    -0.234 C  
HETATM   33  N   UNL     1     -10.248  11.666  66.850  1.00  0.00    -0.211 N  
HETATM   34  C   UNL     1     -11.631  11.793  67.385  1.00  0.00    -0.280 C  
HETATM   35  S   UNL     1     -12.132  13.396  66.721  1.00  0.00    -0.325 S  
HETATM   36  C   UNL     1     -11.027  11.698  68.788  1.00  0.00    -0.274 C  
HETATM   37  O   UNL     1     -13.032  13.171  65.604  1.00  0.00    -0.435 OA 
HETATM   38  O   UNL     1     -12.511  14.287  67.799  1.00  0.00    -0.122 OA 
HETATM   39  C   UNL     1     -10.522  13.925  66.042  1.00  0.00    -0.298 C  
HETATM   40  C   UNL     1      -9.665  11.717  68.079  1.00  0.00    -0.182 C  
HETATM   41  C   UNL     1     -10.718  14.849  64.832  1.00  0.00    -0.426 C  
HETATM   42  C   UNL     1      -9.745  14.741  67.097  1.00  0.00    -0.234 C  
HETATM   43  O   UNL     1      -8.517  11.932  68.385  1.00  0.00    -0.162 OA 
ENDBRANCH  30  32
ENDBRANCH  29  30
ENDBRANCH  28  29
ENDBRANCH  27  28
ENDBRANCH  25  27
ENDBRANCH   7  25
TORSDOF 9
ENDMDL
MODEL       58
REMARK 921   NORMALIZED FREE ENERGY PREDICTED BY IDOCK:   -6.54 KCAL/MOL
REMARK 922        TOTAL FREE ENERGY PREDICTED BY IDOCK:  -10.48 KCAL/MOL
REMARK 923 INTER-LIGAND FREE ENERGY PREDICTED BY IDOCK:   -9.46 KCAL/MOL
REMARK 924 INTRA-LIGAND FREE ENERGY PREDICTED BY IDOCK:   -1.02 KCAL/MOL
REMARK 927      BINDING AFFINITY PREDICTED BY RF-SCORE:    0.00 PKD
ROOT
HETATM    1  C   UNL     1      -7.576   6.386  67.470  1.00  0.00    -0.100 C  
HETATM    2  C   UNL     1      -7.473   7.811  66.887  1.00  0.00    -0.094 C  
HETATM    3  S   UNL     1      -7.739   8.988  68.297  1.00  0.00    -0.096 SA 
HETATM    4  C   UNL     1      -6.046   7.942  66.341  1.00  0.00    -0.045 C  
HETATM    5  C   UNL     1      -9.548   9.217  67.941  1.00  0.00    -0.146 C  
HETATM    6  C   UNL     1     -10.552   8.271  68.658  1.00  0.00    -0.108 C  
HETATM    7  C   UNL     1      -8.609   8.142  65.884  1.00  0.00    -0.151 C  
HETATM    8  C   UNL     1     -10.527   7.485  67.320  1.00  0.00    -0.321 C  
HETATM    9  O   UNL     1     -10.832   6.374  66.948  1.00  0.00    -0.333 OA 
HETATM   10  N   UNL     1      -9.789   8.453  66.703  1.00  0.00    -0.252 N  
ENDROOT
BRANCH   6  11
HETATM   11  N   UNL     1     -10.066   7.566  69.874  1.00  0.00    -0.190 N  
HETATM   12  C   UNL     1     -10.921   7.256  70.910  1.00  0.00    -0.253 C  
HETATM   13  O   UNL     1     -12.140   7.392  70.814  1.00  0.00    -0.280 OA 
HETATM   14  H   UNL     1      -9.082   7.307  69.942  1.00  0.00     0.000 HD 
BRANCH  12  15
HETATM   15  C   UNL     1     -10.236   6.763  72.204  1.00  0.00    -0.193 C  
HETATM   16  H2  UNL     1      -8.848   8.331  72.223  1.00  0.00     0.000 HD 
HETATM   17  N   UNL     1      -8.857   7.315  72.296  1.00  0.00    -0.126 NA 
HETATM   18  H1  UNL     1      -8.405   6.989  73.150  1.00  0.00     0.000 HD 
BRANCH  15  19
HETATM   19  C   UNL     1     -10.256   5.253  72.361  1.00  0.00    -0.243 A  
HETATM   20  C   UNL     1      -9.361   4.415  71.675  1.00  0.00    -0.199 A  
HETATM   21  C   UNL     1     -11.158   4.665  73.265  1.00  0.00    -0.403 A  
HETATM   22  C   UNL     1     -11.115   3.293  73.524  1.00  0.00    -0.314 A  
HETATM   23  C   UNL     1      -9.314   3.046  71.942  1.00  0.00    -0.189 A  
HETATM   24  C   UNL     1     -10.180   2.488  72.877  1.00  0.00    -0.230 A  
ENDBRANCH  15  19
ENDBRANCH  12  15
ENDBRANCH   6  11
BRANCH   7  25
HETATM   25  C   UNL     1      -8.363   9.386  65.001  1.00  0.00    -0.150 C  
HETATM   26  O   UNL     1      -7.568  10.289  65.249  1.00  0.00    -0.141 OA 
BRANCH  25  27
HETATM   27  O   UNL     1      -9.157   9.376  63.892  1.00  0.00    -0.196 OA 
BRANCH  27  28
HETATM   28  C   UNL     1      -9.541  10.671  63.419  1.00  0.00    -0.332 C  
BRANCH  28  29
HETATM   29  O   UNL     1     -10.653  11.171  64.155  1.00  0.00    -0.346 OA 
BRANCH  29  30
HETATM   30  C   UNL     1     -10.890  12.504  64.052  1.00  0.00    -0.406 C  
HETATM   31  O   UNL     1     -11.658  13.012  63.247  1.00  0.00    -0.446 OA 
BRANCH  30  32
HETATM   32  C   UNL     1     -10.085  13.301  65.102  1.00  0.00    -0.231 C  
HETATM   33  N   UNL     1     -10.046  12.535  66.358  1.00  0.00    -0.238 N  
HETATM   34  C   UNL     1     -11.186  12.689  67.302  1.00  0.00    -0.298 C  
HETATM   35  S   UNL     1     -11.977  14.186  66.676  1.00  0.00    -0.443 S  
HETATM   36  C   UNL     1     -10.155  12.779  68.429  1.00  0.00    -0.226 C  
HETATM   37  O   UNL     1     -13.174  13.805  65.947  1.00  0.00    -0.365 OA 
HETATM   38  O   UNL     1     -12.042  15.190  67.719  1.00  0.00    -0.157 OA 
HETATM   39  C   UNL     1     -10.711  14.672  65.453  1.00  0.00    -0.369 C  
HETATM   40  C   UNL     1      -9.100  12.748  67.314  1.00  0.00    -0.200 C  
HETATM   41  C   UNL     1     -11.347  15.439  64.285  1.00  0.00    -0.136 C  
HETATM   42  C   UNL     1      -9.688  15.629  66.101  1.00  0.00    -0.348 C  
HETATM   43  O   UNL     1      -7.932  13.028  67.200  1.00  0.00    -0.163 OA 
ENDBRANCH  30  32
ENDBRANCH  29  30
ENDBRANCH  28  29
ENDBRANCH  27  28
ENDBRANCH  25  27
ENDBRANCH   7  25
TORSDOF 9
ENDMDL
MODEL       59
REMARK 921   NORMALIZED FREE ENERGY PREDICTED BY IDOCK:   -6.53 KCAL/MOL
REMARK 922        TOTAL FREE ENERGY PREDICTED BY IDOCK:  -10.48 KCAL/MOL
REMARK 923 INTER-LIGAND FREE ENERGY PREDICTED BY IDOCK:   -9.52 KCAL/MOL
REMARK 924 INTRA-LIGAND FREE ENERGY PREDICTED BY IDOCK:   -0.96 KCAL/MOL
REMARK 927      BINDING AFFINITY PREDICTED BY RF-SCORE:    0.00 PKD
ROOT
HETATM    1  C   UNL     1      -8.987  11.352  68.931  1.00  0.00    -0.016 C  
HETATM    2  C   UNL     1     -10.284  11.546  68.118  1.00  0.00    -0.194 C  
HETATM    3  S   UNL     1     -10.892   9.853  67.665  1.00  0.00    -0.194 SA 
HETATM    4  C   UNL     1     -11.275  12.237  69.062  1.00  0.00    -0.319 C  
HETATM    5  C   UNL     1     -10.103   9.872  65.984  1.00  0.00    -0.244 C  
HETATM    6  C   UNL     1      -8.665   9.294  65.852  1.00  0.00    -0.154 C  
HETATM    7  C   UNL     1     -10.049  12.252  66.756  1.00  0.00    -0.209 C  
HETATM    8  C   UNL     1      -8.228  10.781  65.926  1.00  0.00    -0.155 C  
HETATM    9  O   UNL     1      -7.206  11.385  66.157  1.00  0.00    -0.010 OA 
HETATM   10  N   UNL     1      -9.518  11.220  65.856  1.00  0.00    -0.215 N  
ENDROOT
BRANCH   6  11
HETATM   11  N   UNL     1      -8.199   8.390  66.937  1.00  0.00    -0.102 N  
HETATM   12  C   UNL     1      -8.322   7.021  66.830  1.00  0.00    -0.116 C  
HETATM   13  O   UNL     1      -8.662   6.476  65.781  1.00  0.00    -0.151 OA 
HETATM   14  H   UNL     1      -7.779   8.790  67.776  1.00  0.00     0.000 HD 
BRANCH  12  15
HETATM   15  C   UNL     1      -8.037   6.231  68.127  1.00  0.00    -0.115 C  
HETATM   16  H2  UNL     1      -7.142   4.632  67.112  1.00  0.00     0.000 HD 
HETATM   17  N   UNL     1      -7.862   4.786  67.818  1.00  0.00    -0.086 NA 
HETATM   18  H1  UNL     1      -7.674   4.265  68.674  1.00  0.00     0.000 HD 
BRANCH  15  19
HETATM   19  C   UNL     1      -9.073   6.459  69.213  1.00  0.00    -0.136 A  
HETATM   20  C   UNL     1     -10.403   6.022  69.086  1.00  0.00    -0.289 A  
HETATM   21  C   UNL     1      -8.688   7.076  70.415  1.00  0.00    -0.147 A  
HETATM   22  C   UNL     1      -9.586   7.186  71.480  1.00  0.00    -0.161 A  
HETATM   23  C   UNL     1     -11.295   6.124  70.154  1.00  0.00    -0.433 A  
HETATM   24  C   UNL     1     -10.883   6.693  71.355  1.00  0.00    -0.282 A  
ENDBRANCH  15  19
ENDBRANCH  12  15
ENDBRANCH   6  11
BRANCH   7  25
HETATM   25  C   UNL     1     -11.322  12.801  66.074  1.00  0.00    -0.321 C  
HETATM   26  O   UNL     1     -12.229  12.119  65.606  1.00  0.00    -0.571 OA 
BRANCH  25  27
HETATM   27  O   UNL     1     -11.320  14.165  66.037  1.00  0.00    -0.318 OA 
BRANCH  27  28
HETATM   28  C   UNL     1     -10.339  14.738  65.167  1.00  0.00    -0.410 C  
BRANCH  28  29
HETATM   29  O   UNL     1     -10.068  16.089  65.526  1.00  0.00    -0.382 OA 
BRANCH  29  30
HETATM   30  C   UNL     1      -8.974  16.294  66.303  1.00  0.00    -0.331 C  
HETATM   31  O   UNL     1      -8.459  15.443  67.016  1.00  0.00    -0.195 OA 
BRANCH  30  32
HETATM   32  C   UNL     1      -8.439  17.735  66.153  1.00  0.00    -0.123 C  
HETATM   33  N   UNL     1      -6.968  17.700  66.132  1.00  0.00    -0.289 N  
HETATM   34  C   UNL     1      -6.253  17.707  67.437  1.00  0.00    -0.147 C  
HETATM   35  S   UNL     1      -7.559  18.240  68.564  1.00  0.00    -0.303 S  
HETATM   36  C   UNL     1      -5.294  18.735  66.832  1.00  0.00    -0.146 C  
HETATM   37  O   UNL     1      -8.031  17.082  69.303  1.00  0.00    -0.134 OA 
HETATM   38  O   UNL     1      -7.154  19.442  69.266  1.00  0.00    -0.348 OA 
HETATM   39  C   UNL     1      -8.830  18.667  67.325  1.00  0.00    -0.274 C  
HETATM   40  C   UNL     1      -6.220  18.710  65.608  1.00  0.00    -0.253 C  
HETATM   41  C   UNL     1     -10.240  18.469  67.899  1.00  0.00    -0.415 C  
HETATM   42  C   UNL     1      -8.717  20.159  66.943  1.00  0.00    -0.412 C  
HETATM   43  O   UNL     1      -6.430  19.413  64.649  1.00  0.00    -0.422 OA 
ENDBRANCH  30  32
ENDBRANCH  29  30
ENDBRANCH  28  29
ENDBRANCH  27  28
ENDBRANCH  25  27
ENDBRANCH   7  25
TORSDOF 9
ENDMDL
MODEL       60
REMARK 921   NORMALIZED FREE ENERGY PREDICTED BY IDOCK:   -6.52 KCAL/MOL
REMARK 922        TOTAL FREE ENERGY PREDICTED BY IDOCK:  -10.46 KCAL/MOL
REMARK 923 INTER-LIGAND FREE ENERGY PREDICTED BY IDOCK:   -9.29 KCAL/MOL
REMARK 924 INTRA-LIGAND FREE ENERGY PREDICTED BY IDOCK:   -1.17 KCAL/MOL
REMARK 927      BINDING AFFINITY PREDICTED BY RF-SCORE:    0.00 PKD
ROOT
HETATM    1  C   UNL     1     -10.119  13.812  65.051  1.00  0.00    -0.310 C  
HETATM    2  C   UNL     1     -10.572  12.353  65.263  1.00  0.00    -0.290 C  
HETATM    3  S   UNL     1     -11.800  12.368  66.653  1.00  0.00    -0.240 SA 
HETATM    4  C   UNL     1     -11.248  11.925  63.954  1.00  0.00    -0.497 C  
HETATM    5  C   UNL     1     -10.543  11.929  67.948  1.00  0.00    -0.201 C  
HETATM    6  C   UNL     1      -9.826  13.095  68.686  1.00  0.00    -0.083 C  
HETATM    7  C   UNL     1      -9.431  11.428  65.763  1.00  0.00    -0.233 C  
HETATM    8  C   UNL     1      -8.680  12.824  67.675  1.00  0.00    -0.180 C  
HETATM    9  O   UNL     1      -7.710  13.421  67.267  1.00  0.00    -0.152 OA 
HETATM   10  N   UNL     1      -9.293  11.702  67.200  1.00  0.00    -0.172 N  
ENDROOT
BRANCH   6  11
HETATM   11  N   UNL     1     -10.480  14.430  68.636  1.00  0.00    -0.241 N  
HETATM   12  C   UNL     1      -9.906  15.530  69.238  1.00  0.00    -0.270 C  
HETATM   13  O   UNL     1      -8.764  15.504  69.693  1.00  0.00    -0.251 OA 
HETATM   14  H   UNL     1     -11.369  14.533  68.148  1.00  0.00     0.000 HD 
BRANCH  12  15
HETATM   15  C   UNL     1     -10.813  16.778  69.328  1.00  0.00    -0.275 C  
HETATM   16  H2  UNL     1     -12.474  15.686  69.985  1.00  0.00     0.000 HD 
HETATM   17  N   UNL     1     -12.244  16.377  69.272  1.00  0.00    -0.230 NA 
HETATM   18  H1  UNL     1     -12.842  17.201  69.331  1.00  0.00     0.000 HD 
BRANCH  15  19
HETATM   19  C   UNL     1     -10.479  17.843  68.299  1.00  0.00    -0.362 A  
HETATM   20  C   UNL     1     -10.716  17.660  66.926  1.00  0.00    -0.148 A  
HETATM   21  C   UNL     1      -9.968  19.080  68.726  1.00  0.00    -0.475 A  
HETATM   22  C   UNL     1      -9.770  20.123  67.818  1.00  0.00    -0.529 A  
HETATM   23  C   UNL     1     -10.526  18.705  66.021  1.00  0.00    -0.456 A  
HETATM   24  C   UNL     1     -10.067  19.941  66.469  1.00  0.00    -0.607 A  
ENDBRANCH  15  19
ENDBRANCH  12  15
ENDBRANCH   6  11
BRANCH   7  25
HETATM   25  C   UNL     1      -9.713   9.913  65.641  1.00  0.00    -0.279 C  
HETATM   26  O   UNL     1     -10.747   9.351  65.992  1.00  0.00     0.133 OA 
BRANCH  25  27
HETATM   27  O   UNL     1      -8.652   9.250  65.098  1.00  0.00    -0.151 OA 
BRANCH  27  28
HETATM   28  C   UNL     1      -7.686   8.788  66.048  1.00  0.00    -0.097 C  
BRANCH  28  29
HETATM   29  O   UNL     1      -8.230   7.755  66.863  1.00  0.00    -0.113 OA 
BRANCH  29  30
HETATM   30  C   UNL     1      -8.108   7.924  68.205  1.00  0.00    -0.123 C  
HETATM   31  O   UNL     1      -7.045   8.075  68.792  1.00  0.00    -0.068 OA 
BRANCH  30  32
HETATM   32  C   UNL     1      -9.488   7.930  68.899  1.00  0.00    -0.150 C  
HETATM   33  N   UNL     1      -9.366   8.610  70.199  1.00  0.00    -0.160 N  
HETATM   34  C   UNL     1      -8.925   7.802  71.367  1.00  0.00    -0.133 C  
HETATM   35  S   UNL     1      -9.167   6.119  70.758  1.00  0.00    -0.154 S  
HETATM   36  C   UNL     1     -10.025   8.491  72.177  1.00  0.00    -0.387 C  
HETATM   37  O   UNL     1      -7.871   5.563  70.413  1.00  0.00    -0.095 OA 
HETATM   38  O   UNL     1     -10.065   5.395  71.635  1.00  0.00    -0.188 OA 
HETATM   39  C   UNL     1     -10.036   6.516  69.202  1.00  0.00    -0.168 C  
HETATM   40  C   UNL     1     -10.439   9.140  70.849  1.00  0.00    -0.278 C  
HETATM   41  C   UNL     1      -9.761   5.446  68.136  1.00  0.00    -0.174 C  
HETATM   42  C   UNL     1     -11.562   6.522  69.435  1.00  0.00    -0.249 C  
HETATM   43  O   UNL     1     -11.414   9.698  70.409  1.00  0.00    -0.256 OA 
ENDBRANCH  30  32
ENDBRANCH  29  30
ENDBRANCH  28  29
ENDBRANCH  27  28
ENDBRANCH  25  27
ENDBRANCH   7  25
TORSDOF 9
ENDMDL
MODEL       61
REMARK 921   NORMALIZED FREE ENERGY PREDICTED BY IDOCK:   -6.52 KCAL/MOL
REMARK 922        TOTAL FREE ENERGY PREDICTED BY IDOCK:  -10.45 KCAL/MOL
REMARK 923 INTER-LIGAND FREE ENERGY PREDICTED BY IDOCK:   -9.75 KCAL/MOL
REMARK 924 INTRA-LIGAND FREE ENERGY PREDICTED BY IDOCK:   -0.71 KCAL/MOL
REMARK 927      BINDING AFFINITY PREDICTED BY RF-SCORE:    0.00 PKD
ROOT
HETATM    1  C   UNL     1      -9.599  11.390  68.811  1.00  0.00    -0.139 C  
HETATM    2  C   UNL     1     -10.636  11.176  67.689  1.00  0.00    -0.211 C  
HETATM    3  S   UNL     1     -10.895   9.345  67.538  1.00  0.00    -0.020 SA 
HETATM    4  C   UNL     1     -11.922  11.862  68.165  1.00  0.00    -0.222 C  
HETATM    5  C   UNL     1      -9.681   9.152  66.146  1.00  0.00    -0.287 C  
HETATM    6  C   UNL     1      -8.206   8.824  66.510  1.00  0.00    -0.111 C  
HETATM    7  C   UNL     1     -10.120  11.612  66.292  1.00  0.00    -0.221 C  
HETATM    8  C   UNL     1      -7.982  10.347  66.315  1.00  0.00    -0.138 C  
HETATM    9  O   UNL     1      -7.140  11.158  66.627  1.00  0.00    -0.133 OA 
HETATM   10  N   UNL     1      -9.245  10.525  65.831  1.00  0.00    -0.171 N  
ENDROOT
BRANCH   6  11
HETATM   11  N   UNL     1      -7.954   8.265  67.865  1.00  0.00    -0.121 N  
HETATM   12  C   UNL     1      -8.196   6.938  68.148  1.00  0.00    -0.119 C  
HETATM   13  O   UNL     1      -8.469   6.122  67.268  1.00  0.00    -0.106 OA 
HETATM   14  H   UNL     1      -7.594   8.875  68.600  1.00  0.00     0.000 HD 
BRANCH  12  15
HETATM   15  C   UNL     1      -8.137   6.561  69.645  1.00  0.00    -0.125 C  
HETATM   16  H2  UNL     1      -7.261   4.695  69.277  1.00  0.00     0.000 HD 
HETATM   17  N   UNL     1      -8.045   5.085  69.799  1.00  0.00    -0.074 NA 
HETATM   18  H1  UNL     1      -8.006   4.836  70.787  1.00  0.00     0.000 HD 
BRANCH  15  19
HETATM   19  C   UNL     1      -9.274   7.150  70.462  1.00  0.00    -0.158 A  
HETATM   20  C   UNL     1      -9.292   8.497  70.861  1.00  0.00    -0.214 A  
HETATM   21  C   UNL     1     -10.379   6.344  70.786  1.00  0.00    -0.244 A  
HETATM   22  C   UNL     1     -11.495   6.889  71.426  1.00  0.00    -0.321 A  
HETATM   23  C   UNL     1     -10.412   9.041  71.492  1.00  0.00    -0.410 A  
HETATM   24  C   UNL     1     -11.519   8.241  71.761  1.00  0.00    -0.353 A  
ENDBRANCH  15  19
ENDBRANCH  12  15
ENDBRANCH   6  11
BRANCH   7  25
HETATM   25  C   UNL     1     -11.211  11.771  65.209  1.00  0.00    -0.254 C  
HETATM   26  O   UNL     1     -11.137  11.353  64.057  1.00  0.00    -0.374 OA 
BRANCH  25  27
HETATM   27  O   UNL     1     -12.290  12.457  65.685  1.00  0.00    -0.639 OA 
BRANCH  27  28
HETATM   28  C   UNL     1     -12.357  13.826  65.272  1.00  0.00    -0.464 C  
BRANCH  28  29
HETATM   29  O   UNL     1     -11.849  14.688  66.286  1.00  0.00    -0.364 OA 
BRANCH  29  30
HETATM   30  C   UNL     1     -10.769  15.438  65.948  1.00  0.00    -0.336 C  
HETATM   31  O   UNL     1     -10.001  15.176  65.032  1.00  0.00    -0.293 OA 
BRANCH  30  32
HETATM   32  C   UNL     1     -10.645  16.685  66.850  1.00  0.00    -0.229 C  
HETATM   33  N   UNL     1      -9.826  17.695  66.160  1.00  0.00    -0.276 N  
HETATM   34  C   UNL     1      -8.347  17.605  66.300  1.00  0.00    -0.216 C  
HETATM   35  S   UNL     1      -8.183  16.490  67.711  1.00  0.00    -0.167 S  
HETATM   36  C   UNL     1      -8.340  19.120  66.515  1.00  0.00    -0.324 C  
HETATM   37  O   UNL     1      -7.798  15.178  67.218  1.00  0.00    -0.182 OA 
HETATM   38  O   UNL     1      -7.423  17.128  68.767  1.00  0.00    -0.231 OA 
HETATM   39  C   UNL     1      -9.940  16.408  68.199  1.00  0.00    -0.242 C  
HETATM   40  C   UNL     1      -9.872  19.018  66.483  1.00  0.00    -0.369 C  
HETATM   41  C   UNL     1     -10.260  15.060  68.859  1.00  0.00    -0.235 C  
HETATM   42  C   UNL     1     -10.248  17.496  69.250  1.00  0.00    -0.180 C  
HETATM   43  O   UNL     1     -10.807  19.700  66.825  1.00  0.00    -0.474 OA 
ENDBRANCH  30  32
ENDBRANCH  29  30
ENDBRANCH  28  29
ENDBRANCH  27  28
ENDBRANCH  25  27
ENDBRANCH   7  25
TORSDOF 9
ENDMDL
MODEL       62
REMARK 921   NORMALIZED FREE ENERGY PREDICTED BY IDOCK:   -6.51 KCAL/MOL
REMARK 922        TOTAL FREE ENERGY PREDICTED BY IDOCK:  -10.45 KCAL/MOL
REMARK 923 INTER-LIGAND FREE ENERGY PREDICTED BY IDOCK:   -9.33 KCAL/MOL
REMARK 924 INTRA-LIGAND FREE ENERGY PREDICTED BY IDOCK:   -1.12 KCAL/MOL
REMARK 927      BINDING AFFINITY PREDICTED BY RF-SCORE:    0.00 PKD
ROOT
HETATM    1  C   UNL     1      -9.232  12.508  68.015  1.00  0.00    -0.204 C  
HETATM    2  C   UNL     1      -7.934  11.762  68.387  1.00  0.00    -0.147 C  
HETATM    3  S   UNL     1      -7.246  11.063  66.812  1.00  0.00    -0.144 SA 
HETATM    4  C   UNL     1      -6.987  12.822  68.962  1.00  0.00    -0.059 C  
HETATM    5  C   UNL     1      -8.013   9.389  67.062  1.00  0.00    -0.102 C  
HETATM    6  C   UNL     1      -9.422   9.139  66.454  1.00  0.00    -0.227 C  
HETATM    7  C   UNL     1      -8.181  10.522  69.288  1.00  0.00    -0.145 C  
HETATM    8  C   UNL     1      -9.924   9.435  67.892  1.00  0.00    -0.182 C  
HETATM    9  O   UNL     1     -10.975   9.737  68.410  1.00  0.00    -0.217 OA 
HETATM   10  N   UNL     1      -8.654   9.461  68.388  1.00  0.00    -0.123 N  
ENDROOT
BRANCH   6  11
HETATM   11  N   UNL     1      -9.863  10.061  65.373  1.00  0.00    -0.301 N  
HETATM   12  C   UNL     1      -9.391   9.929  64.084  1.00  0.00    -0.237 C  
HETATM   13  O   UNL     1      -8.723   8.959  63.729  1.00  0.00    -0.149 OA 
HETATM   14  H   UNL     1     -10.528  10.803  65.589  1.00  0.00     0.000 HD 
BRANCH  12  15
HETATM   15  C   UNL     1      -9.731  11.101  63.136  1.00  0.00    -0.376 C  
HETATM   16  H2  UNL     1      -8.001  10.842  61.984  1.00  0.00     0.000 HD 
HETATM   17  N   UNL     1      -8.496  11.591  62.466  1.00  0.00    -0.631 NA 
HETATM   18  H1  UNL     1      -8.721  12.365  61.840  1.00  0.00     0.000 HD 
BRANCH  15  19
HETATM   19  C   UNL     1     -10.496  12.224  63.813  1.00  0.00    -0.476 A  
HETATM   20  C   UNL     1      -9.847  13.287  64.466  1.00  0.00     0.048 A  
HETATM   21  C   UNL     1     -11.899  12.244  63.742  1.00  0.00    -0.587 A  
HETATM   22  C   UNL     1     -12.623  13.328  64.245  1.00  0.00    -0.253 A  
HETATM   23  C   UNL     1     -10.572  14.372  64.959  1.00  0.00    -0.452 A  
HETATM   24  C   UNL     1     -11.958  14.400  64.836  1.00  0.00    -0.430 A  
ENDBRANCH  15  19
ENDBRANCH  12  15
ENDBRANCH   6  11
BRANCH   7  25
HETATM   25  C   UNL     1      -6.923   9.960  69.989  1.00  0.00    -0.119 C  
HETATM   26  O   UNL     1      -5.840   9.753  69.449  1.00  0.00    -0.034 OA 
BRANCH  25  27
HETATM   27  O   UNL     1      -7.161   9.700  71.307  1.00  0.00    -0.329 OA 
BRANCH  27  28
HETATM   28  C   UNL     1      -6.587   8.481  71.789  1.00  0.00    -0.072 C  
BRANCH  28  29
HETATM   29  O   UNL     1      -7.449   7.377  71.531  1.00  0.00    -0.078 OA 
BRANCH  29  30
HETATM   30  C   UNL     1      -7.807   6.632  72.608  1.00  0.00    -0.101 C  
HETATM   31  O   UNL     1      -7.298   6.727  73.717  1.00  0.00    -0.083 OA 
BRANCH  30  32
HETATM   32  C   UNL     1      -8.961   5.664  72.266  1.00  0.00    -0.139 C  
HETATM   33  N   UNL     1      -9.309   5.819  70.845  1.00  0.00    -0.159 N  
HETATM   34  C   UNL     1     -10.272   6.893  70.478  1.00  0.00    -0.192 C  
HETATM   35  S   UNL     1     -10.998   7.294  72.082  1.00  0.00    -0.250 S  
HETATM   36  C   UNL     1     -10.954   5.878  69.559  1.00  0.00    -0.438 C  
HETATM   37  O   UNL     1     -10.424   8.544  72.549  1.00  0.00    -0.317 OA 
HETATM   38  O   UNL     1     -12.436   7.120  72.038  1.00  0.00    -0.299 OA 
HETATM   39  C   UNL     1     -10.259   5.941  73.061  1.00  0.00    -0.192 C  
HETATM   40  C   UNL     1      -9.970   4.855  70.146  1.00  0.00    -0.255 C  
HETATM   41  C   UNL     1     -10.073   6.366  74.524  1.00  0.00    -0.358 C  
HETATM   42  C   UNL     1     -11.203   4.720  73.075  1.00  0.00    -0.344 C  
HETATM   43  O   UNL     1      -9.886   3.653  70.214  1.00  0.00    -0.174 OA 
ENDBRANCH  30  32
ENDBRANCH  29  30
ENDBRANCH  28  29
ENDBRANCH  27  28
ENDBRANCH  25  27
ENDBRANCH   7  25
TORSDOF 9
ENDMDL
MODEL       63
REMARK 921   NORMALIZED FREE ENERGY PREDICTED BY IDOCK:   -6.51 KCAL/MOL
REMARK 922        TOTAL FREE ENERGY PREDICTED BY IDOCK:  -10.44 KCAL/MOL
REMARK 923 INTER-LIGAND FREE ENERGY PREDICTED BY IDOCK:  -10.01 KCAL/MOL
REMARK 924 INTRA-LIGAND FREE ENERGY PREDICTED BY IDOCK:   -0.43 KCAL/MOL
REMARK 927      BINDING AFFINITY PREDICTED BY RF-SCORE:    0.00 PKD
ROOT
HETATM    1  C   UNL     1     -10.694   8.497  67.022  1.00  0.00    -0.190 C  
HETATM    2  C   UNL     1      -9.548   9.528  66.959  1.00  0.00    -0.164 C  
HETATM    3  S   UNL     1      -8.473   9.226  68.441  1.00  0.00    -0.120 SA 
HETATM    4  C   UNL     1      -8.778   9.225  65.668  1.00  0.00    -0.193 C  
HETATM    5  C   UNL     1      -9.293  10.537  69.470  1.00  0.00    -0.064 C  
HETATM    6  C   UNL     1     -10.492  10.112  70.364  1.00  0.00    -0.173 C  
HETATM    7  C   UNL     1     -10.035  10.992  67.124  1.00  0.00    -0.187 C  
HETATM    8  C   UNL     1     -11.355  10.674  69.204  1.00  0.00    -0.273 C  
HETATM    9  O   UNL     1     -12.503  10.573  68.835  1.00  0.00    -0.194 OA 
HETATM   10  N   UNL     1     -10.262  11.179  68.563  1.00  0.00    -0.191 N  
ENDROOT
BRANCH   6  11
HETATM   11  N   UNL     1     -10.623   8.663  70.674  1.00  0.00    -0.204 N  
HETATM   12  C   UNL     1     -11.738   8.167  71.315  1.00  0.00    -0.279 C  
HETATM   13  O   UNL     1     -12.739   8.855  71.510  1.00  0.00    -0.320 OA 
HETATM   14  H   UNL     1      -9.874   8.024  70.406  1.00  0.00     0.000 HD 
BRANCH  12  15
HETATM   15  C   UNL     1     -11.624   6.704  71.798  1.00  0.00    -0.304 C  
HETATM   16  H2  UNL     1     -11.808   7.219  73.820  1.00  0.00     0.000 HD 
HETATM   17  N   UNL     1     -11.194   6.666  73.222  1.00  0.00    -0.492 NA 
HETATM   18  H1  UNL     1     -11.118   5.701  73.541  1.00  0.00     0.000 HD 
BRANCH  15  19
HETATM   19  C   UNL     1     -10.739   5.843  70.914  1.00  0.00    -0.338 A  
HETATM   20  C   UNL     1     -10.954   5.719  69.531  1.00  0.00    -0.374 A  
HETATM   21  C   UNL     1      -9.630   5.187  71.476  1.00  0.00    -0.208 A  
HETATM   22  C   UNL     1      -8.727   4.492  70.667  1.00  0.00    -0.127 A  
HETATM   23  C   UNL     1     -10.046   5.032  68.724  1.00  0.00    -0.200 A  
HETATM   24  C   UNL     1      -8.926   4.431  69.290  1.00  0.00    -0.148 A  
ENDBRANCH  15  19
ENDBRANCH  12  15
ENDBRANCH   6  11
BRANCH   7  25
HETATM   25  C   UNL     1      -9.014  12.074  66.707  1.00  0.00    -0.198 C  
HETATM   26  O   UNL     1      -7.831  12.100  67.035  1.00  0.00    -0.163 OA 
BRANCH  25  27
HETATM   27  O   UNL     1      -9.592  13.030  65.924  1.00  0.00    -0.220 OA 
BRANCH  27  28
HETATM   28  C   UNL     1      -9.798  14.289  66.572  1.00  0.00    -0.288 C  
BRANCH  28  29
HETATM   29  O   UNL     1      -8.881  15.266  66.088  1.00  0.00    -0.284 OA 
BRANCH  29  30
HETATM   30  C   UNL     1      -9.410  16.470  65.754  1.00  0.00    -0.075 C  
HETATM   31  O   UNL     1     -10.478  16.623  65.176  1.00  0.00    -0.647 OA 
BRANCH  30  32
HETATM   32  C   UNL     1      -8.507  17.632  66.222  1.00  0.00    -0.202 C  
HETATM   33  N   UNL     1      -7.687  17.174  67.356  1.00  0.00    -0.168 N  
HETATM   34  C   UNL     1      -8.279  17.255  68.719  1.00  0.00    -0.231 C  
HETATM   35  S   UNL     1      -9.675  18.367  68.444  1.00  0.00    -0.372 S  
HETATM   36  C   UNL     1      -6.937  17.812  69.198  1.00  0.00    -0.209 C  
HETATM   37  O   UNL     1     -10.894  17.577  68.415  1.00  0.00    -0.314 OA 
HETATM   38  O   UNL     1      -9.572  19.523  69.310  1.00  0.00    -0.361 OA 
HETATM   39  C   UNL     1      -9.293  18.864  66.729  1.00  0.00    -0.322 C  
HETATM   40  C   UNL     1      -6.529  17.793  67.718  1.00  0.00    -0.183 C  
HETATM   41  C   UNL     1     -10.577  19.204  65.961  1.00  0.00    -0.524 C  
HETATM   42  C   UNL     1      -8.430  20.144  66.729  1.00  0.00    -0.365 C  
HETATM   43  O   UNL     1      -5.677  18.304  67.033  1.00  0.00    -0.139 OA 
ENDBRANCH  30  32
ENDBRANCH  29  30
ENDBRANCH  28  29
ENDBRANCH  27  28
ENDBRANCH  25  27
ENDBRANCH   7  25
TORSDOF 9
ENDMDL
MODEL       64
REMARK 921   NORMALIZED FREE ENERGY PREDICTED BY IDOCK:   -6.51 KCAL/MOL
REMARK 922        TOTAL FREE ENERGY PREDICTED BY IDOCK:  -10.44 KCAL/MOL
REMARK 923 INTER-LIGAND FREE ENERGY PREDICTED BY IDOCK:   -9.40 KCAL/MOL
REMARK 924 INTRA-LIGAND FREE ENERGY PREDICTED BY IDOCK:   -1.04 KCAL/MOL
REMARK 927      BINDING AFFINITY PREDICTED BY RF-SCORE:    0.00 PKD
ROOT
HETATM    1  C   UNL     1      -8.736  15.439  69.527  1.00  0.00    -0.210 C  
HETATM    2  C   UNL     1      -8.248  14.396  68.500  1.00  0.00    -0.151 C  
HETATM    3  S   UNL     1      -8.119  15.268  66.868  1.00  0.00    -0.125 SA 
HETATM    4  C   UNL     1      -6.862  13.947  68.979  1.00  0.00    -0.111 C  
HETATM    5  C   UNL     1      -9.797  14.721  66.289  1.00  0.00    -0.296 C  
HETATM    6  C   UNL     1     -11.006  15.651  66.591  1.00  0.00    -0.212 C  
HETATM    7  C   UNL     1      -9.275  13.258  68.252  1.00  0.00    -0.197 C  
HETATM    8  C   UNL     1     -11.251  14.687  67.782  1.00  0.00    -0.308 C  
HETATM    9  O   UNL     1     -11.874  14.714  68.819  1.00  0.00    -0.315 OA 
HETATM   10  N   UNL     1     -10.288  13.823  67.351  1.00  0.00    -0.251 N  
ENDROOT
BRANCH   6  11
HETATM   11  N   UNL     1     -10.703  17.071  66.912  1.00  0.00    -0.195 N  
HETATM   12  C   UNL     1     -10.682  18.037  65.929  1.00  0.00    -0.116 C  
HETATM   13  O   UNL     1     -11.072  17.813  64.784  1.00  0.00    -0.852 OA 
HETATM   14  H   UNL     1     -10.506  17.335  67.877  1.00  0.00     0.000 HD 
BRANCH  12  15
HETATM   15  C   UNL     1     -10.103  19.403  66.361  1.00  0.00    -0.444 C  
HETATM   16  H2  UNL     1     -11.055  20.444  64.813  1.00  0.00     0.000 HD 
HETATM   17  N   UNL     1     -10.123  20.353  65.216  1.00  0.00    -0.245 NA 
HETATM   18  H1  UNL     1      -9.741  21.255  65.501  1.00  0.00     0.000 HD 
BRANCH  15  19
HETATM   19  C   UNL     1      -8.727  19.304  66.993  1.00  0.00    -0.319 A  
HETATM   20  C   UNL     1      -7.563  19.101  66.231  1.00  0.00    -0.290 A  
HETATM   21  C   UNL     1      -8.591  19.475  68.382  1.00  0.00    -0.389 A  
HETATM   22  C   UNL     1      -7.327  19.514  68.975  1.00  0.00    -0.392 A  
HETATM   23  C   UNL     1      -6.301  19.150  66.825  1.00  0.00    -0.194 A  
HETATM   24  C   UNL     1      -6.182  19.371  68.194  1.00  0.00    -0.242 A  
ENDBRANCH  15  19
ENDBRANCH  12  15
ENDBRANCH   6  11
BRANCH   7  25
HETATM   25  C   UNL     1      -8.711  12.010  67.535  1.00  0.00    -0.166 C  
HETATM   26  O   UNL     1      -8.595  11.880  66.321  1.00  0.00    -0.133 OA 
BRANCH  25  27
HETATM   27  O   UNL     1      -8.360  11.040  68.427  1.00  0.00    -0.125 OA 
BRANCH  27  28
HETATM   28  C   UNL     1      -8.508   9.701  67.943  1.00  0.00    -0.122 C  
BRANCH  28  29
HETATM   29  O   UNL     1      -7.666   8.805  68.662  1.00  0.00    -0.095 OA 
BRANCH  29  30
HETATM   30  C   UNL     1      -7.963   8.628  69.974  1.00  0.00    -0.106 C  
HETATM   31  O   UNL     1      -7.166   8.770  70.892  1.00  0.00    -0.064 OA 
BRANCH  30  32
HETATM   32  C   UNL     1      -9.448   8.249  70.170  1.00  0.00    -0.167 C  
HETATM   33  N   UNL     1      -9.836   8.538  71.560  1.00  0.00    -0.214 N  
HETATM   34  C   UNL     1      -9.567   7.496  72.588  1.00  0.00    -0.170 C  
HETATM   35  S   UNL     1      -9.265   6.042  71.561  1.00  0.00    -0.142 S  
HETATM   36  C   UNL     1     -10.968   7.769  73.138  1.00  0.00    -0.372 C  
HETATM   37  O   UNL     1      -7.835   5.787  71.531  1.00  0.00    -0.107 OA 
HETATM   38  O   UNL     1     -10.191   4.982  71.909  1.00  0.00    -0.193 OA 
HETATM   39  C   UNL     1      -9.739   6.747  69.945  1.00  0.00    -0.158 C  
HETATM   40  C   UNL     1     -11.133   8.710  71.936  1.00  0.00    -0.346 C  
HETATM   41  C   UNL     1      -8.960   6.074  68.806  1.00  0.00    -0.118 C  
HETATM   42  C   UNL     1     -11.235   6.480  69.670  1.00  0.00    -0.446 C  
HETATM   43  O   UNL     1     -12.048   9.234  71.347  1.00  0.00    -0.306 OA 
ENDBRANCH  30  32
ENDBRANCH  29  30
ENDBRANCH  28  29
ENDBRANCH  27  28
ENDBRANCH  25  27
ENDBRANCH   7  25
TORSDOF 9
ENDMDL
MODEL       65
REMARK 921   NORMALIZED FREE ENERGY PREDICTED BY IDOCK:   -6.50 KCAL/MOL
REMARK 922        TOTAL FREE ENERGY PREDICTED BY IDOCK:  -10.43 KCAL/MOL
REMARK 923 INTER-LIGAND FREE ENERGY PREDICTED BY IDOCK:  -10.11 KCAL/MOL
REMARK 924 INTRA-LIGAND FREE ENERGY PREDICTED BY IDOCK:   -0.32 KCAL/MOL
REMARK 927      BINDING AFFINITY PREDICTED BY RF-SCORE:    0.00 PKD
ROOT
HETATM    1  C   UNL     1     -11.391   6.195  72.682  1.00  0.00    -0.298 C  
HETATM    2  C   UNL     1     -11.879   7.336  71.766  1.00  0.00    -0.295 C  
HETATM    3  S   UNL     1     -10.976   7.154  70.155  1.00  0.00    -0.269 SA 
HETATM    4  C   UNL     1     -13.382   7.105  71.567  1.00  0.00    -0.413 C  
HETATM    5  C   UNL     1      -9.656   8.381  70.602  1.00  0.00    -0.171 C  
HETATM    6  C   UNL     1      -8.366   7.843  71.284  1.00  0.00    -0.113 C  
HETATM    7  C   UNL     1     -11.477   8.744  72.280  1.00  0.00    -0.306 C  
HETATM    8  C   UNL     1      -9.053   8.307  72.596  1.00  0.00    -0.257 C  
HETATM    9  O   UNL     1      -8.924   8.088  73.779  1.00  0.00    -0.272 OA 
HETATM   10  N   UNL     1     -10.065   8.916  71.914  1.00  0.00    -0.340 N  
ENDROOT
BRANCH   6  11
HETATM   11  N   UNL     1      -8.082   6.390  71.138  1.00  0.00    -0.116 N  
HETATM   12  C   UNL     1      -7.319   5.911  70.095  1.00  0.00    -0.077 C  
HETATM   13  O   UNL     1      -6.703   6.661  69.339  1.00  0.00    -0.046 OA 
HETATM   14  H   UNL     1      -8.459   5.735  71.823  1.00  0.00     0.000 HD 
BRANCH  12  15
HETATM   15  C   UNL     1      -7.323   4.376  69.925  1.00  0.00    -0.050 C  
HETATM   16  H2  UNL     1      -5.436   4.141  70.801  1.00  0.00     0.000 HD 
HETATM   17  N   UNL     1      -5.931   3.852  69.958  1.00  0.00    -0.018 NA 
HETATM   18  H1  UNL     1      -5.935   2.839  69.846  1.00  0.00     0.000 HD 
BRANCH  15  19
HETATM   19  C   UNL     1      -8.079   3.906  68.695  1.00  0.00    -0.079 A  
HETATM   20  C   UNL     1      -9.284   4.500  68.282  1.00  0.00    -0.174 A  
HETATM   21  C   UNL     1      -7.536   2.881  67.901  1.00  0.00    -0.057 A  
HETATM   22  C   UNL     1      -8.142   2.515  66.696  1.00  0.00    -0.082 A  
HETATM   23  C   UNL     1      -9.883   4.139  67.075  1.00  0.00    -0.190 A  
HETATM   24  C   UNL     1      -9.305   3.157  66.275  1.00  0.00    -0.110 A  
ENDBRANCH  15  19
ENDBRANCH  12  15
ENDBRANCH   6  11
BRANCH   7  25
HETATM   25  C   UNL     1     -12.235   9.922  71.626  1.00  0.00    -0.395 C  
HETATM   26  O   UNL     1     -13.392  10.248  71.874  1.00  0.00    -0.415 OA 
BRANCH  25  27
HETATM   27  O   UNL     1     -11.459  10.567  70.709  1.00  0.00    -0.331 OA 
BRANCH  27  28
HETATM   28  C   UNL     1     -12.136  11.580  69.960  1.00  0.00    -0.331 C  
BRANCH  28  29
HETATM   29  O   UNL     1     -12.367  11.153  68.621  1.00  0.00    -0.549 OA 
BRANCH  29  30
HETATM   30  C   UNL     1     -11.416  11.490  67.712  1.00  0.00    -0.286 C  
HETATM   31  O   UNL     1     -10.229  11.208  67.813  1.00  0.00    -0.174 OA 
BRANCH  30  32
HETATM   32  C   UNL     1     -12.025  12.252  66.515  1.00  0.00    -0.197 C  
HETATM   33  N   UNL     1     -11.353  11.817  65.279  1.00  0.00    -0.267 N  
HETATM   34  C   UNL     1     -10.084  12.498  64.902  1.00  0.00    -0.226 C  
HETATM   35  S   UNL     1     -10.136  13.969  65.947  1.00  0.00    -0.319 S  
HETATM   36  C   UNL     1     -10.618  12.555  63.469  1.00  0.00    -0.394 C  
HETATM   37  O   UNL     1      -9.217  13.779  67.056  1.00  0.00    -0.232 OA 
HETATM   38  O   UNL     1     -10.063  15.165  65.132  1.00  0.00    -0.347 OA 
HETATM   39  C   UNL     1     -11.833  13.785  66.593  1.00  0.00    -0.412 C  
HETATM   40  C   UNL     1     -11.915  11.974  64.049  1.00  0.00    -0.403 C  
HETATM   41  C   UNL     1     -11.956  14.407  67.991  1.00  0.00    -0.326 C  
HETATM   42  C   UNL     1     -12.829  14.542  65.688  1.00  0.00    -0.109 C  
HETATM   43  O   UNL     1     -13.069  11.883  63.706  1.00  0.00    -0.665 OA 
ENDBRANCH  30  32
ENDBRANCH  29  30
ENDBRANCH  28  29
ENDBRANCH  27  28
ENDBRANCH  25  27
ENDBRANCH   7  25
TORSDOF 9
ENDMDL
MODEL       66
REMARK 921   NORMALIZED FREE ENERGY PREDICTED BY IDOCK:   -6.44 KCAL/MOL
REMARK 922        TOTAL FREE ENERGY PREDICTED BY IDOCK:  -10.34 KCAL/MOL
REMARK 923 INTER-LIGAND FREE ENERGY PREDICTED BY IDOCK:   -9.67 KCAL/MOL
REMARK 924 INTRA-LIGAND FREE ENERGY PREDICTED BY IDOCK:   -0.67 KCAL/MOL
REMARK 927      BINDING AFFINITY PREDICTED BY RF-SCORE:    0.00 PKD
ROOT
HETATM    1  C   UNL     1      -9.539   9.813  69.592  1.00  0.00    -0.239 C  
HETATM    2  C   UNL     1      -9.576  10.818  68.422  1.00  0.00    -0.176 C  
HETATM    3  S   UNL     1     -10.003   9.852  66.897  1.00  0.00    -0.224 SA 
HETATM    4  C   UNL     1     -10.693  11.815  68.756  1.00  0.00    -0.255 C  
HETATM    5  C   UNL     1      -8.235   9.646  66.368  1.00  0.00    -0.119 C  
HETATM    6  C   UNL     1      -7.477   8.377  66.852  1.00  0.00    -0.087 C  
HETATM    7  C   UNL     1      -8.190  11.442  68.111  1.00  0.00    -0.143 C  
HETATM    8  C   UNL     1      -6.901   9.325  67.938  1.00  0.00    -0.072 C  
HETATM    9  O   UNL     1      -6.353   9.202  69.009  1.00  0.00    -0.043 OA 
HETATM   10  N   UNL     1      -7.454  10.424  67.348  1.00  0.00    -0.093 N  
ENDROOT
BRANCH   6  11
HETATM   11  N   UNL     1      -8.305   7.232  67.315  1.00  0.00    -0.118 N  
HETATM   12  C   UNL     1      -8.785   6.292  66.428  1.00  0.00    -0.137 C  
HETATM   13  O   UNL     1      -8.421   6.256  65.253  1.00  0.00    -0.151 OA 
HETATM   14  H   UNL     1      -8.522   7.139  68.308  1.00  0.00     0.000 HD 
BRANCH  12  15
HETATM   15  C   UNL     1      -9.834   5.316  67.007  1.00  0.00    -0.167 C  
HETATM   16  H2  UNL     1     -10.806   5.064  65.169  1.00  0.00     0.000 HD 
HETATM   17  N   UNL     1     -11.040   5.285  66.136  1.00  0.00    -0.761 NA 
HETATM   18  H1  UNL     1     -11.732   4.641  66.518  1.00  0.00     0.000 HD 
BRANCH  15  19
HETATM   19  C   UNL     1     -10.185   5.596  68.457  1.00  0.00    -0.253 A  
HETATM   20  C   UNL     1     -11.158   6.541  68.824  1.00  0.00    -0.357 A  
HETATM   21  C   UNL     1      -9.565   4.850  69.474  1.00  0.00    -0.240 A  
HETATM   22  C   UNL     1      -9.958   4.997  70.807  1.00  0.00    -0.291 A  
HETATM   23  C   UNL     1     -11.556   6.679  70.154  1.00  0.00    -0.446 A  
HETATM   24  C   UNL     1     -10.967   5.897  71.143  1.00  0.00    -0.327 A  
ENDBRANCH  15  19
ENDBRANCH  12  15
ENDBRANCH   6  11
BRANCH   7  25
HETATM   25  C   UNL     1      -8.223  12.704  67.220  1.00  0.00    -0.184 C  
HETATM   26  O   UNL     1      -9.207  13.125  66.620  1.00  0.00    -0.246 OA 
BRANCH  25  27
HETATM   27  O   UNL     1      -7.000  13.306  67.163  1.00  0.00    -0.074 OA 
BRANCH  27  28
HETATM   28  C   UNL     1      -6.693  14.144  68.281  1.00  0.00    -0.108 C  
BRANCH  28  29
HETATM   29  O   UNL     1      -6.746  15.519  67.915  1.00  0.00    -0.127 OA 
BRANCH  29  30
HETATM   30  C   UNL     1      -7.053  16.392  68.909  1.00  0.00    -0.195 C  
HETATM   31  O   UNL     1      -6.304  16.684  69.832  1.00  0.00    -0.209 OA 
BRANCH  30  32
HETATM   32  C   UNL     1      -8.461  16.996  68.714  1.00  0.00    -0.237 C  
HETATM   33  N   UNL     1      -9.127  16.305  67.598  1.00  0.00    -0.193 N  
HETATM   34  C   UNL     1      -8.865  16.798  66.219  1.00  0.00    -0.299 C  
HETATM   35  S   UNL     1      -8.143  18.420  66.543  1.00  0.00    -0.264 S  
HETATM   36  C   UNL     1     -10.366  16.664  65.955  1.00  0.00    -0.352 C  
HETATM   37  O   UNL     1      -6.707  18.336  66.338  1.00  0.00    -0.190 OA 
HETATM   38  O   UNL     1      -8.918  19.453  65.884  1.00  0.00    -0.422 OA 
HETATM   39  C   UNL     1      -8.445  18.498  68.342  1.00  0.00    -0.328 C  
HETATM   40  C   UNL     1     -10.481  16.304  67.444  1.00  0.00    -0.304 C  
HETATM   41  C   UNL     1      -7.376  19.351  69.038  1.00  0.00    -0.395 C  
HETATM   42  C   UNL     1      -9.802  19.180  68.622  1.00  0.00    -0.485 C  
HETATM   43  O   UNL     1     -11.356  16.261  68.274  1.00  0.00    -0.352 OA 
ENDBRANCH  30  32
ENDBRANCH  29  30
ENDBRANCH  28  29
ENDBRANCH  27  28
ENDBRANCH  25  27
ENDBRANCH   7  25
TORSDOF 9
ENDMDL
MODEL       67
REMARK 921   NORMALIZED FREE ENERGY PREDICTED BY IDOCK:   -6.41 KCAL/MOL
REMARK 922        TOTAL FREE ENERGY PREDICTED BY IDOCK:  -10.28 KCAL/MOL
REMARK 923 INTER-LIGAND FREE ENERGY PREDICTED BY IDOCK:   -8.97 KCAL/MOL
REMARK 924 INTRA-LIGAND FREE ENERGY PREDICTED BY IDOCK:   -1.31 KCAL/MOL
REMARK 927      BINDING AFFINITY PREDICTED BY RF-SCORE:    0.00 PKD
ROOT
HETATM    1  C   UNL     1     -10.034  14.464  65.649  1.00  0.00    -0.365 C  
HETATM    2  C   UNL     1     -10.953  14.144  66.847  1.00  0.00    -0.300 C  
HETATM    3  S   UNL     1     -10.703  15.498  68.091  1.00  0.00    -0.293 SA 
HETATM    4  C   UNL     1     -12.386  14.175  66.302  1.00  0.00    -0.451 C  
HETATM    5  C   UNL     1      -9.456  14.542  69.081  1.00  0.00    -0.011 C  
HETATM    6  C   UNL     1      -7.954  14.718  68.719  1.00  0.00    -0.152 C  
HETATM    7  C   UNL     1     -10.547  12.848  67.597  1.00  0.00    -0.223 C  
HETATM    8  C   UNL     1      -8.147  13.393  67.936  1.00  0.00    -0.162 C  
HETATM    9  O   UNL     1      -7.563  12.798  67.059  1.00  0.00    -0.090 OA 
HETATM   10  N   UNL     1      -9.402  13.215  68.441  1.00  0.00    -0.190 N  
ENDROOT
BRANCH   6  11
HETATM   11  N   UNL     1      -7.586  15.928  67.936  1.00  0.00    -0.128 N  
HETATM   12  C   UNL     1      -6.953  16.999  68.529  1.00  0.00    -0.197 C  
HETATM   13  O   UNL     1      -6.517  16.945  69.678  1.00  0.00    -0.232 OA 
HETATM   14  H   UNL     1      -7.805  15.965  66.940  1.00  0.00     0.000 HD 
BRANCH  12  15
HETATM   15  C   UNL     1      -6.867  18.276  67.663  1.00  0.00    -0.202 C  
HETATM   16  H2  UNL     1      -4.938  18.753  68.324  1.00  0.00     0.000 HD 
HETATM   17  N   UNL     1      -5.846  19.204  68.219  1.00  0.00    -0.211 NA 
HETATM   18  H1  UNL     1      -5.789  20.047  67.647  1.00  0.00     0.000 HD 
BRANCH  15  19
HETATM   19  C   UNL     1      -8.207  18.960  67.459  1.00  0.00    -0.289 A  
HETATM   20  C   UNL     1      -8.656  19.368  66.192  1.00  0.00    -0.297 A  
HETATM   21  C   UNL     1      -9.062  19.144  68.560  1.00  0.00    -0.416 A  
HETATM   22  C   UNL     1     -10.351  19.655  68.384  1.00  0.00    -0.502 A  
HETATM   23  C   UNL     1      -9.947  19.869  66.017  1.00  0.00    -0.560 A  
HETATM   24  C   UNL     1     -10.799  19.999  67.110  1.00  0.00    -0.252 A  
ENDBRANCH  15  19
ENDBRANCH  12  15
ENDBRANCH   6  11
BRANCH   7  25
HETATM   25  C   UNL     1     -11.620  12.280  68.554  1.00  0.00    -0.310 C  
HETATM   26  O   UNL     1     -12.139  12.892  69.483  1.00  0.00    -0.285 OA 
BRANCH  25  27
HETATM   27  O   UNL     1     -11.924  10.986  68.251  1.00  0.00    -0.593 OA 
BRANCH  27  28
HETATM   28  C   UNL     1     -12.013  10.112  69.381  1.00  0.00     0.114 C  
BRANCH  28  29
HETATM   29  O   UNL     1     -10.719   9.811  69.894  1.00  0.00    -0.231 OA 
BRANCH  29  30
HETATM   30  C   UNL     1     -10.507   8.523  70.266  1.00  0.00    -0.220 C  
HETATM   31  O   UNL     1     -11.346   7.806  70.795  1.00  0.00    -0.276 OA 
BRANCH  30  32
HETATM   32  C   UNL     1      -9.076   8.062  69.912  1.00  0.00    -0.145 C  
HETATM   33  N   UNL     1      -8.401   9.133  69.162  1.00  0.00    -0.120 N  
HETATM   34  C   UNL     1      -8.610   9.189  67.689  1.00  0.00    -0.117 C  
HETATM   35  S   UNL     1      -9.289   7.550  67.356  1.00  0.00    -0.144 S  
HETATM   36  C   UNL     1      -7.106   9.440  67.551  1.00  0.00    -0.078 C  
HETATM   37  O   UNL     1     -10.720   7.678  67.144  1.00  0.00    -0.332 OA 
HETATM   38  O   UNL     1      -8.464   6.854  66.388  1.00  0.00    -0.118 OA 
HETATM   39  C   UNL     1      -9.035   6.809  69.005  1.00  0.00    -0.131 C  
HETATM   40  C   UNL     1      -7.045   9.217  69.069  1.00  0.00    -0.067 C  
HETATM   41  C   UNL     1     -10.096   5.737  69.291  1.00  0.00    -0.268 C  
HETATM   42  C   UNL     1      -7.666   6.097  69.061  1.00  0.00    -0.096 C  
HETATM   43  O   UNL     1      -6.195   8.962  69.888  1.00  0.00    -0.034 OA 
ENDBRANCH  30  32
ENDBRANCH  29  30
ENDBRANCH  28  29
ENDBRANCH  27  28
ENDBRANCH  25  27
ENDBRANCH   7  25
TORSDOF 9
ENDMDL
MODEL       68
REMARK 921   NORMALIZED FREE ENERGY PREDICTED BY IDOCK:   -6.40 KCAL/MOL
REMARK 922        TOTAL FREE ENERGY PREDICTED BY IDOCK:  -10.28 KCAL/MOL
REMARK 923 INTER-LIGAND FREE ENERGY PREDICTED BY IDOCK:   -9.36 KCAL/MOL
REMARK 924 INTRA-LIGAND FREE ENERGY PREDICTED BY IDOCK:   -0.92 KCAL/MOL
REMARK 927      BINDING AFFINITY PREDICTED BY RF-SCORE:    0.00 PKD
ROOT
HETATM    1  C   UNL     1      -9.502   6.120  72.277  1.00  0.00    -0.156 C  
HETATM    2  C   UNL     1     -10.698   6.880  71.668  1.00  0.00    -0.222 C  
HETATM    3  S   UNL     1     -10.485   6.829  69.826  1.00  0.00    -0.222 SA 
HETATM    4  C   UNL     1     -11.951   6.101  72.086  1.00  0.00    -0.314 C  
HETATM    5  C   UNL     1      -9.670   8.495  69.738  1.00  0.00    -0.179 C  
HETATM    6  C   UNL     1      -8.119   8.549  69.826  1.00  0.00    -0.116 C  
HETATM    7  C   UNL     1     -10.699   8.393  72.017  1.00  0.00    -0.317 C  
HETATM    8  C   UNL     1      -8.371   8.901  71.316  1.00  0.00    -0.169 C  
HETATM    9  O   UNL     1      -7.727   8.897  72.340  1.00  0.00    -0.360 OA 
HETATM   10  N   UNL     1      -9.716   9.012  71.118  1.00  0.00    -0.277 N  
ENDROOT
BRANCH   6  11
HETATM   11  N   UNL     1      -7.383   7.289  69.537  1.00  0.00    -0.083 N  
HETATM   12  C   UNL     1      -6.811   7.062  68.303  1.00  0.00    -0.074 C  
HETATM   13  O   UNL     1      -6.736   7.942  67.446  1.00  0.00    -0.065 OA 
HETATM   14  H   UNL     1      -7.298   6.580  70.265  1.00  0.00     0.000 HD 
BRANCH  12  15
HETATM   15  C   UNL     1      -6.309   5.620  68.064  1.00  0.00    -0.042 C  
HETATM   16  H2  UNL     1      -5.030   6.183  66.505  1.00  0.00     0.000 HD 
HETATM   17  N   UNL     1      -5.756   5.491  66.690  1.00  0.00    -0.017 NA 
HETATM   18  H1  UNL     1      -5.425   4.540  66.532  1.00  0.00     0.000 HD 
BRANCH  15  19
HETATM   19  C   UNL     1      -7.355   4.560  68.359  1.00  0.00    -0.065 A  
HETATM   20  C   UNL     1      -7.258   3.696  69.463  1.00  0.00    -0.045 A  
HETATM   21  C   UNL     1      -8.493   4.466  67.539  1.00  0.00    -0.103 A  
HETATM   22  C   UNL     1      -9.532   3.587  67.858  1.00  0.00    -0.220 A  
HETATM   23  C   UNL     1      -8.300   2.825  69.785  1.00  0.00    -0.080 A  
HETATM   24  C   UNL     1      -9.443   2.781  68.991  1.00  0.00    -0.160 A  
ENDBRANCH  15  19
ENDBRANCH  12  15
ENDBRANCH   6  11
BRANCH   7  25
HETATM   25  C   UNL     1     -12.036   9.124  71.759  1.00  0.00    -0.376 C  
HETATM   26  O   UNL     1     -13.139   8.589  71.694  1.00  0.00    -0.330 OA 
BRANCH  25  27
HETATM   27  O   UNL     1     -11.847  10.465  71.593  1.00  0.00    -0.249 OA 
BRANCH  27  28
HETATM   28  C   UNL     1     -12.686  11.069  70.604  1.00  0.00    -0.288 C  
BRANCH  28  29
HETATM   29  O   UNL     1     -11.965  12.038  69.849  1.00  0.00    -0.319 OA 
BRANCH  29  30
HETATM   30  C   UNL     1     -11.823  11.779  68.523  1.00  0.00    -0.303 C  
HETATM   31  O   UNL     1     -11.631  10.667  68.050  1.00  0.00    -0.464 OA 
BRANCH  30  32
HETATM   32  C   UNL     1     -11.963  13.065  67.680  1.00  0.00    -0.301 C  
HETATM   33  N   UNL     1     -11.753  12.733  66.262  1.00  0.00    -0.382 N  
HETATM   34  C   UNL     1     -10.355  12.706  65.754  1.00  0.00    -0.279 C  
HETATM   35  S   UNL     1      -9.475  13.584  67.064  1.00  0.00    -0.259 S  
HETATM   36  C   UNL     1     -10.856  13.465  64.524  1.00  0.00    -0.419 C  
HETATM   37  O   UNL     1      -8.759  12.610  67.871  1.00  0.00    -0.163 OA 
HETATM   38  O   UNL     1      -8.783  14.734  66.518  1.00  0.00    -0.232 OA 
HETATM   39  C   UNL     1     -10.918  14.152  68.028  1.00  0.00    -0.255 C  
HETATM   40  C   UNL     1     -12.207  13.525  65.251  1.00  0.00    -0.441 C  
HETATM   41  C   UNL     1     -10.562  14.290  69.514  1.00  0.00    -0.037 C  
HETATM   42  C   UNL     1     -11.356  15.553  67.549  1.00  0.00    -0.232 C  
HETATM   43  O   UNL     1     -13.222  14.172  65.169  1.00  0.00    -0.743 OA 
ENDBRANCH  30  32
ENDBRANCH  29  30
ENDBRANCH  28  29
ENDBRANCH  27  28
ENDBRANCH  25  27
ENDBRANCH   7  25
TORSDOF 9
ENDMDL
MODEL       69
REMARK 921   NORMALIZED FREE ENERGY PREDICTED BY IDOCK:   -6.37 KCAL/MOL
REMARK 922        TOTAL FREE ENERGY PREDICTED BY IDOCK:  -10.22 KCAL/MOL
REMARK 923 INTER-LIGAND FREE ENERGY PREDICTED BY IDOCK:   -9.49 KCAL/MOL
REMARK 924 INTRA-LIGAND FREE ENERGY PREDICTED BY IDOCK:   -0.74 KCAL/MOL
REMARK 927      BINDING AFFINITY PREDICTED BY RF-SCORE:    0.00 PKD
ROOT
HETATM    1  C   UNL     1     -11.314   6.565  69.917  1.00  0.00    -0.469 C  
HETATM    2  C   UNL     1     -10.478   7.010  68.700  1.00  0.00    -0.204 C  
HETATM    3  S   UNL     1      -8.707   6.620  69.093  1.00  0.00    -0.129 SA 
HETATM    4  C   UNL     1     -10.964   6.161  67.519  1.00  0.00    -0.404 C  
HETATM    5  C   UNL     1      -8.323   8.333  69.699  1.00  0.00    -0.123 C  
HETATM    6  C   UNL     1      -8.504   8.622  71.216  1.00  0.00    -0.179 C  
HETATM    7  C   UNL     1     -10.497   8.546  68.477  1.00  0.00    -0.167 C  
HETATM    8  C   UNL     1      -9.865   9.227  70.780  1.00  0.00    -0.283 C  
HETATM    9  O   UNL     1     -10.908   9.521  71.318  1.00  0.00    -0.332 OA 
HETATM   10  N   UNL     1      -9.556   9.105  69.457  1.00  0.00    -0.163 N  
ENDROOT
BRANCH   6  11
HETATM   11  N   UNL     1      -8.539   7.448  72.128  1.00  0.00    -0.112 N  
HETATM   12  C   UNL     1      -8.400   7.597  73.492  1.00  0.00    -0.173 C  
HETATM   13  O   UNL     1      -8.407   8.702  74.032  1.00  0.00    -0.325 OA 
HETATM   14  H   UNL     1      -8.670   6.514  71.738  1.00  0.00     0.000 HD 
BRANCH  12  15
HETATM   15  C   UNL     1      -8.198   6.283  74.280  1.00  0.00    -0.116 C  
HETATM   16  H2  UNL     1      -6.210   6.727  74.767  1.00  0.00     0.000 HD 
HETATM   17  N   UNL     1      -6.749   5.958  74.371  1.00  0.00    -0.076 NA 
HETATM   18  H1  UNL     1      -6.616   5.091  74.892  1.00  0.00     0.000 HD 
BRANCH  15  19
HETATM   19  C   UNL     1      -9.009   5.121  73.736  1.00  0.00    -0.117 A  
HETATM   20  C   UNL     1      -8.407   3.997  73.146  1.00  0.00    -0.089 A  
HETATM   21  C   UNL     1     -10.408   5.131  73.874  1.00  0.00    -0.289 A  
HETATM   22  C   UNL     1     -11.170   4.022  73.498  1.00  0.00    -0.325 A  
HETATM   23  C   UNL     1      -9.169   2.887  72.779  1.00  0.00    -0.122 A  
HETATM   24  C   UNL     1     -10.548   2.893  72.969  1.00  0.00    -0.243 A  
ENDBRANCH  15  19
ENDBRANCH  12  15
ENDBRANCH   6  11
BRANCH   7  25
HETATM   25  C   UNL     1      -9.998   9.013  67.090  1.00  0.00    -0.224 C  
HETATM   26  O   UNL     1      -9.757   8.280  66.136  1.00  0.00    -0.207 OA 
BRANCH  25  27
HETATM   27  O   UNL     1      -9.839  10.368  67.049  1.00  0.00    -0.179 OA 
BRANCH  27  28
HETATM   28  C   UNL     1     -10.995  11.092  66.616  1.00  0.00    -0.228 C  
BRANCH  28  29
HETATM   29  O   UNL     1     -11.809  11.460  67.725  1.00  0.00    -0.595 OA 
BRANCH  29  30
HETATM   30  C   UNL     1     -11.350  12.481  68.493  1.00  0.00    -0.297 C  
HETATM   31  O   UNL     1     -11.628  12.640  69.674  1.00  0.00    -0.285 OA 
BRANCH  30  32
HETATM   32  C   UNL     1     -10.405  13.405  67.694  1.00  0.00    -0.238 C  
HETATM   33  N   UNL     1      -9.399  13.967  68.611  1.00  0.00    -0.172 N  
HETATM   34  C   UNL     1      -9.758  15.199  69.365  1.00  0.00    -0.202 C  
HETATM   35  S   UNL     1     -11.202  15.778  68.451  1.00  0.00    -0.370 S  
HETATM   36  C   UNL     1      -8.366  15.735  69.023  1.00  0.00    -0.236 C  
HETATM   37  O   UNL     1     -12.393  15.462  69.221  1.00  0.00    -0.226 OA 
HETATM   38  O   UNL     1     -10.980  17.126  67.967  1.00  0.00    -0.362 OA 
HETATM   39  C   UNL     1     -11.121  14.614  67.047  1.00  0.00    -0.333 C  
HETATM   40  C   UNL     1      -8.210  14.467  68.172  1.00  0.00    -0.149 C  
HETATM   41  C   UNL     1     -12.522  14.341  66.483  1.00  0.00    -0.242 C  
HETATM   42  C   UNL     1     -10.297  15.229  65.896  1.00  0.00    -0.346 C  
HETATM   43  O   UNL     1      -7.495  14.090  67.276  1.00  0.00    -0.157 OA 
ENDBRANCH  30  32
ENDBRANCH  29  30
ENDBRANCH  28  29
ENDBRANCH  27  28
ENDBRANCH  25  27
ENDBRANCH   7  25
TORSDOF 9
ENDMDL
MODEL       70
REMARK 921   NORMALIZED FREE ENERGY PREDICTED BY IDOCK:   -6.36 KCAL/MOL
REMARK 922        TOTAL FREE ENERGY PREDICTED BY IDOCK:  -10.22 KCAL/MOL
REMARK 923 INTER-LIGAND FREE ENERGY PREDICTED BY IDOCK:   -9.42 KCAL/MOL
REMARK 924 INTRA-LIGAND FREE ENERGY PREDICTED BY IDOCK:   -0.80 KCAL/MOL
REMARK 927      BINDING AFFINITY PREDICTED BY RF-SCORE:    0.00 PKD
ROOT
HETATM    1  C   UNL     1     -11.280   6.221  70.319  1.00  0.00    -0.455 C  
HETATM    2  C   UNL     1     -10.470   6.761  69.122  1.00  0.00    -0.216 C  
HETATM    3  S   UNL     1      -8.720   6.191  69.358  1.00  0.00    -0.123 SA 
HETATM    4  C   UNL     1     -11.081   6.115  67.873  1.00  0.00    -0.311 C  
HETATM    5  C   UNL     1      -8.169   7.775  70.155  1.00  0.00    -0.123 C  
HETATM    6  C   UNL     1      -8.252   7.873  71.705  1.00  0.00    -0.117 C  
HETATM    7  C   UNL     1     -10.374   8.310  69.100  1.00  0.00    -0.217 C  
HETATM    8  C   UNL     1      -9.578   8.630  71.431  1.00  0.00    -0.243 C  
HETATM    9  O   UNL     1     -10.566   8.927  72.063  1.00  0.00    -0.341 OA 
HETATM   10  N   UNL     1      -9.345   8.662  70.087  1.00  0.00    -0.160 N  
ENDROOT
BRANCH   6  11
HETATM   11  N   UNL     1      -8.339   6.594  72.459  1.00  0.00    -0.113 N  
HETATM   12  C   UNL     1      -8.375   6.577  73.837  1.00  0.00    -0.111 C  
HETATM   13  O   UNL     1      -8.504   7.605  74.500  1.00  0.00    -0.214 OA 
HETATM   14  H   UNL     1      -8.373   5.712  71.947  1.00  0.00     0.000 HD 
BRANCH  12  15
HETATM   15  C   UNL     1      -8.204   5.184  74.483  1.00  0.00    -0.101 C  
HETATM   16  H2  UNL     1      -6.220   5.543  75.049  1.00  0.00     0.000 HD 
HETATM   17  N   UNL     1      -6.762   4.829  74.564  1.00  0.00    -0.065 NA 
HETATM   18  H1  UNL     1      -6.649   3.910  74.990  1.00  0.00     0.000 HD 
BRANCH  15  19
HETATM   19  C   UNL     1      -9.020   4.098  73.804  1.00  0.00    -0.092 A  
HETATM   20  C   UNL     1      -8.424   3.067  73.058  1.00  0.00    -0.080 A  
HETATM   21  C   UNL     1     -10.416   4.081  73.966  1.00  0.00    -0.272 A  
HETATM   22  C   UNL     1     -11.180   3.026  73.459  1.00  0.00    -0.293 A  
HETATM   23  C   UNL     1      -9.187   2.010  72.561  1.00  0.00    -0.115 A  
HETATM   24  C   UNL     1     -10.563   1.982  72.773  1.00  0.00    -0.231 A  
ENDBRANCH  15  19
ENDBRANCH  12  15
ENDBRANCH   6  11
BRANCH   7  25
HETATM   25  C   UNL     1      -9.907   8.919  67.759  1.00  0.00    -0.166 C  
HETATM   26  O   UNL     1      -8.942   8.539  67.102  1.00  0.00    -0.127 OA 
BRANCH  25  27
HETATM   27  O   UNL     1     -10.701   9.963  67.382  1.00  0.00    -0.266 OA 
BRANCH  27  28
HETATM   28  C   UNL     1     -11.422  10.582  68.452  1.00  0.00    -0.214 C  
BRANCH  28  29
HETATM   29  O   UNL     1     -12.218  11.660  67.970  1.00  0.00    -0.551 OA 
BRANCH  29  30
HETATM   30  C   UNL     1     -11.990  12.873  68.537  1.00  0.00    -0.234 C  
HETATM   31  O   UNL     1     -11.889  13.068  69.741  1.00  0.00    -0.308 OA 
BRANCH  30  32
HETATM   32  C   UNL     1     -11.846  13.977  67.467  1.00  0.00    -0.407 C  
HETATM   33  N   UNL     1     -11.537  13.349  66.172  1.00  0.00    -0.333 N  
HETATM   34  C   UNL     1     -10.112  13.047  65.868  1.00  0.00    -0.288 C  
HETATM   35  S   UNL     1      -9.257  14.046  67.106  1.00  0.00    -0.244 S  
HETATM   36  C   UNL     1     -10.359  13.608  64.466  1.00  0.00    -0.355 C  
HETATM   37  O   UNL     1      -8.784  13.166  68.161  1.00  0.00    -0.182 OA 
HETATM   38  O   UNL     1      -8.346  14.970  66.460  1.00  0.00    -0.172 OA 
HETATM   39  C   UNL     1     -10.693  14.969  67.751  1.00  0.00    -0.278 C  
HETATM   40  C   UNL     1     -11.756  13.980  64.984  1.00  0.00    -0.364 C  
HETATM   41  C   UNL     1     -10.481  15.348  69.223  1.00  0.00    -0.251 C  
HETATM   42  C   UNL     1     -10.863  16.293  66.976  1.00  0.00    -0.173 C  
HETATM   43  O   UNL     1     -12.649  14.721  64.654  1.00  0.00    -0.519 OA 
ENDBRANCH  30  32
ENDBRANCH  29  30
ENDBRANCH  28  29
ENDBRANCH  27  28
ENDBRANCH  25  27
ENDBRANCH   7  25
TORSDOF 9
ENDMDL
MODEL       71
REMARK 921   NORMALIZED FREE ENERGY PREDICTED BY IDOCK:   -6.36 KCAL/MOL
REMARK 922        TOTAL FREE ENERGY PREDICTED BY IDOCK:  -10.21 KCAL/MOL
REMARK 923 INTER-LIGAND FREE ENERGY PREDICTED BY IDOCK:   -9.11 KCAL/MOL
REMARK 924 INTRA-LIGAND FREE ENERGY PREDICTED BY IDOCK:   -1.10 KCAL/MOL
REMARK 927      BINDING AFFINITY PREDICTED BY RF-SCORE:    0.00 PKD
ROOT
HETATM    1  C   UNL     1      -9.952  10.056  69.932  1.00  0.00    -0.280 C  
HETATM    2  C   UNL     1      -9.998   9.457  68.511  1.00  0.00    -0.173 C  
HETATM    3  S   UNL     1     -10.655   7.730  68.678  1.00  0.00    -0.059 SA 
HETATM    4  C   UNL     1     -10.977  10.329  67.716  1.00  0.00    -0.360 C  
HETATM    5  C   UNL     1      -8.971   6.947  68.710  1.00  0.00    -0.130 C  
HETATM    6  C   UNL     1      -8.299   6.731  70.095  1.00  0.00    -0.135 C  
HETATM    7  C   UNL     1      -8.592   9.278  67.880  1.00  0.00    -0.120 C  
HETATM    8  C   UNL     1      -7.536   8.039  69.756  1.00  0.00    -0.092 C  
HETATM    9  O   UNL     1      -6.906   8.871  70.368  1.00  0.00    -0.040 OA 
HETATM   10  N   UNL     1      -8.032   8.062  68.485  1.00  0.00    -0.118 N  
ENDROOT
BRANCH   6  11
HETATM   11  N   UNL     1      -9.188   6.748  71.287  1.00  0.00    -0.154 N  
HETATM   12  C   UNL     1     -10.095   5.735  71.518  1.00  0.00    -0.196 C  
HETATM   13  O   UNL     1     -10.099   4.699  70.854  1.00  0.00    -0.216 OA 
HETATM   14  H   UNL     1      -9.126   7.523  71.947  1.00  0.00     0.000 HD 
BRANCH  12  15
HETATM   15  C   UNL     1     -11.120   6.011  72.640  1.00  0.00    -0.275 C  
HETATM   16  H2  UNL     1     -10.975   4.077  73.429  1.00  0.00     0.000 HD 
HETATM   17  N   UNL     1     -11.698   4.732  73.132  1.00  0.00    -0.340 NA 
HETATM   18  H1  UNL     1     -12.375   4.914  73.873  1.00  0.00     0.000 HD 
BRANCH  15  19
HETATM   19  C   UNL     1     -12.196   7.006  72.243  1.00  0.00    -0.174 A  
HETATM   20  C   UNL     1     -13.381   6.613  71.597  1.00  0.00    -0.073 A  
HETATM   21  C   UNL     1     -12.041   8.362  72.579  1.00  0.00    -0.403 A  
HETATM   22  C   UNL     1     -13.068   9.279  72.341  1.00  0.00    -0.481 A  
HETATM   23  C   UNL     1     -14.409   7.528  71.368  1.00  0.00    -0.540 A  
HETATM   24  C   UNL     1     -14.258   8.857  71.753  1.00  0.00    -0.392 A  
ENDBRANCH  15  19
ENDBRANCH  12  15
ENDBRANCH   6  11
BRANCH   7  25
HETATM   25  C   UNL     1      -8.584   9.038  66.353  1.00  0.00    -0.125 C  
HETATM   26  O   UNL     1      -8.798   7.963  65.801  1.00  0.00    -0.163 OA 
BRANCH  25  27
HETATM   27  O   UNL     1      -8.291  10.182  65.670  1.00  0.00    -0.139 OA 
BRANCH  27  28
HETATM   28  C   UNL     1      -7.641  11.192  66.447  1.00  0.00    -0.109 C  
BRANCH  28  29
HETATM   29  O   UNL     1      -8.310  12.443  66.317  1.00  0.00     0.112 OA 
BRANCH  29  30
HETATM   30  C   UNL     1      -8.617  13.082  67.475  1.00  0.00    -0.192 C  
HETATM   31  O   UNL     1      -7.845  13.227  68.413  1.00  0.00    -0.132 OA 
BRANCH  30  32
HETATM   32  C   UNL     1     -10.060  13.631  67.450  1.00  0.00    -0.241 C  
HETATM   33  N   UNL     1     -10.542  13.646  66.059  1.00  0.00    -0.285 N  
HETATM   34  C   UNL     1     -10.213  14.831  65.222  1.00  0.00    -0.384 C  
HETATM   35  S   UNL     1      -9.710  16.032  66.473  1.00  0.00    -0.285 S  
HETATM   36  C   UNL     1     -11.661  14.801  64.726  1.00  0.00    -0.418 C  
HETATM   37  O   UNL     1      -8.261  16.137  66.453  1.00  0.00    -0.290 OA 
HETATM   38  O   UNL     1     -10.532  17.221  66.384  1.00  0.00    -0.322 OA 
HETATM   39  C   UNL     1     -10.179  15.086  67.962  1.00  0.00    -0.228 C  
HETATM   40  C   UNL     1     -11.868  13.672  65.746  1.00  0.00    -0.371 C  
HETATM   41  C   UNL     1      -9.279  15.456  69.149  1.00  0.00    -0.242 C  
HETATM   42  C   UNL     1     -11.623  15.438  68.380  1.00  0.00    -0.368 C  
HETATM   43  O   UNL     1     -12.803  13.138  66.290  1.00  0.00    -0.178 OA 
ENDBRANCH  30  32
ENDBRANCH  29  30
ENDBRANCH  28  29
ENDBRANCH  27  28
ENDBRANCH  25  27
ENDBRANCH   7  25
TORSDOF 9
ENDMDL
MODEL       72
REMARK 921   NORMALIZED FREE ENERGY PREDICTED BY IDOCK:   -6.33 KCAL/MOL
REMARK 922        TOTAL FREE ENERGY PREDICTED BY IDOCK:  -10.17 KCAL/MOL
REMARK 923 INTER-LIGAND FREE ENERGY PREDICTED BY IDOCK:   -9.26 KCAL/MOL
REMARK 924 INTRA-LIGAND FREE ENERGY PREDICTED BY IDOCK:   -0.91 KCAL/MOL
REMARK 927      BINDING AFFINITY PREDICTED BY RF-SCORE:    0.00 PKD
ROOT
HETATM    1  C   UNL     1      -9.554  10.710  69.414  1.00  0.00    -0.120 C  
HETATM    2  C   UNL     1     -10.687  11.069  68.430  1.00  0.00    -0.203 C  
HETATM    3  S   UNL     1     -10.870   9.630  67.274  1.00  0.00    -0.032 SA 
HETATM    4  C   UNL     1     -11.950  11.235  69.284  1.00  0.00    -0.411 C  
HETATM    5  C   UNL     1      -9.796  10.379  65.956  1.00  0.00    -0.232 C  
HETATM    6  C   UNL     1      -8.277  10.048  65.986  1.00  0.00    -0.126 C  
HETATM    7  C   UNL     1     -10.337  12.267  67.508  1.00  0.00    -0.203 C  
HETATM    8  C   UNL     1      -8.149  11.428  66.685  1.00  0.00    -0.155 C  
HETATM    9  O   UNL     1      -7.320  11.997  67.358  1.00  0.00    -0.129 OA 
HETATM   10  N   UNL     1      -9.461  11.724  66.461  1.00  0.00    -0.208 N  
ENDROOT
BRANCH   6  11
HETATM   11  N   UNL     1      -7.862   8.849  66.760  1.00  0.00    -0.097 N  
HETATM   12  C   UNL     1      -8.098   7.575  66.288  1.00  0.00    -0.113 C  
HETATM   13  O   UNL     1      -8.505   7.367  65.145  1.00  0.00    -0.115 OA 
HETATM   14  H   UNL     1      -7.393   8.970  67.658  1.00  0.00     0.000 HD 
BRANCH  12  15
HETATM   15  C   UNL     1      -7.850   6.439  67.305  1.00  0.00    -0.105 C  
HETATM   16  H2  UNL     1      -7.104   5.125  65.855  1.00  0.00     0.000 HD 
HETATM   17  N   UNL     1      -7.795   5.127  66.605  1.00  0.00    -0.099 NA 
HETATM   18  H1  UNL     1      -7.631   4.378  67.276  1.00  0.00     0.000 HD 
BRANCH  15  19
HETATM   19  C   UNL     1      -8.844   6.429  68.454  1.00  0.00    -0.119 A  
HETATM   20  C   UNL     1      -8.528   6.944  69.723  1.00  0.00    -0.133 A  
HETATM   21  C   UNL     1     -10.144   5.943  68.237  1.00  0.00    -0.203 A  
HETATM   22  C   UNL     1     -11.117   6.037  69.236  1.00  0.00    -0.424 A  
HETATM   23  C   UNL     1      -9.503   7.045  70.716  1.00  0.00    -0.161 A  
HETATM   24  C   UNL     1     -10.800   6.606  70.468  1.00  0.00    -0.310 A  
ENDBRANCH  15  19
ENDBRANCH  12  15
ENDBRANCH   6  11
BRANCH   7  25
HETATM   25  C   UNL     1     -11.539  12.903  66.773  1.00  0.00    -0.360 C  
HETATM   26  O   UNL     1     -12.357  12.296  66.088  1.00  0.00    -0.588 OA 
BRANCH  25  27
HETATM   27  O   UNL     1     -11.583  14.253  66.966  1.00  0.00    -0.349 OA 
BRANCH  27  28
HETATM   28  C   UNL     1     -11.404  15.032  65.779  1.00  0.00    -0.279 C  
BRANCH  28  29
HETATM   29  O   UNL     1     -10.030  15.086  65.410  1.00  0.00    -0.344 OA 
BRANCH  29  30
HETATM   30  C   UNL     1      -9.179  15.587  66.341  1.00  0.00    -0.305 C  
HETATM   31  O   UNL     1      -8.133  15.053  66.685  1.00  0.00    -0.125 OA 
BRANCH  30  32
HETATM   32  C   UNL     1      -9.682  16.938  66.896  1.00  0.00    -0.259 C  
HETATM   33  N   UNL     1      -9.039  18.031  66.150  1.00  0.00    -0.170 N  
HETATM   34  C   UNL     1      -7.699  18.489  66.606  1.00  0.00    -0.245 C  
HETATM   35  S   UNL     1      -7.611  17.770  68.259  1.00  0.00    -0.265 S  
HETATM   36  C   UNL     1      -8.197  19.924  66.419  1.00  0.00    -0.365 C  
HETATM   37  O   UNL     1      -6.737  16.610  68.211  1.00  0.00    -0.136 OA 
HETATM   38  O   UNL     1      -7.396  18.809  69.247  1.00  0.00    -0.237 OA 
HETATM   39  C   UNL     1      -9.330  17.167  68.385  1.00  0.00    -0.273 C  
HETATM   40  C   UNL     1      -9.559  19.289  66.104  1.00  0.00    -0.306 C  
HETATM   41  C   UNL     1      -9.409  15.931  69.292  1.00  0.00    -0.259 C  
HETATM   42  C   UNL     1     -10.223  18.246  69.034  1.00  0.00    -0.217 C  
HETATM   43  O   UNL     1     -10.710  19.651  66.060  1.00  0.00    -0.479 OA 
ENDBRANCH  30  32
ENDBRANCH  29  30
ENDBRANCH  28  29
ENDBRANCH  27  28
ENDBRANCH  25  27
ENDBRANCH   7  25
TORSDOF 9
ENDMDL
MODEL       73
REMARK 921   NORMALIZED FREE ENERGY PREDICTED BY IDOCK:   -6.32 KCAL/MOL
REMARK 922        TOTAL FREE ENERGY PREDICTED BY IDOCK:  -10.15 KCAL/MOL
REMARK 923 INTER-LIGAND FREE ENERGY PREDICTED BY IDOCK:   -8.83 KCAL/MOL
REMARK 924 INTRA-LIGAND FREE ENERGY PREDICTED BY IDOCK:   -1.32 KCAL/MOL
REMARK 927      BINDING AFFINITY PREDICTED BY RF-SCORE:    0.00 PKD
ROOT
HETATM    1  C   UNL     1      -7.753  10.501  66.854  1.00  0.00    -0.114 C  
HETATM    2  C   UNL     1      -8.661   9.264  66.690  1.00  0.00    -0.127 C  
HETATM    3  S   UNL     1     -10.412   9.877  66.705  1.00  0.00    -0.155 SA 
HETATM    4  C   UNL     1      -8.315   8.663  65.323  1.00  0.00    -0.177 C  
HETATM    5  C   UNL     1     -10.658   9.539  68.515  1.00  0.00    -0.212 C  
HETATM    6  C   UNL     1     -10.341  10.686  69.516  1.00  0.00    -0.182 C  
HETATM    7  C   UNL     1      -8.582   8.287  67.893  1.00  0.00    -0.132 C  
HETATM    8  C   UNL     1      -8.991   9.944  69.698  1.00  0.00    -0.216 C  
HETATM    9  O   UNL     1      -7.894  10.211  70.135  1.00  0.00    -0.170 OA 
HETATM   10  N   UNL     1      -9.411   8.883  68.950  1.00  0.00    -0.140 N  
ENDROOT
BRANCH   6  11
HETATM   11  N   UNL     1     -10.293  12.067  68.967  1.00  0.00    -0.420 N  
HETATM   12  C   UNL     1     -11.276  12.988  69.260  1.00  0.00    -0.199 C  
HETATM   13  O   UNL     1     -12.139  12.774  70.110  1.00  0.00    -0.342 OA 
HETATM   14  H   UNL     1      -9.517  12.339  68.362  1.00  0.00     0.000 HD 
BRANCH  12  15
HETATM   15  C   UNL     1     -11.234  14.285  68.421  1.00  0.00    -0.269 C  
HETATM   16  H2  UNL     1     -12.156  15.433  69.910  1.00  0.00     0.000 HD 
HETATM   17  N   UNL     1     -12.258  15.246  68.913  1.00  0.00    -0.603 NA 
HETATM   18  H1  UNL     1     -12.230  16.102  68.360  1.00  0.00     0.000 HD 
BRANCH  15  19
HETATM   19  C   UNL     1     -11.353  14.043  66.927  1.00  0.00    -0.343 A  
HETATM   20  C   UNL     1     -10.405  14.530  66.011  1.00  0.00    -0.320 A  
HETATM   21  C   UNL     1     -12.410  13.258  66.437  1.00  0.00    -0.347 A  
HETATM   22  C   UNL     1     -12.475  12.913  65.084  1.00  0.00    -0.561 A  
HETATM   23  C   UNL     1     -10.467  14.177  64.662  1.00  0.00    -0.366 A  
HETATM   24  C   UNL     1     -11.493  13.357  64.201  1.00  0.00    -0.421 A  
ENDBRANCH  15  19
ENDBRANCH  12  15
ENDBRANCH   6  11
BRANCH   7  25
HETATM   25  C   UNL     1      -9.165   6.879  67.635  1.00  0.00    -0.119 C  
HETATM   26  O   UNL     1     -10.329   6.636  67.330  1.00  0.00    -0.176 OA 
BRANCH  25  27
HETATM   27  O   UNL     1      -8.220   5.910  67.802  1.00  0.00    -0.105 OA 
BRANCH  27  28
HETATM   28  C   UNL     1      -7.361   6.100  68.930  1.00  0.00    -0.085 C  
BRANCH  28  29
HETATM   29  O   UNL     1      -8.001   5.684  70.132  1.00  0.00    -0.094 OA 
BRANCH  29  30
HETATM   30  C   UNL     1      -7.721   6.412  71.243  1.00  0.00    -0.095 C  
HETATM   31  O   UNL     1      -7.047   7.433  71.252  1.00  0.00    -0.061 OA 
BRANCH  30  32
HETATM   32  C   UNL     1      -8.386   5.805  72.498  1.00  0.00    -0.117 C  
HETATM   33  N   UNL     1      -8.815   4.430  72.194  1.00  0.00    -0.115 N  
HETATM   34  C   UNL     1     -10.145   4.242  71.554  1.00  0.00    -0.135 C  
HETATM   35  S   UNL     1     -10.918   5.848  71.843  1.00  0.00    -0.264 S  
HETATM   36  C   UNL     1     -10.380   3.089  72.533  1.00  0.00    -0.184 C  
HETATM   37  O   UNL     1     -10.893   6.601  70.601  1.00  0.00    -0.229 OA 
HETATM   38  O   UNL     1     -12.158   5.681  72.574  1.00  0.00    -0.221 OA 
HETATM   39  C   UNL     1      -9.657   6.561  72.954  1.00  0.00    -0.149 C  
HETATM   40  C   UNL     1      -9.044   3.504  73.166  1.00  0.00    -0.098 C  
HETATM   41  C   UNL     1      -9.613   8.089  72.819  1.00  0.00    -0.345 C  
HETATM   42  C   UNL     1     -10.016   6.260  74.425  1.00  0.00    -0.346 C  
HETATM   43  O   UNL     1      -8.473   3.322  74.214  1.00  0.00    -0.076 OA 
ENDBRANCH  30  32
ENDBRANCH  29  30
ENDBRANCH  28  29
ENDBRANCH  27  28
ENDBRANCH  25  27
ENDBRANCH   7  25
TORSDOF 9
ENDMDL
MODEL       74
REMARK 921   NORMALIZED FREE ENERGY PREDICTED BY IDOCK:   -6.31 KCAL/MOL
REMARK 922        TOTAL FREE ENERGY PREDICTED BY IDOCK:  -10.14 KCAL/MOL
REMARK 923 INTER-LIGAND FREE ENERGY PREDICTED BY IDOCK:   -9.09 KCAL/MOL
REMARK 924 INTRA-LIGAND FREE ENERGY PREDICTED BY IDOCK:   -1.05 KCAL/MOL
REMARK 927      BINDING AFFINITY PREDICTED BY RF-SCORE:    0.00 PKD
ROOT
HETATM    1  C   UNL     1      -8.589   7.204  71.828  1.00  0.00    -0.119 C  
HETATM    2  C   UNL     1     -10.124   7.273  71.971  1.00  0.00    -0.184 C  
HETATM    3  S   UNL     1     -10.808   5.759  71.145  1.00  0.00    -0.217 SA 
HETATM    4  C   UNL     1     -10.411   7.239  73.477  1.00  0.00    -0.412 C  
HETATM    5  C   UNL     1     -11.144   6.624  69.536  1.00  0.00    -0.322 C  
HETATM    6  C   UNL     1     -10.028   6.602  68.454  1.00  0.00    -0.145 C  
HETATM    7  C   UNL     1     -10.755   8.459  71.193  1.00  0.00    -0.230 C  
HETATM    8  C   UNL     1      -9.694   8.019  68.991  1.00  0.00    -0.159 C  
HETATM    9  O   UNL     1      -8.755   8.779  68.937  1.00  0.00    -0.131 OA 
HETATM   10  N   UNL     1     -10.802   8.036  69.787  1.00  0.00    -0.229 N  
ENDROOT
BRANCH   6  11
HETATM   11  N   UNL     1      -8.979   5.556  68.588  1.00  0.00    -0.114 N  
HETATM   12  C   UNL     1      -9.082   4.350  67.928  1.00  0.00    -0.127 C  
HETATM   13  O   UNL     1      -9.946   4.144  67.076  1.00  0.00    -0.198 OA 
HETATM   14  H   UNL     1      -8.167   5.734  69.180  1.00  0.00     0.000 HD 
BRANCH  12  15
HETATM   15  C   UNL     1      -8.063   3.272  68.360  1.00  0.00    -0.068 C  
HETATM   16  H2  UNL     1      -8.079   2.321  66.495  1.00  0.00     0.000 HD 
HETATM   17  N   UNL     1      -8.176   2.078  67.480  1.00  0.00    -0.065 NA 
HETATM   18  H1  UNL     1      -7.503   1.367  67.766  1.00  0.00     0.000 HD 
BRANCH  15  19
HETATM   19  C   UNL     1      -8.157   2.907  69.831  1.00  0.00    -0.056 A  
HETATM   20  C   UNL     1      -7.140   3.221  70.749  1.00  0.00    -0.033 A  
HETATM   21  C   UNL     1      -9.321   2.285  70.314  1.00  0.00    -0.184 A  
HETATM   22  C   UNL     1      -9.489   2.051  71.681  1.00  0.00    -0.191 A  
HETATM   23  C   UNL     1      -7.314   2.994  72.115  1.00  0.00    -0.051 A  
HETATM   24  C   UNL     1      -8.494   2.423  72.582  1.00  0.00    -0.063 A  
ENDBRANCH  15  19
ENDBRANCH  12  15
ENDBRANCH   6  11
BRANCH   7  25
HETATM   25  C   UNL     1     -12.210   8.801  71.586  1.00  0.00    -0.339 C  
HETATM   26  O   UNL     1     -13.111   7.985  71.759  1.00  0.00    -0.328 OA 
BRANCH  25  27
HETATM   27  O   UNL     1     -12.390  10.147  71.710  1.00  0.00    -0.388 OA 
BRANCH  27  28
HETATM   28  C   UNL     1     -13.022  10.772  70.589  1.00  0.00    -0.232 C  
BRANCH  28  29
HETATM   29  O   UNL     1     -12.177  11.768  70.020  1.00  0.00    -0.287 OA 
BRANCH  29  30
HETATM   30  C   UNL     1     -11.660  11.487  68.797  1.00  0.00    -0.316 C  
HETATM   31  O   UNL     1     -12.031  10.567  68.080  1.00  0.00    -0.375 OA 
BRANCH  30  32
HETATM   32  C   UNL     1     -10.558  12.497  68.406  1.00  0.00    -0.242 C  
HETATM   33  N   UNL     1     -11.101  13.861  68.508  1.00  0.00    -0.253 N  
HETATM   34  C   UNL     1     -11.837  14.406  67.335  1.00  0.00    -0.400 C  
HETATM   35  S   UNL     1     -11.340  13.261  66.030  1.00  0.00    -0.314 S  
HETATM   36  C   UNL     1     -11.069  15.713  67.543  1.00  0.00    -0.289 C  
HETATM   37  O   UNL     1     -12.443  12.351  65.772  1.00  0.00    -0.615 OA 
HETATM   38  O   UNL     1     -10.717  13.985  64.941  1.00  0.00    -0.371 OA 
HETATM   39  C   UNL     1     -10.061  12.339  66.949  1.00  0.00    -0.211 C  
HETATM   40  C   UNL     1     -10.303  14.957  68.638  1.00  0.00    -0.237 C  
HETATM   41  C   UNL     1      -9.947  10.899  66.431  1.00  0.00    -0.266 C  
HETATM   42  C   UNL     1      -8.679  12.993  66.733  1.00  0.00    -0.105 C  
HETATM   43  O   UNL     1      -9.267  15.094  69.243  1.00  0.00    -0.220 OA 
ENDBRANCH  30  32
ENDBRANCH  29  30
ENDBRANCH  28  29
ENDBRANCH  27  28
ENDBRANCH  25  27
ENDBRANCH   7  25
TORSDOF 9
ENDMDL
MODEL       75
REMARK 921   NORMALIZED FREE ENERGY PREDICTED BY IDOCK:   -6.30 KCAL/MOL
REMARK 922        TOTAL FREE ENERGY PREDICTED BY IDOCK:  -10.12 KCAL/MOL
REMARK 923 INTER-LIGAND FREE ENERGY PREDICTED BY IDOCK:   -9.01 KCAL/MOL
REMARK 924 INTRA-LIGAND FREE ENERGY PREDICTED BY IDOCK:   -1.11 KCAL/MOL
REMARK 927      BINDING AFFINITY PREDICTED BY RF-SCORE:    0.00 PKD
ROOT
HETATM    1  C   UNL     1      -7.949   6.970  69.539  1.00  0.00    -0.125 C  
HETATM    2  C   UNL     1      -9.337   7.081  70.204  1.00  0.00    -0.162 C  
HETATM    3  S   UNL     1     -10.345   5.652  69.583  1.00  0.00    -0.301 SA 
HETATM    4  C   UNL     1      -9.094   6.951  71.713  1.00  0.00    -0.138 C  
HETATM    5  C   UNL     1     -11.161   6.638  68.237  1.00  0.00    -0.198 C  
HETATM    6  C   UNL     1     -10.483   6.654  66.838  1.00  0.00    -0.279 C  
HETATM    7  C   UNL     1     -10.128   8.338  69.757  1.00  0.00    -0.197 C  
HETATM    8  C   UNL     1      -9.908   8.018  67.303  1.00  0.00    -0.197 C  
HETATM    9  O   UNL     1      -9.002   8.748  66.971  1.00  0.00    -0.128 OA 
HETATM   10  N   UNL     1     -10.675   8.017  68.431  1.00  0.00    -0.085 N  
ENDROOT
BRANCH   6  11
HETATM   11  N   UNL     1      -9.511   5.566  66.546  1.00  0.00    -0.145 N  
HETATM   12  C   UNL     1      -9.884   4.444  65.838  1.00  0.00    -0.228 C  
HETATM   13  O   UNL     1     -10.975   4.361  65.274  1.00  0.00    -0.250 OA 
HETATM   14  H   UNL     1      -8.550   5.652  66.877  1.00  0.00     0.000 HD 
BRANCH  12  15
HETATM   15  C   UNL     1      -8.854   3.293  65.835  1.00  0.00    -0.137 C  
HETATM   16  H2  UNL     1     -10.031   2.066  64.614  1.00  0.00     0.000 HD 
HETATM   17  N   UNL     1      -9.521   2.008  65.495  1.00  0.00    -0.340 NA 
HETATM   18  H1  UNL     1      -8.841   1.249  65.493  1.00  0.00     0.000 HD 
BRANCH  15  19
HETATM   19  C   UNL     1      -8.053   3.196  67.122  1.00  0.00    -0.082 A  
HETATM   20  C   UNL     1      -8.591   2.650  68.300  1.00  0.00    -0.109 A  
HETATM   21  C   UNL     1      -6.710   3.609  67.132  1.00  0.00    -0.046 A  
HETATM   22  C   UNL     1      -5.913   3.415  68.263  1.00  0.00    -0.027 A  
HETATM   23  C   UNL     1      -7.790   2.449  69.425  1.00  0.00    -0.050 A  
HETATM   24  C   UNL     1      -6.448   2.818  69.402  1.00  0.00    -0.029 A  
ENDBRANCH  15  19
ENDBRANCH  12  15
ENDBRANCH   6  11
BRANCH   7  25
HETATM   25  C   UNL     1     -11.341   8.701  70.644  1.00  0.00    -0.247 C  
HETATM   26  O   UNL     1     -12.180   7.908  71.060  1.00  0.00    -0.286 OA 
BRANCH  25  27
HETATM   27  O   UNL     1     -11.382  10.038  70.908  1.00  0.00    -0.322 OA 
BRANCH  27  28
HETATM   28  C   UNL     1     -12.455  10.740  70.273  1.00  0.00    -0.317 C  
BRANCH  28  29
HETATM   29  O   UNL     1     -11.967  11.576  69.229  1.00  0.00    -0.323 OA 
BRANCH  29  30
HETATM   30  C   UNL     1     -11.942  12.908  69.490  1.00  0.00    -0.285 C  
HETATM   31  O   UNL     1     -11.917  13.395  70.612  1.00  0.00    -0.316 OA 
BRANCH  30  32
HETATM   32  C   UNL     1     -11.922  13.738  68.187  1.00  0.00    -0.358 C  
HETATM   33  N   UNL     1     -11.872  12.820  67.037  1.00  0.00    -0.381 N  
HETATM   34  C   UNL     1     -10.537  12.332  66.596  1.00  0.00    -0.229 C  
HETATM   35  S   UNL     1      -9.431  13.491  67.428  1.00  0.00    -0.234 S  
HETATM   36  C   UNL     1     -10.988  12.597  65.158  1.00  0.00    -0.324 C  
HETATM   37  O   UNL     1      -8.835  12.821  68.570  1.00  0.00    -0.145 OA 
HETATM   38  O   UNL     1      -8.595  14.168  66.457  1.00  0.00    -0.057 OA 
HETATM   39  C   UNL     1     -10.685  14.659  68.058  1.00  0.00    -0.246 C  
HETATM   40  C   UNL     1     -12.254  13.197  65.785  1.00  0.00    -0.456 C  
HETATM   41  C   UNL     1     -10.207  15.326  69.355  1.00  0.00    -0.258 C  
HETATM   42  C   UNL     1     -10.912  15.795  67.037  1.00  0.00    -0.221 C  
HETATM   43  O   UNL     1     -13.149  13.928  65.435  1.00  0.00    -0.752 OA 
ENDBRANCH  30  32
ENDBRANCH  29  30
ENDBRANCH  28  29
ENDBRANCH  27  28
ENDBRANCH  25  27
ENDBRANCH   7  25
TORSDOF 9
ENDMDL
MODEL       76
REMARK 921   NORMALIZED FREE ENERGY PREDICTED BY IDOCK:   -6.30 KCAL/MOL
REMARK 922        TOTAL FREE ENERGY PREDICTED BY IDOCK:  -10.11 KCAL/MOL
REMARK 923 INTER-LIGAND FREE ENERGY PREDICTED BY IDOCK:   -9.38 KCAL/MOL
REMARK 924 INTRA-LIGAND FREE ENERGY PREDICTED BY IDOCK:   -0.73 KCAL/MOL
REMARK 927      BINDING AFFINITY PREDICTED BY RF-SCORE:    0.00 PKD
ROOT
HETATM    1  C   UNL     1     -10.161   6.320  72.283  1.00  0.00    -0.197 C  
HETATM    2  C   UNL     1     -11.042   7.297  71.477  1.00  0.00    -0.237 C  
HETATM    3  S   UNL     1     -10.552   7.118  69.697  1.00  0.00    -0.239 SA 
HETATM    4  C   UNL     1     -12.488   6.832  71.685  1.00  0.00    -0.398 C  
HETATM    5  C   UNL     1      -9.380   8.559  69.734  1.00  0.00    -0.161 C  
HETATM    6  C   UNL     1      -7.891   8.274  70.080  1.00  0.00    -0.097 C  
HETATM    7  C   UNL     1     -10.760   8.786  71.810  1.00  0.00    -0.343 C  
HETATM    8  C   UNL     1      -8.295   8.738  71.505  1.00  0.00    -0.152 C  
HETATM    9  O   UNL     1      -7.842   8.639  72.622  1.00  0.00    -0.346 OA 
HETATM   10  N   UNL     1      -9.531   9.134  71.084  1.00  0.00    -0.272 N  
ENDROOT
BRANCH   6  11
HETATM   11  N   UNL     1      -7.420   6.872  69.927  1.00  0.00    -0.092 N  
HETATM   12  C   UNL     1      -6.952   6.403  68.718  1.00  0.00    -0.080 C  
HETATM   13  O   UNL     1      -6.746   7.150  67.763  1.00  0.00    -0.059 OA 
HETATM   14  H   UNL     1      -7.441   6.245  70.732  1.00  0.00     0.000 HD 
BRANCH  12  15
HETATM   15  C   UNL     1      -6.743   4.874  68.641  1.00  0.00    -0.050 C  
HETATM   16  H2  UNL     1      -6.436   4.887  66.570  1.00  0.00     0.000 HD 
HETATM   17  N   UNL     1      -7.000   4.390  67.258  1.00  0.00    -0.062 NA 
HETATM   18  H1  UNL     1      -6.862   3.381  67.207  1.00  0.00     0.000 HD 
BRANCH  15  19
HETATM   19  C   UNL     1      -7.545   4.101  69.673  1.00  0.00    -0.053 A  
HETATM   20  C   UNL     1      -7.055   3.841  70.964  1.00  0.00    -0.033 A  
HETATM   21  C   UNL     1      -8.848   3.676  69.358  1.00  0.00    -0.150 A  
HETATM   22  C   UNL     1      -9.656   3.076  70.327  1.00  0.00    -0.160 A  
HETATM   23  C   UNL     1      -7.867   3.249  71.932  1.00  0.00    -0.054 A  
HETATM   24  C   UNL     1      -9.172   2.880  71.618  1.00  0.00    -0.181 A  
ENDBRANCH  15  19
ENDBRANCH  12  15
ENDBRANCH   6  11
BRANCH   7  25
HETATM   25  C   UNL     1     -11.839   9.782  71.327  1.00  0.00    -0.399 C  
HETATM   26  O   UNL     1     -13.003   9.813  71.714  1.00  0.00    -0.372 OA 
BRANCH  25  27
HETATM   27  O   UNL     1     -11.343  10.637  70.387  1.00  0.00    -0.307 OA 
BRANCH  27  28
HETATM   28  C   UNL     1     -12.322  11.176  69.493  1.00  0.00    -0.194 C  
BRANCH  28  29
HETATM   29  O   UNL     1     -11.894  11.056  68.140  1.00  0.00    -0.573 OA 
BRANCH  29  30
HETATM   30  C   UNL     1     -11.740  12.218  67.455  1.00  0.00    -0.332 C  
HETATM   31  O   UNL     1     -12.298  12.481  66.398  1.00  0.00    -0.537 OA 
BRANCH  30  32
HETATM   32  C   UNL     1     -10.789  13.185  68.194  1.00  0.00    -0.251 C  
HETATM   33  N   UNL     1     -11.414  14.516  68.257  1.00  0.00    -0.295 N  
HETATM   34  C   UNL     1     -11.228  15.426  67.094  1.00  0.00    -0.256 C  
HETATM   35  S   UNL     1      -9.856  14.636  66.228  1.00  0.00    -0.315 S  
HETATM   36  C   UNL     1     -10.958  16.549  68.099  1.00  0.00    -0.336 C  
HETATM   37  O   UNL     1     -10.383  13.940  65.067  1.00  0.00    -0.370 OA 
HETATM   38  O   UNL     1      -8.752  15.564  66.087  1.00  0.00    -0.304 OA 
HETATM   39  C   UNL     1      -9.429  13.381  67.484  1.00  0.00    -0.219 C  
HETATM   40  C   UNL     1     -11.045  15.454  69.172  1.00  0.00    -0.266 C  
HETATM   41  C   UNL     1      -8.829  12.131  66.824  1.00  0.00    -0.198 C  
HETATM   42  C   UNL     1      -8.349  13.934  68.439  1.00  0.00    -0.157 C  
HETATM   43  O   UNL     1     -10.709  15.323  70.324  1.00  0.00    -0.285 OA 
ENDBRANCH  30  32
ENDBRANCH  29  30
ENDBRANCH  28  29
ENDBRANCH  27  28
ENDBRANCH  25  27
ENDBRANCH   7  25
TORSDOF 9
ENDMDL
MODEL       77
REMARK 921   NORMALIZED FREE ENERGY PREDICTED BY IDOCK:   -6.28 KCAL/MOL
REMARK 922        TOTAL FREE ENERGY PREDICTED BY IDOCK:  -10.09 KCAL/MOL
REMARK 923 INTER-LIGAND FREE ENERGY PREDICTED BY IDOCK:   -9.67 KCAL/MOL
REMARK 924 INTRA-LIGAND FREE ENERGY PREDICTED BY IDOCK:   -0.41 KCAL/MOL
REMARK 927      BINDING AFFINITY PREDICTED BY RF-SCORE:    0.00 PKD
ROOT
HETATM    1  C   UNL     1      -9.770  12.826  64.739  1.00  0.00     0.074 C  
HETATM    2  C   UNL     1     -10.654  12.246  65.862  1.00  0.00    -0.256 C  
HETATM    3  S   UNL     1     -11.154  13.670  66.941  1.00  0.00    -0.311 SA 
HETATM    4  C   UNL     1     -11.881  11.644  65.167  1.00  0.00     0.065 C  
HETATM    5  C   UNL     1      -9.794  13.388  68.175  1.00  0.00    -0.234 C  
HETATM    6  C   UNL     1      -8.450  14.140  67.957  1.00  0.00    -0.171 C  
HETATM    7  C   UNL     1      -9.884  11.290  66.812  1.00  0.00    -0.199 C  
HETATM    8  C   UNL     1      -7.980  12.799  67.334  1.00  0.00    -0.179 C  
HETATM    9  O   UNL     1      -7.082  12.434  66.609  1.00  0.00     0.139 OA 
HETATM   10  N   UNL     1      -9.120  12.157  67.720  1.00  0.00    -0.181 N  
ENDROOT
BRANCH   6  11
HETATM   11  N   UNL     1      -8.481  15.332  67.068  1.00  0.00    -0.211 N  
HETATM   12  C   UNL     1      -7.345  16.077  66.832  1.00  0.00    -0.201 C  
HETATM   13  O   UNL     1      -6.231  15.705  67.201  1.00  0.00    -0.317 OA 
HETATM   14  H   UNL     1      -9.358  15.604  66.625  1.00  0.00     0.000 HD 
BRANCH  12  15
HETATM   15  C   UNL     1      -7.578  17.421  66.107  1.00  0.00    -0.286 C  
HETATM   16  H2  UNL     1      -5.665  17.443  65.253  1.00  0.00     0.000 HD 
HETATM   17  N   UNL     1      -6.274  18.063  65.786  1.00  0.00    -0.243 NA 
HETATM   18  H1  UNL     1      -6.428  18.950  65.308  1.00  0.00     0.000 HD 
BRANCH  15  19
HETATM   19  C   UNL     1      -8.505  18.361  66.858  1.00  0.00    -0.272 A  
HETATM   20  C   UNL     1      -9.202  19.398  66.217  1.00  0.00    -0.388 A  
HETATM   21  C   UNL     1      -8.726  18.160  68.231  1.00  0.00    -0.294 A  
HETATM   22  C   UNL     1      -9.668  18.927  68.922  1.00  0.00    -0.420 A  
HETATM   23  C   UNL     1     -10.149  20.157  66.906  1.00  0.00    -0.592 A  
HETATM   24  C   UNL     1     -10.393  19.912  68.254  1.00  0.00    -0.526 A  
ENDBRANCH  15  19
ENDBRANCH  12  15
ENDBRANCH   6  11
BRANCH   7  25
HETATM   25  C   UNL     1     -10.772  10.403  67.713  1.00  0.00    -0.279 C  
HETATM   26  O   UNL     1     -11.941  10.636  68.009  1.00  0.00    -0.457 OA 
BRANCH  25  27
HETATM   27  O   UNL     1     -10.091   9.312  68.166  1.00  0.00    -0.171 OA 
BRANCH  27  28
HETATM   28  C   UNL     1     -10.401   8.091  67.487  1.00  0.00    -0.261 C  
BRANCH  28  29
HETATM   29  O   UNL     1     -11.339   7.320  68.231  1.00  0.00     0.175 OA 
BRANCH  29  30
HETATM   30  C   UNL     1     -10.821   6.349  69.026  1.00  0.00    -0.327 C  
HETATM   31  O   UNL     1      -9.869   5.641  68.726  1.00  0.00    -0.129 OA 
BRANCH  30  32
HETATM   32  C   UNL     1     -11.568   6.267  70.375  1.00  0.00    -0.300 C  
HETATM   33  N   UNL     1     -12.221   7.559  70.640  1.00  0.00    -0.113 N  
HETATM   34  C   UNL     1     -11.415   8.623  71.297  1.00  0.00    -0.283 C  
HETATM   35  S   UNL     1     -10.018   7.678  71.939  1.00  0.00    -0.182 S  
HETATM   36  C   UNL     1     -12.628   8.902  72.187  1.00  0.00    -0.467 C  
HETATM   37  O   UNL     1      -8.867   7.916  71.084  1.00  0.00    -0.132 OA 
HETATM   38  O   UNL     1      -9.912   7.853  73.374  1.00  0.00    -0.314 OA 
HETATM   39  C   UNL     1     -10.639   5.998  71.583  1.00  0.00    -0.236 C  
HETATM   40  C   UNL     1     -13.267   7.685  71.502  1.00  0.00    -0.334 C  
HETATM   41  C   UNL     1      -9.476   5.028  71.333  1.00  0.00    -0.206 C  
HETATM   42  C   UNL     1     -11.413   5.451  72.801  1.00  0.00    -0.333 C  
HETATM   43  O   UNL     1     -14.186   6.934  71.722  1.00  0.00    -0.321 OA 
ENDBRANCH  30  32
ENDBRANCH  29  30
ENDBRANCH  28  29
ENDBRANCH  27  28
ENDBRANCH  25  27
ENDBRANCH   7  25
TORSDOF 9
ENDMDL
MODEL       78
REMARK 921   NORMALIZED FREE ENERGY PREDICTED BY IDOCK:   -6.27 KCAL/MOL
REMARK 922        TOTAL FREE ENERGY PREDICTED BY IDOCK:  -10.08 KCAL/MOL
REMARK 923 INTER-LIGAND FREE ENERGY PREDICTED BY IDOCK:   -8.90 KCAL/MOL
REMARK 924 INTRA-LIGAND FREE ENERGY PREDICTED BY IDOCK:   -1.17 KCAL/MOL
REMARK 927      BINDING AFFINITY PREDICTED BY RF-SCORE:    0.00 PKD
ROOT
HETATM    1  C   UNL     1      -8.908  10.849  65.395  1.00  0.00    -0.192 C  
HETATM    2  C   UNL     1      -9.006  10.081  66.730  1.00  0.00    -0.135 C  
HETATM    3  S   UNL     1      -9.463  11.323  68.031  1.00  0.00    -0.180 SA 
HETATM    4  C   UNL     1     -10.133   9.057  66.547  1.00  0.00    -0.354 C  
HETATM    5  C   UNL     1      -7.709  11.596  68.577  1.00  0.00    -0.134 C  
HETATM    6  C   UNL     1      -6.907  12.740  67.893  1.00  0.00    -0.114 C  
HETATM    7  C   UNL     1      -7.645   9.505  67.203  1.00  0.00    -0.091 C  
HETATM    8  C   UNL     1      -6.317  11.597  67.026  1.00  0.00    -0.149 C  
HETATM    9  O   UNL     1      -5.730  11.508  65.972  1.00  0.00    -0.197 OA 
HETATM   10  N   UNL     1      -6.914  10.636  67.790  1.00  0.00    -0.077 N  
ENDROOT
BRANCH   6  11
HETATM   11  N   UNL     1      -7.694  13.791  67.194  1.00  0.00    -0.366 N  
HETATM   12  C   UNL     1      -8.281  14.826  67.889  1.00  0.00    -0.150 C  
HETATM   13  O   UNL     1      -8.050  15.027  69.081  1.00  0.00    -0.176 OA 
HETATM   14  H   UNL     1      -7.800  13.746  66.180  1.00  0.00     0.000 HD 
BRANCH  12  15
HETATM   15  C   UNL     1      -9.272  15.688  67.075  1.00  0.00    -0.222 C  
HETATM   16  H2  UNL     1      -9.040  17.360  68.315  1.00  0.00     0.000 HD 
HETATM   17  N   UNL     1      -9.792  16.801  67.915  1.00  0.00    -0.251 NA 
HETATM   18  H1  UNL     1     -10.446  17.370  67.377  1.00  0.00     0.000 HD 
BRANCH  15  19
HETATM   19  C   UNL     1     -10.391  14.884  66.439  1.00  0.00    -0.291 A  
HETATM   20  C   UNL     1     -10.403  14.567  65.070  1.00  0.00    -0.442 A  
HETATM   21  C   UNL     1     -11.427  14.384  67.246  1.00  0.00    -0.377 A  
HETATM   22  C   UNL     1     -12.401  13.536  66.713  1.00  0.00    -0.326 A  
HETATM   23  C   UNL     1     -11.372  13.713  64.541  1.00  0.00    -0.393 A  
HETATM   24  C   UNL     1     -12.362  13.186  65.365  1.00  0.00    -0.532 A  
ENDBRANCH  15  19
ENDBRANCH  12  15
ENDBRANCH   6  11
BRANCH   7  25
HETATM   25  C   UNL     1      -7.736   8.433  68.313  1.00  0.00    -0.106 C  
HETATM   26  O   UNL     1      -7.705   8.654  69.520  1.00  0.00    -0.086 OA 
BRANCH  25  27
HETATM   27  O   UNL     1      -7.846   7.179  67.787  1.00  0.00    -0.110 OA 
BRANCH  27  28
HETATM   28  C   UNL     1      -8.077   6.146  68.749  1.00  0.00    -0.105 C  
BRANCH  28  29
HETATM   29  O   UNL     1      -9.450   6.098  69.124  1.00  0.00    -0.131 OA 
BRANCH  29  30
HETATM   30  C   UNL     1      -9.836   5.015  69.846  1.00  0.00    -0.226 C  
HETATM   31  O   UNL     1      -9.388   3.886  69.698  1.00  0.00    -0.142 OA 
BRANCH  30  32
HETATM   32  C   UNL     1     -10.897   5.392  70.903  1.00  0.00    -0.120 C  
HETATM   33  N   UNL     1     -11.156   6.839  70.826  1.00  0.00    -0.260 N  
HETATM   34  C   UNL     1     -10.258   7.747  71.589  1.00  0.00    -0.186 C  
HETATM   35  S   UNL     1      -9.449   6.594  72.719  1.00  0.00    -0.141 S  
HETATM   36  C   UNL     1     -11.511   8.506  72.034  1.00  0.00    -0.431 C  
HETATM   37  O   UNL     1      -8.101   6.347  72.237  1.00  0.00    -0.107 OA 
HETATM   38  O   UNL     1      -9.674   6.999  74.092  1.00  0.00    -0.266 OA 
HETATM   39  C   UNL     1     -10.450   5.111  72.357  1.00  0.00    -0.216 C  
HETATM   40  C   UNL     1     -12.297   7.403  71.310  1.00  0.00    -0.346 C  
HETATM   41  C   UNL     1      -9.629   3.833  72.573  1.00  0.00    -0.190 C  
HETATM   42  C   UNL     1     -11.648   5.032  73.328  1.00  0.00    -0.251 C  
HETATM   43  O   UNL     1     -13.429   6.985  71.310  1.00  0.00    -0.333 OA 
ENDBRANCH  30  32
ENDBRANCH  29  30
ENDBRANCH  28  29
ENDBRANCH  27  28
ENDBRANCH  25  27
ENDBRANCH   7  25
TORSDOF 9
ENDMDL
MODEL       79
REMARK 921   NORMALIZED FREE ENERGY PREDICTED BY IDOCK:   -6.27 KCAL/MOL
REMARK 922        TOTAL FREE ENERGY PREDICTED BY IDOCK:  -10.07 KCAL/MOL
REMARK 923 INTER-LIGAND FREE ENERGY PREDICTED BY IDOCK:   -9.96 KCAL/MOL
REMARK 924 INTRA-LIGAND FREE ENERGY PREDICTED BY IDOCK:   -0.12 KCAL/MOL
REMARK 927      BINDING AFFINITY PREDICTED BY RF-SCORE:    0.00 PKD
ROOT
HETATM    1  C   UNL     1     -12.179  12.227  65.809  1.00  0.00    -0.151 C  
HETATM    2  C   UNL     1     -11.425  13.411  66.450  1.00  0.00    -0.329 C  
HETATM    3  S   UNL     1      -9.628  12.949  66.480  1.00  0.00    -0.250 SA 
HETATM    4  C   UNL     1     -11.655  14.611  65.524  1.00  0.00    -0.335 C  
HETATM    5  C   UNL     1      -9.679  12.326  68.229  1.00  0.00    -0.219 C  
HETATM    6  C   UNL     1      -9.979  10.816  68.452  1.00  0.00    -0.164 C  
HETATM    7  C   UNL     1     -11.794  13.632  67.941  1.00  0.00    -0.366 C  
HETATM    8  C   UNL     1     -11.427  11.305  68.727  1.00  0.00    -0.293 C  
HETATM    9  O   UNL     1     -12.529  10.807  68.763  1.00  0.00    -0.366 OA 
HETATM   10  N   UNL     1     -11.048  12.615  68.694  1.00  0.00    -0.252 N  
ENDROOT
BRANCH   6  11
HETATM   11  N   UNL     1      -9.774   9.908  67.292  1.00  0.00    -0.166 N  
HETATM   12  C   UNL     1      -8.758   8.977  67.286  1.00  0.00    -0.118 C  
HETATM   13  O   UNL     1      -8.086   8.735  68.287  1.00  0.00    -0.111 OA 
HETATM   14  H   UNL     1     -10.396   9.976  66.487  1.00  0.00     0.000 HD 
BRANCH  12  15
HETATM   15  C   UNL     1      -8.504   8.288  65.925  1.00  0.00    -0.140 C  
HETATM   16  H2  UNL     1      -8.889  10.028  64.825  1.00  0.00     0.000 HD 
HETATM   17  N   UNL     1      -9.171   9.048  64.834  1.00  0.00    -0.443 NA 
HETATM   18  H1  UNL     1      -9.004   8.594  63.937  1.00  0.00     0.000 HD 
BRANCH  15  19
HETATM   19  C   UNL     1      -8.886   6.819  65.911  1.00  0.00    -0.127 A  
HETATM   20  C   UNL     1     -10.044   6.338  66.545  1.00  0.00    -0.168 A  
HETATM   21  C   UNL     1      -8.093   5.907  65.194  1.00  0.00    -0.131 A  
HETATM   22  C   UNL     1      -8.486   4.573  65.058  1.00  0.00    -0.128 A  
HETATM   23  C   UNL     1     -10.440   5.008  66.400  1.00  0.00    -0.349 A  
HETATM   24  C   UNL     1      -9.669   4.129  65.645  1.00  0.00    -0.204 A  
ENDBRANCH  15  19
ENDBRANCH  12  15
ENDBRANCH   6  11
BRANCH   7  25
HETATM   25  C   UNL     1     -11.368  14.997  68.527  1.00  0.00    -0.303 C  
HETATM   26  O   UNL     1     -11.848  16.084  68.220  1.00  0.00    -0.250 OA 
BRANCH  25  27
HETATM   27  O   UNL     1     -10.362  14.856  69.437  1.00  0.00    -0.235 OA 
BRANCH  27  28
HETATM   28  C   UNL     1      -9.572  16.031  69.642  1.00  0.00    -0.120 C  
BRANCH  28  29
HETATM   29  O   UNL     1      -8.618  16.191  68.595  1.00  0.00    -0.187 OA 
BRANCH  29  30
HETATM   30  C   UNL     1      -7.574  17.018  68.857  1.00  0.00    -0.233 C  
HETATM   31  O   UNL     1      -6.451  16.642  69.165  1.00  0.00    -0.174 OA 
BRANCH  30  32
HETATM   32  C   UNL     1      -7.974  18.501  68.690  1.00  0.00    -0.309 C  
HETATM   33  N   UNL     1      -9.335  18.569  68.133  1.00  0.00    -0.303 N  
HETATM   34  C   UNL     1      -9.485  18.494  66.654  1.00  0.00    -0.311 C  
HETATM   35  S   UNL     1      -7.798  18.821  66.100  1.00  0.00    -0.189 S  
HETATM   36  C   UNL     1     -10.492  19.641  66.764  1.00  0.00    -0.605 C  
HETATM   37  O   UNL     1      -7.198  17.564  65.684  1.00  0.00    -0.405 OA 
HETATM   38  O   UNL     1      -7.774  19.971  65.219  1.00  0.00    -0.291 OA 
HETATM   39  C   UNL     1      -7.067  19.281  67.709  1.00  0.00    -0.236 C  
HETATM   40  C   UNL     1     -10.118  19.676  68.253  1.00  0.00    -0.449 C  
HETATM   41  C   UNL     1      -5.574  18.929  67.750  1.00  0.00    -0.179 C  
HETATM   42  C   UNL     1      -7.164  20.807  67.917  1.00  0.00    -0.211 C  
HETATM   43  O   UNL     1     -10.225  20.455  69.169  1.00  0.00    -0.160 OA 
ENDBRANCH  30  32
ENDBRANCH  29  30
ENDBRANCH  28  29
ENDBRANCH  27  28
ENDBRANCH  25  27
ENDBRANCH   7  25
TORSDOF 9
ENDMDL
MODEL       80
REMARK 921   NORMALIZED FREE ENERGY PREDICTED BY IDOCK:   -6.26 KCAL/MOL
REMARK 922        TOTAL FREE ENERGY PREDICTED BY IDOCK:  -10.06 KCAL/MOL
REMARK 923 INTER-LIGAND FREE ENERGY PREDICTED BY IDOCK:   -9.14 KCAL/MOL
REMARK 924 INTRA-LIGAND FREE ENERGY PREDICTED BY IDOCK:   -0.92 KCAL/MOL
REMARK 927      BINDING AFFINITY PREDICTED BY RF-SCORE:    0.00 PKD
ROOT
HETATM    1  C   UNL     1      -7.380  11.027  65.965  1.00  0.00    -0.025 C  
HETATM    2  C   UNL     1      -8.260   9.824  65.570  1.00  0.00    -0.129 C  
HETATM    3  S   UNL     1      -9.847  10.516  64.904  1.00  0.00    -0.338 SA 
HETATM    4  C   UNL     1      -7.494   9.082  64.468  1.00  0.00    -0.104 C  
HETATM    5  C   UNL     1     -10.751  10.359  66.518  1.00  0.00    -0.092 C  
HETATM    6  C   UNL     1     -10.728  11.579  67.483  1.00  0.00    -0.223 C  
HETATM    7  C   UNL     1      -8.693   8.961  66.785  1.00  0.00    -0.119 C  
HETATM    8  C   UNL     1      -9.594  10.796  68.196  1.00  0.00    -0.160 C  
HETATM    9  O   UNL     1      -8.710  11.051  68.982  1.00  0.00    -0.147 OA 
HETATM   10  N   UNL     1      -9.797   9.691  67.422  1.00  0.00    -0.163 N  
ENDROOT
BRANCH   6  11
HETATM   11  N   UNL     1     -10.380  12.899  66.893  1.00  0.00    -0.242 N  
HETATM   12  C   UNL     1     -11.358  13.803  66.536  1.00  0.00    -0.325 C  
HETATM   13  O   UNL     1     -12.540  13.639  66.835  1.00  0.00    -0.233 OA 
HETATM   14  H   UNL     1      -9.399  13.141  66.751  1.00  0.00     0.000 HD 
BRANCH  12  15
HETATM   15  C   UNL     1     -10.868  15.010  65.706  1.00  0.00    -0.350 C  
HETATM   16  H2  UNL     1     -10.460  13.849  64.013  1.00  0.00     0.000 HD 
HETATM   17  N   UNL     1      -9.997  14.547  64.593  1.00  0.00    -0.591 NA 
HETATM   18  H1  UNL     1      -9.673  15.344  64.045  1.00  0.00     0.000 HD 
BRANCH  15  19
HETATM   19  C   UNL     1     -10.199  16.087  66.543  1.00  0.00    -0.301 A  
HETATM   20  C   UNL     1      -8.937  16.613  66.218  1.00  0.00    -0.340 A  
HETATM   21  C   UNL     1     -10.879  16.624  67.649  1.00  0.00    -0.258 A  
HETATM   22  C   UNL     1     -10.344  17.700  68.361  1.00  0.00    -0.375 A  
HETATM   23  C   UNL     1      -8.409  17.694  66.925  1.00  0.00    -0.258 A  
HETATM   24  C   UNL     1      -9.119  18.247  67.987  1.00  0.00    -0.300 A  
ENDBRANCH  15  19
ENDBRANCH  12  15
ENDBRANCH   6  11
BRANCH   7  25
HETATM   25  C   UNL     1      -9.251   7.563  66.432  1.00  0.00    -0.167 C  
HETATM   26  O   UNL     1      -8.595   6.628  65.983  1.00  0.00    -0.139 OA 
BRANCH  25  27
HETATM   27  O   UNL     1     -10.592   7.488  66.669  1.00  0.00    -0.268 OA 
BRANCH  27  28
HETATM   28  C   UNL     1     -11.033   6.242  67.218  1.00  0.00    -0.366 C  
BRANCH  28  29
HETATM   29  O   UNL     1     -11.338   6.378  68.603  1.00  0.00    -0.313 OA 
BRANCH  29  30
HETATM   30  C   UNL     1     -10.364   5.998  69.471  1.00  0.00    -0.233 C  
HETATM   31  O   UNL     1      -9.916   4.863  69.557  1.00  0.00    -0.200 OA 
BRANCH  30  32
HETATM   32  C   UNL     1      -9.871   7.190  70.320  1.00  0.00    -0.176 C  
HETATM   33  N   UNL     1      -8.571   6.846  70.918  1.00  0.00    -0.135 N  
HETATM   34  C   UNL     1      -8.573   6.095  72.203  1.00  0.00    -0.127 C  
HETATM   35  S   UNL     1     -10.277   6.324  72.755  1.00  0.00    -0.192 S  
HETATM   36  C   UNL     1      -7.475   7.047  72.685  1.00  0.00    -0.084 C  
HETATM   37  O   UNL     1     -11.008   5.092  72.515  1.00  0.00    -0.220 OA 
HETATM   38  O   UNL     1     -10.299   6.947  74.063  1.00  0.00    -0.363 OA 
HETATM   39  C   UNL     1     -10.808   7.540  71.501  1.00  0.00    -0.227 C  
HETATM   40  C   UNL     1      -7.697   7.792  71.361  1.00  0.00    -0.082 C  
HETATM   41  C   UNL     1     -12.313   7.416  71.224  1.00  0.00    -0.380 C  
HETATM   42  C   UNL     1     -10.575   8.974  72.022  1.00  0.00    -0.321 C  
HETATM   43  O   UNL     1      -7.442   8.883  70.911  1.00  0.00    -0.079 OA 
ENDBRANCH  30  32
ENDBRANCH  29  30
ENDBRANCH  28  29
ENDBRANCH  27  28
ENDBRANCH  25  27
ENDBRANCH   7  25
TORSDOF 9
ENDMDL
MODEL       81
REMARK 921   NORMALIZED FREE ENERGY PREDICTED BY IDOCK:   -6.26 KCAL/MOL
REMARK 922        TOTAL FREE ENERGY PREDICTED BY IDOCK:  -10.06 KCAL/MOL
REMARK 923 INTER-LIGAND FREE ENERGY PREDICTED BY IDOCK:  -10.10 KCAL/MOL
REMARK 924 INTRA-LIGAND FREE ENERGY PREDICTED BY IDOCK:    0.04 KCAL/MOL
REMARK 927      BINDING AFFINITY PREDICTED BY RF-SCORE:    0.00 PKD
ROOT
HETATM    1  C   UNL     1     -10.852  16.464  69.234  1.00  0.00    -0.327 C  
HETATM    2  C   UNL     1     -11.112  15.134  68.495  1.00  0.00    -0.276 C  
HETATM    3  S   UNL     1      -9.468  14.294  68.309  1.00  0.00    -0.212 SA 
HETATM    4  C   UNL     1     -12.033  14.316  69.407  1.00  0.00    -0.381 C  
HETATM    5  C   UNL     1      -9.183  14.934  66.589  1.00  0.00    -0.276 C  
HETATM    6  C   UNL     1      -8.414  16.276  66.434  1.00  0.00    -0.330 C  
HETATM    7  C   UNL     1     -11.613  15.335  67.040  1.00  0.00    -0.095 C  
HETATM    8  C   UNL     1      -9.831  16.891  66.283  1.00  0.00    -0.302 C  
HETATM    9  O   UNL     1     -10.322  17.994  66.362  1.00  0.00    -0.370 OA 
HETATM   10  N   UNL     1     -10.420  15.661  66.246  1.00  0.00    -0.297 N  
ENDROOT
BRANCH   6  11
HETATM   11  N   UNL     1      -7.595  16.723  67.592  1.00  0.00    -0.163 N  
HETATM   12  C   UNL     1      -6.223  16.595  67.589  1.00  0.00    -0.148 C  
HETATM   13  O   UNL     1      -5.599  16.267  66.580  1.00  0.00    -0.292 OA 
HETATM   14  H   UNL     1      -8.058  17.132  68.404  1.00  0.00     0.000 HD 
BRANCH  12  15
HETATM   15  C   UNL     1      -5.534  16.857  68.947  1.00  0.00    -0.134 C  
HETATM   16  H2  UNL     1      -6.341  15.142  69.837  1.00  0.00     0.000 HD 
HETATM   17  N   UNL     1      -6.252  16.138  70.033  1.00  0.00    -0.166 NA 
HETATM   18  H1  UNL     1      -5.797  16.311  70.929  1.00  0.00     0.000 HD 
BRANCH  15  19
HETATM   19  C   UNL     1      -5.357  18.332  69.260  1.00  0.00    -0.196 A  
HETATM   20  C   UNL     1      -5.382  19.320  68.261  1.00  0.00    -0.191 A  
HETATM   21  C   UNL     1      -5.221  18.742  70.598  1.00  0.00    -0.239 A  
HETATM   22  C   UNL     1      -5.184  20.100  70.927  1.00  0.00    -0.288 A  
HETATM   23  C   UNL     1      -5.354  20.675  68.593  1.00  0.00    -0.333 A  
HETATM   24  C   UNL     1      -5.270  21.065  69.926  1.00  0.00    -0.372 A  
ENDBRANCH  15  19
ENDBRANCH  12  15
ENDBRANCH   6  11
BRANCH   7  25
HETATM   25  C   UNL     1     -12.234  14.082  66.381  1.00  0.00    -0.460 C  
HETATM   26  O   UNL     1     -12.752  14.046  65.269  1.00  0.00    -0.595 OA 
BRANCH  25  27
HETATM   27  O   UNL     1     -12.154  12.996  67.202  1.00  0.00    -0.362 OA 
BRANCH  27  28
HETATM   28  C   UNL     1     -11.501  11.860  66.627  1.00  0.00    -0.314 C  
BRANCH  28  29
HETATM   29  O   UNL     1     -11.636  10.717  67.467  1.00  0.00    -0.510 OA 
BRANCH  29  30
HETATM   30  C   UNL     1     -10.705  10.578  68.445  1.00  0.00    -0.224 C  
HETATM   31  O   UNL     1     -10.751  11.137  69.532  1.00  0.00    -0.222 OA 
BRANCH  30  32
HETATM   32  C   UNL     1      -9.587   9.600  68.023  1.00  0.00    -0.143 C  
HETATM   33  N   UNL     1     -10.140   8.624  67.070  1.00  0.00    -0.244 N  
HETATM   34  C   UNL     1     -10.812   7.417  67.622  1.00  0.00    -0.149 C  
HETATM   35  S   UNL     1     -10.240   7.433  69.334  1.00  0.00    -0.206 S  
HETATM   36  C   UNL     1     -10.062   6.598  66.569  1.00  0.00    -0.140 C  
HETATM   37  O   UNL     1     -11.323   7.909  70.177  1.00  0.00    -0.214 OA 
HETATM   38  O   UNL     1      -9.560   6.192  69.646  1.00  0.00    -0.146 OA 
HETATM   39  C   UNL     1      -9.009   8.774  69.197  1.00  0.00    -0.137 C  
HETATM   40  C   UNL     1      -9.354   7.913  66.214  1.00  0.00    -0.164 C  
HETATM   41  C   UNL     1      -8.862   9.518  70.532  1.00  0.00    -0.253 C  
HETATM   42  C   UNL     1      -7.620   8.187  68.866  1.00  0.00    -0.098 C  
HETATM   43  O   UNL     1      -8.354   8.243  65.624  1.00  0.00    -0.131 OA 
ENDBRANCH  30  32
ENDBRANCH  29  30
ENDBRANCH  28  29
ENDBRANCH  27  28
ENDBRANCH  25  27
ENDBRANCH   7  25
TORSDOF 9
ENDMDL
MODEL       82
REMARK 921   NORMALIZED FREE ENERGY PREDICTED BY IDOCK:   -6.25 KCAL/MOL
REMARK 922        TOTAL FREE ENERGY PREDICTED BY IDOCK:  -10.05 KCAL/MOL
REMARK 923 INTER-LIGAND FREE ENERGY PREDICTED BY IDOCK:   -9.37 KCAL/MOL
REMARK 924 INTRA-LIGAND FREE ENERGY PREDICTED BY IDOCK:   -0.68 KCAL/MOL
REMARK 927      BINDING AFFINITY PREDICTED BY RF-SCORE:    0.00 PKD
ROOT
HETATM    1  C   UNL     1      -9.816  10.560  68.441  1.00  0.00    -0.171 C  
HETATM    2  C   UNL     1      -8.820  10.269  67.300  1.00  0.00    -0.132 C  
HETATM    3  S   UNL     1      -8.779   8.427  67.080  1.00  0.00    -0.127 SA 
HETATM    4  C   UNL     1      -9.397  10.945  66.051  1.00  0.00    -0.215 C  
HETATM    5  C   UNL     1      -7.277   8.197  68.147  1.00  0.00    -0.094 C  
HETATM    6  C   UNL     1      -7.499   7.922  69.662  1.00  0.00    -0.092 C  
HETATM    7  C   UNL     1      -7.358  10.650  67.656  1.00  0.00    -0.090 C  
HETATM    8  C   UNL     1      -7.213   9.439  69.820  1.00  0.00    -0.076 C  
HETATM    9  O   UNL     1      -7.399  10.284  70.666  1.00  0.00    -0.267 OA 
HETATM   10  N   UNL     1      -6.857   9.564  68.509  1.00  0.00    -0.061 N  
ENDROOT
BRANCH   6  11
HETATM   11  N   UNL     1      -8.843   7.434  70.070  1.00  0.00    -0.141 N  
HETATM   12  C   UNL     1      -9.106   7.067  71.372  1.00  0.00    -0.147 C  
HETATM   13  O   UNL     1      -8.308   7.278  72.284  1.00  0.00    -0.104 OA 
HETATM   14  H   UNL     1      -9.585   7.370  69.373  1.00  0.00     0.000 HD 
BRANCH  12  15
HETATM   15  C   UNL     1     -10.453   6.342  71.593  1.00  0.00    -0.217 C  
HETATM   16  H2  UNL     1      -9.843   4.618  70.573  1.00  0.00     0.000 HD 
HETATM   17  N   UNL     1     -10.629   5.268  70.580  1.00  0.00    -0.233 NA 
HETATM   18  H1  UNL     1     -11.517   4.790  70.726  1.00  0.00     0.000 HD 
BRANCH  15  19
HETATM   19  C   UNL     1     -11.644   7.282  71.639  1.00  0.00    -0.306 A  
HETATM   20  C   UNL     1     -12.953   6.848  71.371  1.00  0.00    -0.339 A  
HETATM   21  C   UNL     1     -11.452   8.622  72.017  1.00  0.00    -0.437 A  
HETATM   22  C   UNL     1     -12.543   9.478  72.191  1.00  0.00    -0.411 A  
HETATM   23  C   UNL     1     -14.042   7.701  71.553  1.00  0.00    -0.535 A  
HETATM   24  C   UNL     1     -13.839   9.011  71.977  1.00  0.00    -0.501 A  
ENDBRANCH  15  19
ENDBRANCH  12  15
ENDBRANCH   6  11
BRANCH   7  25
HETATM   25  C   UNL     1      -6.390  10.731  66.453  1.00  0.00    -0.122 C  
HETATM   26  O   UNL     1      -6.187   9.833  65.641  1.00  0.00    -0.064 OA 
BRANCH  25  27
HETATM   27  O   UNL     1      -5.760  11.939  66.402  1.00  0.00    -0.252 OA 
BRANCH  27  28
HETATM   28  C   UNL     1      -5.931  12.753  67.566  1.00  0.00    -0.143 C  
BRANCH  28  29
HETATM   29  O   UNL     1      -5.914  14.136  67.226  1.00  0.00    -0.304 OA 
BRANCH  29  30
HETATM   30  C   UNL     1      -6.738  14.941  67.945  1.00  0.00    -0.160 C  
HETATM   31  O   UNL     1      -6.794  14.962  69.167  1.00  0.00    -0.113 OA 
BRANCH  30  32
HETATM   32  C   UNL     1      -7.582  15.850  67.024  1.00  0.00    -0.229 C  
HETATM   33  N   UNL     1      -7.427  17.247  67.461  1.00  0.00    -0.167 N  
HETATM   34  C   UNL     1      -8.318  17.738  68.548  1.00  0.00    -0.297 C  
HETATM   35  S   UNL     1      -9.599  16.465  68.571  1.00  0.00    -0.238 S  
HETATM   36  C   UNL     1      -8.516  19.011  67.722  1.00  0.00    -0.323 C  
HETATM   37  O   UNL     1      -9.370  15.602  69.717  1.00  0.00    -0.270 OA 
HETATM   38  O   UNL     1     -10.901  17.062  68.352  1.00  0.00    -0.367 OA 
HETATM   39  C   UNL     1      -9.098  15.548  67.074  1.00  0.00    -0.230 C  
HETATM   40  C   UNL     1      -7.688  18.302  66.640  1.00  0.00    -0.236 C  
HETATM   41  C   UNL     1      -9.484  14.067  67.188  1.00  0.00    -0.241 C  
HETATM   42  C   UNL     1      -9.842  16.102  65.840  1.00  0.00    -0.384 C  
HETATM   43  O   UNL     1      -7.497  18.428  65.455  1.00  0.00    -0.528 OA 
ENDBRANCH  30  32
ENDBRANCH  29  30
ENDBRANCH  28  29
ENDBRANCH  27  28
ENDBRANCH  25  27
ENDBRANCH   7  25
TORSDOF 9
ENDMDL
MODEL       83
REMARK 921   NORMALIZED FREE ENERGY PREDICTED BY IDOCK:   -6.25 KCAL/MOL
REMARK 922        TOTAL FREE ENERGY PREDICTED BY IDOCK:  -10.05 KCAL/MOL
REMARK 923 INTER-LIGAND FREE ENERGY PREDICTED BY IDOCK:   -9.27 KCAL/MOL
REMARK 924 INTRA-LIGAND FREE ENERGY PREDICTED BY IDOCK:   -0.78 KCAL/MOL
REMARK 927      BINDING AFFINITY PREDICTED BY RF-SCORE:    0.00 PKD
ROOT
HETATM    1  C   UNL     1     -10.798   6.021  71.808  1.00  0.00    -0.312 C  
HETATM    2  C   UNL     1     -11.608   7.233  71.302  1.00  0.00    -0.286 C  
HETATM    3  S   UNL     1     -10.830   7.768  69.704  1.00  0.00    -0.128 SA 
HETATM    4  C   UNL     1     -13.032   6.719  71.059  1.00  0.00    -0.069 C  
HETATM    5  C   UNL     1      -9.785   9.083  70.498  1.00  0.00    -0.216 C  
HETATM    6  C   UNL     1      -8.354   8.690  70.961  1.00  0.00    -0.161 C  
HETATM    7  C   UNL     1     -11.490   8.473  72.226  1.00  0.00    -0.375 C  
HETATM    8  C   UNL     1      -9.011   8.558  72.360  1.00  0.00    -0.214 C  
HETATM    9  O   UNL     1      -8.735   8.030  73.413  1.00  0.00    -0.212 OA 
HETATM   10  N   UNL     1     -10.189   9.083  71.916  1.00  0.00    -0.335 N  
ENDROOT
BRANCH   6  11
HETATM   11  N   UNL     1      -7.764   7.462  70.364  1.00  0.00    -0.091 N  
HETATM   12  C   UNL     1      -6.987   7.522  69.227  1.00  0.00    -0.068 C  
HETATM   13  O   UNL     1      -6.607   8.591  68.750  1.00  0.00    -0.052 OA 
HETATM   14  H   UNL     1      -7.938   6.558  70.804  1.00  0.00     0.000 HD 
BRANCH  12  15
HETATM   15  C   UNL     1      -6.662   6.158  68.579  1.00  0.00    -0.064 C  
HETATM   16  H2  UNL     1      -4.593   6.476  68.636  1.00  0.00     0.000 HD 
HETATM   17  N   UNL     1      -5.307   6.192  67.966  1.00  0.00    -0.004 NA 
HETATM   18  H1  UNL     1      -5.092   5.291  67.538  1.00  0.00     0.000 HD 
BRANCH  15  19
HETATM   19  C   UNL     1      -7.719   5.688  67.596  1.00  0.00    -0.097 A  
HETATM   20  C   UNL     1      -8.774   4.840  67.976  1.00  0.00    -0.110 A  
HETATM   21  C   UNL     1      -7.687   6.156  66.271  1.00  0.00    -0.099 A  
HETATM   22  C   UNL     1      -8.715   5.842  65.378  1.00  0.00    -0.109 A  
HETATM   23  C   UNL     1      -9.804   4.536  67.086  1.00  0.00    -0.225 A  
HETATM   24  C   UNL     1      -9.783   5.049  65.792  1.00  0.00    -0.158 A  
ENDBRANCH  15  19
ENDBRANCH  12  15
ENDBRANCH   6  11
BRANCH   7  25
HETATM   25  C   UNL     1     -12.547   9.575  71.984  1.00  0.00    -0.376 C  
HETATM   26  O   UNL     1     -13.759   9.442  72.126  1.00  0.00    -0.427 OA 
BRANCH  25  27
HETATM   27  O   UNL     1     -11.968  10.739  71.571  1.00  0.00    -0.212 OA 
BRANCH  27  28
HETATM   28  C   UNL     1     -12.891  11.759  71.177  1.00  0.00    -0.267 C  
BRANCH  28  29
HETATM   29  O   UNL     1     -12.304  12.631  70.216  1.00  0.00    -0.281 OA 
BRANCH  29  30
HETATM   30  C   UNL     1     -11.802  12.043  69.100  1.00  0.00    -0.311 C  
HETATM   31  O   UNL     1     -12.298  11.072  68.544  1.00  0.00    -0.536 OA 
BRANCH  30  32
HETATM   32  C   UNL     1     -10.536  12.772  68.600  1.00  0.00    -0.211 C  
HETATM   33  N   UNL     1     -10.834  14.207  68.461  1.00  0.00    -0.244 N  
HETATM   34  C   UNL     1     -11.448  14.668  67.186  1.00  0.00    -0.368 C  
HETATM   35  S   UNL     1     -11.140  13.257  66.102  1.00  0.00    -0.288 S  
HETATM   36  C   UNL     1     -10.466  15.842  67.214  1.00  0.00    -0.310 C  
HETATM   37  O   UNL     1     -12.381  12.517  65.947  1.00  0.00    -0.626 OA 
HETATM   38  O   UNL     1     -10.386  13.675  64.938  1.00  0.00    -0.377 OA 
HETATM   39  C   UNL     1     -10.053  12.295  67.210  1.00  0.00    -0.204 C  
HETATM   40  C   UNL     1      -9.859  15.158  68.447  1.00  0.00    -0.223 C  
HETATM   41  C   UNL     1     -10.186  10.791  66.933  1.00  0.00    -0.274 C  
HETATM   42  C   UNL     1      -8.576  12.661  66.951  1.00  0.00    -0.151 C  
HETATM   43  O   UNL     1      -8.824  15.215  69.065  1.00  0.00    -0.195 OA 
ENDBRANCH  30  32
ENDBRANCH  29  30
ENDBRANCH  28  29
ENDBRANCH  27  28
ENDBRANCH  25  27
ENDBRANCH   7  25
TORSDOF 9
ENDMDL
MODEL       84
REMARK 921   NORMALIZED FREE ENERGY PREDICTED BY IDOCK:   -6.25 KCAL/MOL
REMARK 922        TOTAL FREE ENERGY PREDICTED BY IDOCK:  -10.05 KCAL/MOL
REMARK 923 INTER-LIGAND FREE ENERGY PREDICTED BY IDOCK:   -9.33 KCAL/MOL
REMARK 924 INTRA-LIGAND FREE ENERGY PREDICTED BY IDOCK:   -0.72 KCAL/MOL
REMARK 927      BINDING AFFINITY PREDICTED BY RF-SCORE:    0.00 PKD
ROOT
HETATM    1  C   UNL     1     -11.720  16.319  68.162  1.00  0.00     0.060 C  
HETATM    2  C   UNL     1     -11.499  15.018  68.961  1.00  0.00    -0.304 C  
HETATM    3  S   UNL     1      -9.664  14.794  69.124  1.00  0.00    -0.093 SA 
HETATM    4  C   UNL     1     -12.135  15.253  70.337  1.00  0.00    -0.388 C  
HETATM    5  C   UNL     1      -9.538  13.652  67.664  1.00  0.00    -0.221 C  
HETATM    6  C   UNL     1      -9.247  14.284  66.274  1.00  0.00    -0.151 C  
HETATM    7  C   UNL     1     -11.979  13.750  68.206  1.00  0.00    -0.357 C  
HETATM    8  C   UNL     1     -10.780  14.158  66.069  1.00  0.00    -0.299 C  
HETATM    9  O   UNL     1     -11.610  14.636  65.330  1.00  0.00    -0.345 OA 
HETATM   10  N   UNL     1     -10.930  13.447  67.224  1.00  0.00    -0.269 N  
ENDROOT
BRANCH   6  11
HETATM   11  N   UNL     1      -8.668  15.654  66.262  1.00  0.00    -0.358 N  
HETATM   12  C   UNL     1      -7.389  15.893  66.718  1.00  0.00    -0.105 C  
HETATM   13  O   UNL     1      -6.612  14.979  66.995  1.00  0.00    -0.207 OA 
HETATM   14  H   UNL     1      -9.227  16.432  65.911  1.00  0.00     0.000 HD 
BRANCH  12  15
HETATM   15  C   UNL     1      -7.017  17.383  66.887  1.00  0.00    -0.192 C  
HETATM   16  H2  UNL     1      -5.066  16.961  67.521  1.00  0.00     0.000 HD 
HETATM   17  N   UNL     1      -5.864  17.521  67.818  1.00  0.00    -0.140 NA 
HETATM   18  H1  UNL     1      -5.619  18.504  67.930  1.00  0.00     0.000 HD 
BRANCH  15  19
HETATM   19  C   UNL     1      -8.190  18.255  67.301  1.00  0.00    -0.239 A  
HETATM   20  C   UNL     1      -8.686  18.271  68.615  1.00  0.00    -0.290 A  
HETATM   21  C   UNL     1      -8.771  19.122  66.360  1.00  0.00    -0.336 A  
HETATM   22  C   UNL     1      -9.766  20.025  66.741  1.00  0.00    -0.563 A  
HETATM   23  C   UNL     1      -9.673  19.180  68.997  1.00  0.00    -0.420 A  
HETATM   24  C   UNL     1     -10.203  20.067  68.063  1.00  0.00    -0.538 A  
ENDBRANCH  15  19
ENDBRANCH  12  15
ENDBRANCH   6  11
BRANCH   7  25
HETATM   25  C   UNL     1     -12.128  12.483  69.079  1.00  0.00    -0.135 C  
HETATM   26  O   UNL     1     -12.108  12.458  70.306  1.00  0.00    -0.348 OA 
BRANCH  25  27
HETATM   27  O   UNL     1     -12.275  11.365  68.313  1.00  0.00    -0.588 OA 
BRANCH  27  28
HETATM   28  C   UNL     1     -11.252  10.381  68.489  1.00  0.00    -0.251 C  
BRANCH  28  29
HETATM   29  O   UNL     1     -10.730   9.960  67.232  1.00  0.00    -0.265 OA 
BRANCH  29  30
HETATM   30  C   UNL     1     -10.154   8.730  67.204  1.00  0.00    -0.252 C  
HETATM   31  O   UNL     1     -10.761   7.684  67.019  1.00  0.00    -0.348 OA 
BRANCH  30  32
HETATM   32  C   UNL     1      -8.626   8.819  67.407  1.00  0.00    -0.126 C  
HETATM   33  N   UNL     1      -8.232  10.236  67.464  1.00  0.00    -0.114 N  
HETATM   34  C   UNL     1      -7.972  10.937  66.177  1.00  0.00    -0.155 C  
HETATM   35  S   UNL     1      -7.805   9.550  65.034  1.00  0.00    -0.124 S  
HETATM   36  C   UNL     1      -6.731  11.545  66.834  1.00  0.00    -0.139 C  
HETATM   37  O   UNL     1      -9.025   9.448  64.251  1.00  0.00    -0.219 OA 
HETATM   38  O   UNL     1      -6.514   9.597  64.377  1.00  0.00    -0.090 OA 
HETATM   39  C   UNL     1      -7.809   8.190  66.253  1.00  0.00    -0.095 C  
HETATM   40  C   UNL     1      -7.066  10.647  68.034  1.00  0.00    -0.085 C  
HETATM   41  C   UNL     1      -8.390   6.909  65.639  1.00  0.00    -0.147 C  
HETATM   42  C   UNL     1      -6.364   7.857  66.679  1.00  0.00    -0.050 C  
HETATM   43  O   UNL     1      -6.488  10.227  69.007  1.00  0.00    -0.043 OA 
ENDBRANCH  30  32
ENDBRANCH  29  30
ENDBRANCH  28  29
ENDBRANCH  27  28
ENDBRANCH  25  27
ENDBRANCH   7  25
TORSDOF 9
ENDMDL
MODEL       85
REMARK 921   NORMALIZED FREE ENERGY PREDICTED BY IDOCK:   -6.25 KCAL/MOL
REMARK 922        TOTAL FREE ENERGY PREDICTED BY IDOCK:  -10.04 KCAL/MOL
REMARK 923 INTER-LIGAND FREE ENERGY PREDICTED BY IDOCK:   -9.38 KCAL/MOL
REMARK 924 INTRA-LIGAND FREE ENERGY PREDICTED BY IDOCK:   -0.65 KCAL/MOL
REMARK 927      BINDING AFFINITY PREDICTED BY RF-SCORE:    0.00 PKD
ROOT
HETATM    1  C   UNL     1      -8.202   5.091  67.682  1.00  0.00    -0.105 C  
HETATM    2  C   UNL     1      -7.568   6.326  67.009  1.00  0.00    -0.095 C  
HETATM    3  S   UNL     1      -7.256   7.568  68.351  1.00  0.00    -0.096 SA 
HETATM    4  C   UNL     1      -6.243   5.844  66.405  1.00  0.00    -0.034 C  
HETATM    5  C   UNL     1      -8.837   8.494  68.047  1.00  0.00    -0.142 C  
HETATM    6  C   UNL     1     -10.094   8.067  68.856  1.00  0.00    -0.201 C  
HETATM    7  C   UNL     1      -8.530   7.047  66.028  1.00  0.00    -0.139 C  
HETATM    8  C   UNL     1     -10.464   7.283  67.569  1.00  0.00    -0.266 C  
HETATM    9  O   UNL     1     -11.211   6.376  67.278  1.00  0.00    -0.364 OA 
HETATM   10  N   UNL     1      -9.436   7.842  66.868  1.00  0.00    -0.178 N  
ENDROOT
BRANCH   6  11
HETATM   11  N   UNL     1      -9.864   7.278  70.095  1.00  0.00    -0.179 N  
HETATM   12  C   UNL     1     -10.917   6.825  70.861  1.00  0.00    -0.260 C  
HETATM   13  O   UNL     1     -12.084   6.904  70.478  1.00  0.00    -0.353 OA 
HETATM   14  H   UNL     1      -8.909   7.067  70.384  1.00  0.00     0.000 HD 
BRANCH  12  15
HETATM   15  C   UNL     1     -10.529   6.250  72.241  1.00  0.00    -0.199 C  
HETATM   16  H2  UNL     1      -9.191   7.806  72.660  1.00  0.00     0.000 HD 
HETATM   17  N   UNL     1      -9.208   6.786  72.667  1.00  0.00    -0.139 NA 
HETATM   18  H1  UNL     1      -8.952   6.406  73.577  1.00  0.00     0.000 HD 
BRANCH  15  19
HETATM   19  C   UNL     1     -10.572   4.733  72.297  1.00  0.00    -0.225 A  
HETATM   20  C   UNL     1      -9.865   3.928  71.388  1.00  0.00    -0.243 A  
HETATM   21  C   UNL     1     -11.293   4.101  73.324  1.00  0.00    -0.268 A  
HETATM   22  C   UNL     1     -11.249   2.712  73.477  1.00  0.00    -0.306 A  
HETATM   23  C   UNL     1      -9.815   2.543  71.547  1.00  0.00    -0.196 A  
HETATM   24  C   UNL     1     -10.494   1.936  72.600  1.00  0.00    -0.233 A  
ENDBRANCH  15  19
ENDBRANCH  12  15
ENDBRANCH   6  11
BRANCH   7  25
HETATM   25  C   UNL     1      -7.855   8.046  65.062  1.00  0.00    -0.123 C  
HETATM   26  O   UNL     1      -6.648   8.131  64.855  1.00  0.00    -0.054 OA 
BRANCH  25  27
HETATM   27  O   UNL     1      -8.774   8.853  64.458  1.00  0.00    -0.168 OA 
BRANCH  27  28
HETATM   28  C   UNL     1      -8.238  10.060  63.907  1.00  0.00    -0.159 C  
BRANCH  28  29
HETATM   29  O   UNL     1      -9.049  11.180  64.251  1.00  0.00    -0.146 OA 
BRANCH  29  30
HETATM   30  C   UNL     1      -9.155  11.458  65.575  1.00  0.00    -0.137 C  
HETATM   31  O   UNL     1      -8.254  11.313  66.390  1.00  0.00    -0.165 OA 
BRANCH  30  32
HETATM   32  C   UNL     1     -10.555  12.010  65.924  1.00  0.00    -0.265 C  
HETATM   33  N   UNL     1     -10.978  12.943  64.867  1.00  0.00    -0.290 N  
HETATM   34  C   UNL     1     -10.534  14.359  64.971  1.00  0.00    -0.430 C  
HETATM   35  S   UNL     1     -10.000  14.447  66.694  1.00  0.00    -0.281 S  
HETATM   36  C   UNL     1     -11.959  14.766  64.588  1.00  0.00    -0.448 C  
HETATM   37  O   UNL     1      -8.547  14.426  66.727  1.00  0.00    -0.201 OA 
HETATM   38  O   UNL     1     -10.734  15.483  67.393  1.00  0.00    -0.290 OA 
HETATM   39  C   UNL     1     -10.593  12.812  67.247  1.00  0.00    -0.233 C  
HETATM   40  C   UNL     1     -12.285  13.267  64.660  1.00  0.00    -0.407 C  
HETATM   41  C   UNL     1      -9.718  12.270  68.386  1.00  0.00    -0.191 C  
HETATM   42  C   UNL     1     -12.025  12.931  67.812  1.00  0.00    -0.336 C  
HETATM   43  O   UNL     1     -13.277  12.585  64.751  1.00  0.00    -0.839 OA 
ENDBRANCH  30  32
ENDBRANCH  29  30
ENDBRANCH  28  29
ENDBRANCH  27  28
ENDBRANCH  25  27
ENDBRANCH   7  25
TORSDOF 9
ENDMDL
MODEL       86
REMARK 921   NORMALIZED FREE ENERGY PREDICTED BY IDOCK:   -6.23 KCAL/MOL
REMARK 922        TOTAL FREE ENERGY PREDICTED BY IDOCK:  -10.02 KCAL/MOL
REMARK 923 INTER-LIGAND FREE ENERGY PREDICTED BY IDOCK:   -9.35 KCAL/MOL
REMARK 924 INTRA-LIGAND FREE ENERGY PREDICTED BY IDOCK:   -0.67 KCAL/MOL
REMARK 927      BINDING AFFINITY PREDICTED BY RF-SCORE:    0.00 PKD
ROOT
HETATM    1  C   UNL     1      -7.843   9.156  70.798  1.00  0.00    -0.173 C  
HETATM    2  C   UNL     1      -7.616   9.627  69.346  1.00  0.00    -0.097 C  
HETATM    3  S   UNL     1      -9.033  10.745  68.917  1.00  0.00    -0.125 SA 
HETATM    4  C   UNL     1      -6.299  10.411  69.357  1.00  0.00    -0.053 C  
HETATM    5  C   UNL     1     -10.017   9.404  68.090  1.00  0.00    -0.175 C  
HETATM    6  C   UNL     1     -11.027   8.605  68.960  1.00  0.00     0.090 C  
HETATM    7  C   UNL     1      -7.704   8.474  68.311  1.00  0.00    -0.102 C  
HETATM    8  C   UNL     1      -9.894   7.546  69.026  1.00  0.00    -0.170 C  
HETATM    9  O   UNL     1      -9.621   6.596  69.723  1.00  0.00    -0.150 OA 
HETATM   10  N   UNL     1      -9.137   8.221  68.113  1.00  0.00    -0.135 N  
ENDROOT
BRANCH   6  11
HETATM   11  N   UNL     1     -11.456   9.228  70.240  1.00  0.00    -0.399 N  
HETATM   12  C   UNL     1     -12.412  10.221  70.268  1.00  0.00    -0.167 C  
HETATM   13  O   UNL     1     -13.070  10.521  69.273  1.00  0.00     0.241 OA 
HETATM   14  H   UNL     1     -11.036   8.914  71.115  1.00  0.00     0.000 HD 
BRANCH  12  15
HETATM   15  C   UNL     1     -12.568  10.948  71.622  1.00  0.00    -0.326 C  
HETATM   16  H2  UNL     1     -13.417   9.283  72.567  1.00  0.00     0.000 HD 
HETATM   17  N   UNL     1     -13.609  10.277  72.447  1.00  0.00    -0.554 NA 
HETATM   18  H1  UNL     1     -13.712  10.757  73.340  1.00  0.00     0.000 HD 
BRANCH  15  19
HETATM   19  C   UNL     1     -12.826  12.438  71.482  1.00  0.00    -0.377 A  
HETATM   20  C   UNL     1     -12.161  13.227  70.528  1.00  0.00    -0.416 A  
HETATM   21  C   UNL     1     -13.800  13.049  72.289  1.00  0.00    -0.529 A  
HETATM   22  C   UNL     1     -14.149  14.388  72.096  1.00  0.00    -0.627 A  
HETATM   23  C   UNL     1     -12.517  14.562  70.331  1.00  0.00    -0.407 A  
HETATM   24  C   UNL     1     -13.520  15.139  71.105  1.00  0.00    -0.533 A  
ENDBRANCH  15  19
ENDBRANCH  12  15
ENDBRANCH   6  11
BRANCH   7  25
HETATM   25  C   UNL     1      -7.130   8.802  66.914  1.00  0.00    -0.078 C  
HETATM   26  O   UNL     1      -6.653   7.986  66.131  1.00  0.00    -0.046 OA 
BRANCH  25  27
HETATM   27  O   UNL     1      -7.204  10.138  66.646  1.00  0.00    -0.099 OA 
BRANCH  27  28
HETATM   28  C   UNL     1      -7.840  10.464  65.406  1.00  0.00    -0.143 C  
BRANCH  28  29
HETATM   29  O   UNL     1      -8.800  11.501  65.586  1.00  0.00    -0.139 OA 
BRANCH  29  30
HETATM   30  C   UNL     1      -9.609  11.758  64.527  1.00  0.00    -0.070 C  
HETATM   31  O   UNL     1      -9.875  10.952  63.645  1.00  0.00    -0.288 OA 
BRANCH  30  32
HETATM   32  C   UNL     1     -10.179  13.192  64.588  1.00  0.00    -0.306 C  
HETATM   33  N   UNL     1      -9.685  13.851  65.808  1.00  0.00    -0.217 N  
HETATM   34  C   UNL     1     -10.443  13.634  67.070  1.00  0.00    -0.270 C  
HETATM   35  S   UNL     1     -12.003  12.972  66.449  1.00  0.00    -0.368 S  
HETATM   36  C   UNL     1     -10.298  15.134  67.339  1.00  0.00    -0.244 C  
HETATM   37  O   UNL     1     -12.021  11.538  66.681  1.00  0.00    -0.428 OA 
HETATM   38  O   UNL     1     -13.109  13.799  66.889  1.00  0.00     0.492 OA 
HETATM   39  C   UNL     1     -11.723  13.243  64.665  1.00  0.00    -0.364 C  
HETATM   40  C   UNL     1      -9.657  15.206  65.945  1.00  0.00    -0.338 C  
HETATM   41  C   UNL     1     -12.473  12.196  63.830  1.00  0.00    -0.620 C  
HETATM   42  C   UNL     1     -12.281  14.620  64.245  1.00  0.00    -0.432 C  
HETATM   43  O   UNL     1      -9.419  16.063  65.130  1.00  0.00    -0.208 OA 
ENDBRANCH  30  32
ENDBRANCH  29  30
ENDBRANCH  28  29
ENDBRANCH  27  28
ENDBRANCH  25  27
ENDBRANCH   7  25
TORSDOF 9
ENDMDL
MODEL       87
REMARK 921   NORMALIZED FREE ENERGY PREDICTED BY IDOCK:   -6.20 KCAL/MOL
REMARK 922        TOTAL FREE ENERGY PREDICTED BY IDOCK:   -9.97 KCAL/MOL
REMARK 923 INTER-LIGAND FREE ENERGY PREDICTED BY IDOCK:   -9.13 KCAL/MOL
REMARK 924 INTRA-LIGAND FREE ENERGY PREDICTED BY IDOCK:   -0.84 KCAL/MOL
REMARK 927      BINDING AFFINITY PREDICTED BY RF-SCORE:    0.00 PKD
ROOT
HETATM    1  C   UNL     1     -10.907  11.061  64.240  1.00  0.00    -0.262 C  
HETATM    2  C   UNL     1     -11.201  12.466  64.804  1.00  0.00    -0.310 C  
HETATM    3  S   UNL     1      -9.580  13.366  64.873  1.00  0.00     0.553 SA 
HETATM    4  C   UNL     1     -12.145  13.137  63.799  1.00  0.00    -0.563 C  
HETATM    5  C   UNL     1      -9.276  12.959  66.659  1.00  0.00    -0.221 C  
HETATM    6  C   UNL     1      -8.471  11.668  66.981  1.00  0.00    -0.168 C  
HETATM    7  C   UNL     1     -11.694  12.441  66.275  1.00  0.00    -0.395 C  
HETATM    8  C   UNL     1      -9.870  11.041  67.216  1.00  0.00    -0.178 C  
HETATM    9  O   UNL     1     -10.333   9.925  67.281  1.00  0.00    -0.214 OA 
HETATM   10  N   UNL     1     -10.492  12.250  67.098  1.00  0.00    -0.218 N  
ENDROOT
BRANCH   6  11
HETATM   11  N   UNL     1      -7.642  11.098  65.885  1.00  0.00    -0.358 N  
HETATM   12  C   UNL     1      -6.816  10.017  66.102  1.00  0.00    -0.102 C  
HETATM   13  O   UNL     1      -6.845   9.372  67.150  1.00  0.00    -0.081 OA 
HETATM   14  H   UNL     1      -7.686  11.515  64.955  1.00  0.00     0.000 HD 
BRANCH  12  15
HETATM   15  C   UNL     1      -5.831   9.699  64.955  1.00  0.00    -0.075 C  
HETATM   16  H2  UNL     1      -5.294  11.705  64.684  1.00  0.00     0.000 HD 
HETATM   17  N   UNL     1      -5.605  10.912  64.123  1.00  0.00    -0.406 NA 
HETATM   18  H1  UNL     1      -4.955  10.702  63.366  1.00  0.00     0.000 HD 
BRANCH  15  19
HETATM   19  C   UNL     1      -6.246   8.503  64.116  1.00  0.00    -0.067 A  
HETATM   20  C   UNL     1      -7.329   8.554  63.221  1.00  0.00    -0.103 A  
HETATM   21  C   UNL     1      -5.495   7.317  64.185  1.00  0.00    -0.033 A  
HETATM   22  C   UNL     1      -5.775   6.245  63.334  1.00  0.00    -0.022 A  
HETATM   23  C   UNL     1      -7.601   7.485  62.367  1.00  0.00    -0.105 A  
HETATM   24  C   UNL     1      -6.816   6.337  62.413  1.00  0.00    -0.038 A  
ENDBRANCH  15  19
ENDBRANCH  12  15
ENDBRANCH   6  11
BRANCH   7  25
HETATM   25  C   UNL     1     -12.348  13.751  66.771  1.00  0.00    -0.321 C  
HETATM   26  O   UNL     1     -12.969  14.545  66.071  1.00  0.00    -0.128 OA 
BRANCH  25  27
HETATM   27  O   UNL     1     -12.140  13.938  68.106  1.00  0.00    -0.365 OA 
BRANCH  27  28
HETATM   28  C   UNL     1     -11.868  15.290  68.485  1.00  0.00    -0.281 C  
BRANCH  28  29
HETATM   29  O   UNL     1     -10.692  15.772  67.842  1.00  0.00    -0.284 OA 
BRANCH  29  30
HETATM   30  C   UNL     1      -9.647  16.074  68.654  1.00  0.00    -0.222 C  
HETATM   31  O   UNL     1      -9.042  15.260  69.339  1.00  0.00    -0.244 OA 
BRANCH  30  32
HETATM   32  C   UNL     1      -9.295  17.576  68.584  1.00  0.00    -0.277 C  
HETATM   33  N   UNL     1     -10.244  18.248  67.683  1.00  0.00    -0.362 N  
HETATM   34  C   UNL     1      -9.943  18.241  66.226  1.00  0.00    -0.357 C  
HETATM   35  S   UNL     1      -8.201  17.767  66.217  1.00  0.00    -0.176 S  
HETATM   36  C   UNL     1     -10.336  19.720  66.204  1.00  0.00    -0.627 C  
HETATM   37  O   UNL     1      -8.105  16.373  65.819  1.00  0.00    -0.094 OA 
HETATM   38  O   UNL     1      -7.411  18.778  65.542  1.00  0.00    -0.501 OA 
HETATM   39  C   UNL     1      -7.885  17.857  68.013  1.00  0.00    -0.251 C  
HETATM   40  C   UNL     1     -10.468  19.591  67.728  1.00  0.00    -0.449 C  
HETATM   41  C   UNL     1      -6.784  16.868  68.423  1.00  0.00    -0.164 C  
HETATM   42  C   UNL     1      -7.374  19.264  68.391  1.00  0.00    -0.340 C  
HETATM   43  O   UNL     1     -10.508  20.339  68.674  1.00  0.00    -0.319 OA 
ENDBRANCH  30  32
ENDBRANCH  29  30
ENDBRANCH  28  29
ENDBRANCH  27  28
ENDBRANCH  25  27
ENDBRANCH   7  25
TORSDOF 9
ENDMDL
MODEL       88
REMARK 921   NORMALIZED FREE ENERGY PREDICTED BY IDOCK:   -6.20 KCAL/MOL
REMARK 922        TOTAL FREE ENERGY PREDICTED BY IDOCK:   -9.96 KCAL/MOL
REMARK 923 INTER-LIGAND FREE ENERGY PREDICTED BY IDOCK:   -9.05 KCAL/MOL
REMARK 924 INTRA-LIGAND FREE ENERGY PREDICTED BY IDOCK:   -0.91 KCAL/MOL
REMARK 927      BINDING AFFINITY PREDICTED BY RF-SCORE:    0.00 PKD
ROOT
HETATM    1  C   UNL     1      -8.572  12.408  68.453  1.00  0.00    -0.129 C  
HETATM    2  C   UNL     1      -9.870  13.054  67.924  1.00  0.00    -0.224 C  
HETATM    3  S   UNL     1     -11.260  11.911  68.375  1.00  0.00    -0.285 SA 
HETATM    4  C   UNL     1     -10.011  14.389  68.665  1.00  0.00    -0.241 C  
HETATM    5  C   UNL     1     -11.276  11.061  66.723  1.00  0.00    -0.089 C  
HETATM    6  C   UNL     1     -10.401   9.787  66.555  1.00  0.00    -0.192 C  
HETATM    7  C   UNL     1      -9.921  13.137  66.375  1.00  0.00    -0.282 C  
HETATM    8  C   UNL     1      -9.388  10.759  65.895  1.00  0.00    -0.189 C  
HETATM    9  O   UNL     1      -8.207  10.749  65.628  1.00  0.00    -0.162 OA 
HETATM   10  N   UNL     1     -10.281  11.789  65.914  1.00  0.00    -0.228 N  
ENDROOT
BRANCH   6  11
HETATM   11  N   UNL     1      -9.971   9.095  67.800  1.00  0.00    -0.178 N  
HETATM   12  C   UNL     1     -10.245   7.759  68.006  1.00  0.00    -0.201 C  
HETATM   13  O   UNL     1     -10.701   7.041  67.117  1.00  0.00    -0.301 OA 
HETATM   14  H   UNL     1      -9.464   9.617  68.514  1.00  0.00     0.000 HD 
BRANCH  12  15
HETATM   15  C   UNL     1      -9.972   7.244  69.437  1.00  0.00    -0.170 C  
HETATM   16  H2  UNL     1     -11.983   7.365  70.006  1.00  0.00     0.000 HD 
HETATM   17  N   UNL     1     -11.070   7.660  70.349  1.00  0.00    -0.261 NA 
HETATM   18  H1  UNL     1     -10.890   7.320  71.294  1.00  0.00     0.000 HD 
BRANCH  15  19
HETATM   19  C   UNL     1      -8.607   7.640  69.971  1.00  0.00    -0.138 A  
HETATM   20  C   UNL     1      -8.446   8.614  70.971  1.00  0.00    -0.199 A  
HETATM   21  C   UNL     1      -7.462   6.975  69.499  1.00  0.00    -0.096 A  
HETATM   22  C   UNL     1      -6.208   7.228  70.062  1.00  0.00    -0.027 A  
HETATM   23  C   UNL     1      -7.194   8.859  71.537  1.00  0.00    -0.079 A  
HETATM   24  C   UNL     1      -6.078   8.156  71.093  1.00  0.00    -0.034 A  
ENDBRANCH  15  19
ENDBRANCH  12  15
ENDBRANCH   6  11
BRANCH   7  25
HETATM   25  C   UNL     1     -10.998  14.087  65.804  1.00  0.00    -0.294 C  
HETATM   26  O   UNL     1     -12.184  14.089  66.119  1.00  0.00    -0.426 OA 
BRANCH  25  27
HETATM   27  O   UNL     1     -10.471  14.937  64.877  1.00  0.00    -0.414 OA 
BRANCH  27  28
HETATM   28  C   UNL     1     -10.776  16.319  65.090  1.00  0.00    -0.331 C  
BRANCH  28  29
HETATM   29  O   UNL     1     -10.173  16.792  66.291  1.00  0.00    -0.309 OA 
BRANCH  29  30
HETATM   30  C   UNL     1      -8.827  16.969  66.255  1.00  0.00    -0.254 C  
HETATM   31  O   UNL     1      -8.010  16.061  66.177  1.00  0.00    -0.164 OA 
BRANCH  30  32
HETATM   32  C   UNL     1      -8.454  18.467  66.298  1.00  0.00    -0.196 C  
HETATM   33  N   UNL     1      -7.012  18.608  66.037  1.00  0.00    -0.252 N  
HETATM   34  C   UNL     1      -6.081  18.475  67.190  1.00  0.00    -0.165 C  
HETATM   35  S   UNL     1      -7.208  18.651  68.590  1.00  0.00    -0.297 S  
HETATM   36  C   UNL     1      -5.337  19.697  66.646  1.00  0.00    -0.163 C  
HETATM   37  O   UNL     1      -7.440  17.336  69.162  1.00  0.00    -0.226 OA 
HETATM   38  O   UNL     1      -6.791  19.753  69.432  1.00  0.00    -0.343 OA 
HETATM   39  C   UNL     1      -8.710  19.132  67.671  1.00  0.00    -0.296 C  
HETATM   40  C   UNL     1      -6.460  19.774  65.601  1.00  0.00    -0.241 C  
HETATM   41  C   UNL     1      -9.974  18.674  68.413  1.00  0.00    -0.428 C  
HETATM   42  C   UNL     1      -8.797  20.669  67.565  1.00  0.00    -0.290 C  
HETATM   43  O   UNL     1      -6.896  20.601  64.838  1.00  0.00    -0.258 OA 
ENDBRANCH  30  32
ENDBRANCH  29  30
ENDBRANCH  28  29
ENDBRANCH  27  28
ENDBRANCH  25  27
ENDBRANCH   7  25
TORSDOF 9
ENDMDL
MODEL       89
REMARK 921   NORMALIZED FREE ENERGY PREDICTED BY IDOCK:   -6.20 KCAL/MOL
REMARK 922        TOTAL FREE ENERGY PREDICTED BY IDOCK:   -9.96 KCAL/MOL
REMARK 923 INTER-LIGAND FREE ENERGY PREDICTED BY IDOCK:   -8.25 KCAL/MOL
REMARK 924 INTRA-LIGAND FREE ENERGY PREDICTED BY IDOCK:   -1.71 KCAL/MOL
REMARK 927      BINDING AFFINITY PREDICTED BY RF-SCORE:    0.00 PKD
ROOT
HETATM    1  C   UNL     1      -7.451  11.146  66.846  1.00  0.00    -0.138 C  
HETATM    2  C   UNL     1      -7.449   9.654  66.453  1.00  0.00    -0.094 C  
HETATM    3  S   UNL     1      -9.011   9.348  65.500  1.00  0.00    -0.218 SA 
HETATM    4  C   UNL     1      -6.223   9.455  65.553  1.00  0.00    -0.065 C  
HETATM    5  C   UNL     1      -9.950   8.725  66.977  1.00  0.00    -0.240 C  
HETATM    6  C   UNL     1     -10.763   9.759  67.807  1.00  0.00    -0.272 C  
HETATM    7  C   UNL     1      -7.546   8.702  67.675  1.00  0.00    -0.098 C  
HETATM    8  C   UNL     1      -9.532   9.739  68.750  1.00  0.00    -0.154 C  
HETATM    9  O   UNL     1      -9.083  10.445  69.624  1.00  0.00    -0.163 OA 
HETATM   10  N   UNL     1      -8.961   8.702  68.071  1.00  0.00    -0.141 N  
ENDROOT
BRANCH   6  11
HETATM   11  N   UNL     1     -11.094  11.048  67.142  1.00  0.00    -0.289 N  
HETATM   12  C   UNL     1     -11.783  12.039  67.807  1.00  0.00    -0.309 C  
HETATM   13  O   UNL     1     -12.010  11.979  69.015  1.00  0.00    -0.307 OA 
HETATM   14  H   UNL     1     -10.804  11.202  66.176  1.00  0.00     0.000 HD 
BRANCH  12  15
HETATM   15  C   UNL     1     -12.278  13.205  66.922  1.00  0.00    -0.222 C  
HETATM   16  H2  UNL     1     -13.138  11.934  65.498  1.00  0.00     0.000 HD 
HETATM   17  N   UNL     1     -12.504  12.732  65.530  1.00  0.00    -0.623 NA 
HETATM   18  H1  UNL     1     -12.831  13.501  64.947  1.00  0.00     0.000 HD 
BRANCH  15  19
HETATM   19  C   UNL     1     -11.374  14.425  66.969  1.00  0.00    -0.357 A  
HETATM   20  C   UNL     1     -11.484  15.403  67.972  1.00  0.00    -0.333 A  
HETATM   21  C   UNL     1     -10.351  14.562  66.015  1.00  0.00    -0.320 A  
HETATM   22  C   UNL     1      -9.425  15.605  66.107  1.00  0.00    -0.376 A  
HETATM   23  C   UNL     1     -10.554  16.438  68.067  1.00  0.00    -0.314 A  
HETATM   24  C   UNL     1      -9.516  16.531  67.144  1.00  0.00    -0.246 A  
ENDBRANCH  15  19
ENDBRANCH  12  15
ENDBRANCH   6  11
BRANCH   7  25
HETATM   25  C   UNL     1      -7.182   7.227  67.389  1.00  0.00    -0.090 C  
HETATM   26  O   UNL     1      -7.641   6.545  66.478  1.00  0.00    -0.087 OA 
BRANCH  25  27
HETATM   27  O   UNL     1      -6.279   6.753  68.295  1.00  0.00    -0.028 OA 
BRANCH  27  28
HETATM   28  C   UNL     1      -6.848   5.991  69.363  1.00  0.00    -0.062 C  
BRANCH  28  29
HETATM   29  O   UNL     1      -6.740   6.690  70.600  1.00  0.00    -0.054 OA 
BRANCH  29  30
HETATM   30  C   UNL     1      -7.908   7.077  71.173  1.00  0.00    -0.099 C  
HETATM   31  O   UNL     1      -8.024   8.018  71.946  1.00  0.00    -0.097 OA 
BRANCH  30  32
HETATM   32  C   UNL     1      -9.085   6.193  70.704  1.00  0.00    -0.150 C  
HETATM   33  N   UNL     1     -10.307   7.013  70.654  1.00  0.00    -0.206 N  
HETATM   34  C   UNL     1     -11.092   7.169  71.908  1.00  0.00    -0.236 C  
HETATM   35  S   UNL     1     -10.417   5.840  72.928  1.00  0.00    -0.229 S  
HETATM   36  C   UNL     1     -12.352   6.932  71.073  1.00  0.00    -0.401 C  
HETATM   37  O   UNL     1      -9.519   6.424  73.909  1.00  0.00    -0.141 OA 
HETATM   38  O   UNL     1     -11.476   4.943  73.345  1.00  0.00    -0.336 OA 
HETATM   39  C   UNL     1      -9.396   5.016  71.659  1.00  0.00    -0.148 C  
HETATM   40  C   UNL     1     -11.391   6.662  69.906  1.00  0.00    -0.364 C  
HETATM   41  C   UNL     1      -8.180   4.331  72.298  1.00  0.00    -0.103 C  
HETATM   42  C   UNL     1     -10.211   3.904  70.963  1.00  0.00     0.115 C  
HETATM   43  O   UNL     1     -11.447   6.130  68.825  1.00  0.00    -0.259 OA 
ENDBRANCH  30  32
ENDBRANCH  29  30
ENDBRANCH  28  29
ENDBRANCH  27  28
ENDBRANCH  25  27
ENDBRANCH   7  25
TORSDOF 9
ENDMDL
MODEL       90
REMARK 921   NORMALIZED FREE ENERGY PREDICTED BY IDOCK:   -6.18 KCAL/MOL
REMARK 922        TOTAL FREE ENERGY PREDICTED BY IDOCK:   -9.93 KCAL/MOL
REMARK 923 INTER-LIGAND FREE ENERGY PREDICTED BY IDOCK:   -9.41 KCAL/MOL
REMARK 924 INTRA-LIGAND FREE ENERGY PREDICTED BY IDOCK:   -0.52 KCAL/MOL
REMARK 927      BINDING AFFINITY PREDICTED BY RF-SCORE:    0.00 PKD
ROOT
HETATM    1  C   UNL     1      -9.951  12.865  64.907  1.00  0.00    -0.151 C  
HETATM    2  C   UNL     1     -10.840  12.632  66.146  1.00  0.00    -0.273 C  
HETATM    3  S   UNL     1     -10.674  14.138  67.217  1.00  0.00    -0.281 SA 
HETATM    4  C   UNL     1     -12.275  12.505  65.618  1.00  0.00    -0.403 C  
HETATM    5  C   UNL     1      -9.362  13.389  68.298  1.00  0.00    -0.205 C  
HETATM    6  C   UNL     1      -7.877  13.618  67.899  1.00  0.00    -0.159 C  
HETATM    7  C   UNL     1     -10.347  11.463  67.039  1.00  0.00    -0.223 C  
HETATM    8  C   UNL     1      -7.986  12.199  67.281  1.00  0.00    -0.176 C  
HETATM    9  O   UNL     1      -7.369  11.543  66.474  1.00  0.00    -0.108 OA 
HETATM   10  N   UNL     1      -9.224  12.001  67.819  1.00  0.00    -0.183 N  
ENDROOT
BRANCH   6  11
HETATM   11  N   UNL     1      -7.593  14.747  66.973  1.00  0.00    -0.299 N  
HETATM   12  C   UNL     1      -7.233  15.989  67.449  1.00  0.00    -0.187 C  
HETATM   13  O   UNL     1      -6.969  16.183  68.635  1.00  0.00    -0.129 OA 
HETATM   14  H   UNL     1      -7.665  14.599  65.966  1.00  0.00     0.000 HD 
BRANCH  12  15
HETATM   15  C   UNL     1      -7.223  17.121  66.397  1.00  0.00    -0.290 C  
HETATM   16  H2  UNL     1      -5.141  17.077  66.178  1.00  0.00     0.000 HD 
HETATM   17  N   UNL     1      -5.880  17.759  66.344  1.00  0.00    -0.176 NA 
HETATM   18  H1  UNL     1      -5.873  18.505  65.649  1.00  0.00     0.000 HD 
BRANCH  15  19
HETATM   19  C   UNL     1      -8.330  18.140  66.594  1.00  0.00    -0.283 A  
HETATM   20  C   UNL     1      -9.641  17.922  66.138  1.00  0.00    -0.192 A  
HETATM   21  C   UNL     1      -8.062  19.321  67.307  1.00  0.00    -0.291 A  
HETATM   22  C   UNL     1      -9.089  20.218  67.614  1.00  0.00    -0.423 A  
HETATM   23  C   UNL     1     -10.667  18.815  66.453  1.00  0.00    -0.324 A  
HETATM   24  C   UNL     1     -10.393  19.955  67.203  1.00  0.00    -0.581 A  
ENDBRANCH  15  19
ENDBRANCH  12  15
ENDBRANCH   6  11
BRANCH   7  25
HETATM   25  C   UNL     1     -11.375  10.946  68.070  1.00  0.00    -0.312 C  
HETATM   26  O   UNL     1     -12.382  11.546  68.434  1.00  0.00    -0.461 OA 
BRANCH  25  27
HETATM   27  O   UNL     1     -11.023   9.719  68.553  1.00  0.00    -0.215 OA 
BRANCH  27  28
HETATM   28  C   UNL     1     -11.120   9.587  69.974  1.00  0.00    -0.237 C  
BRANCH  28  29
HETATM   29  O   UNL     1     -11.344   8.229  70.344  1.00  0.00    -0.254 OA 
BRANCH  29  30
HETATM   30  C   UNL     1     -10.923   7.868  71.583  1.00  0.00    -0.238 C  
HETATM   31  O   UNL     1     -10.662   8.654  72.484  1.00  0.00    -0.307 OA 
BRANCH  30  32
HETATM   32  C   UNL     1     -10.840   6.332  71.724  1.00  0.00    -0.248 C  
HETATM   33  N   UNL     1     -10.693   5.991  73.149  1.00  0.00    -0.247 N  
HETATM   34  C   UNL     1      -9.322   5.990  73.725  1.00  0.00    -0.129 C  
HETATM   35  S   UNL     1      -8.301   5.972  72.237  1.00  0.00    -0.113 S  
HETATM   36  C   UNL     1      -9.686   4.677  74.422  1.00  0.00    -0.169 C  
HETATM   37  O   UNL     1      -7.762   7.306  72.031  1.00  0.00    -0.088 OA 
HETATM   38  O   UNL     1      -7.421   4.821  72.247  1.00  0.00    -0.079 OA 
HETATM   39  C   UNL     1      -9.621   5.708  71.004  1.00  0.00    -0.169 C  
HETATM   40  C   UNL     1     -11.005   4.759  73.640  1.00  0.00    -0.318 C  
HETATM   41  C   UNL     1      -9.243   6.337  69.656  1.00  0.00    -0.144 C  
HETATM   42  C   UNL     1      -9.810   4.198  70.746  1.00  0.00    -0.248 C  
HETATM   43  O   UNL     1     -11.893   4.003  73.331  1.00  0.00    -0.096 OA 
ENDBRANCH  30  32
ENDBRANCH  29  30
ENDBRANCH  28  29
ENDBRANCH  27  28
ENDBRANCH  25  27
ENDBRANCH   7  25
TORSDOF 9
ENDMDL
MODEL       91
REMARK 921   NORMALIZED FREE ENERGY PREDICTED BY IDOCK:   -6.16 KCAL/MOL
REMARK 922        TOTAL FREE ENERGY PREDICTED BY IDOCK:   -9.90 KCAL/MOL
REMARK 923 INTER-LIGAND FREE ENERGY PREDICTED BY IDOCK:   -9.16 KCAL/MOL
REMARK 924 INTRA-LIGAND FREE ENERGY PREDICTED BY IDOCK:   -0.74 KCAL/MOL
REMARK 927      BINDING AFFINITY PREDICTED BY RF-SCORE:    0.00 PKD
ROOT
HETATM    1  C   UNL     1     -10.864   8.320  66.978  1.00  0.00    -0.061 C  
HETATM    2  C   UNL     1      -9.721   9.337  66.783  1.00  0.00    -0.200 C  
HETATM    3  S   UNL     1      -8.526   9.076  68.179  1.00  0.00    -0.129 SA 
HETATM    4  C   UNL     1      -9.065   8.985  65.442  1.00  0.00    -0.250 C  
HETATM    5  C   UNL     1      -9.248  10.427  69.229  1.00  0.00    -0.184 C  
HETATM    6  C   UNL     1     -10.369  10.043  70.234  1.00  0.00    -0.242 C  
HETATM    7  C   UNL     1     -10.183  10.810  66.939  1.00  0.00    -0.227 C  
HETATM    8  C   UNL     1     -11.325  10.574  69.133  1.00  0.00    -0.257 C  
HETATM    9  O   UNL     1     -12.500  10.471  68.866  1.00  0.00    -0.194 OA 
HETATM   10  N   UNL     1     -10.286  11.048  68.385  1.00  0.00    -0.175 N  
ENDROOT
BRANCH   6  11
HETATM   11  N   UNL     1     -10.483   8.607  70.603  1.00  0.00    -0.198 N  
HETATM   12  C   UNL     1     -11.318   8.193  71.618  1.00  0.00    -0.264 C  
HETATM   13  O   UNL     1     -12.126   8.953  72.151  1.00  0.00    -0.358 OA 
HETATM   14  H   UNL     1      -9.933   7.914  70.094  1.00  0.00     0.000 HD 
BRANCH  12  15
HETATM   15  C   UNL     1     -11.141   6.722  72.059  1.00  0.00    -0.250 C  
HETATM   16  H2  UNL     1     -11.589   7.131  74.063  1.00  0.00     0.000 HD 
HETATM   17  N   UNL     1     -10.870   6.654  73.520  1.00  0.00    -0.481 NA 
HETATM   18  H1  UNL     1     -10.753   5.684  73.811  1.00  0.00     0.000 HD 
BRANCH  15  19
HETATM   19  C   UNL     1     -10.098   5.971  71.251  1.00  0.00    -0.237 A  
HETATM   20  C   UNL     1     -10.427   5.238  70.098  1.00  0.00    -0.338 A  
HETATM   21  C   UNL     1      -8.746   6.050  71.626  1.00  0.00    -0.135 A  
HETATM   22  C   UNL     1      -7.751   5.474  70.832  1.00  0.00    -0.092 A  
HETATM   23  C   UNL     1      -9.431   4.672  69.301  1.00  0.00    -0.231 A  
HETATM   24  C   UNL     1      -8.092   4.803  69.660  1.00  0.00    -0.065 A  
ENDBRANCH  15  19
ENDBRANCH  12  15
ENDBRANCH   6  11
BRANCH   7  25
HETATM   25  C   UNL     1      -9.194  11.869  66.401  1.00  0.00    -0.215 C  
HETATM   26  O   UNL     1      -8.171  12.240  66.968  1.00  0.00    -0.177 OA 
BRANCH  25  27
HETATM   27  O   UNL     1      -9.603  12.368  65.199  1.00  0.00    -0.114 OA 
BRANCH  27  28
HETATM   28  C   UNL     1     -10.867  13.038  65.228  1.00  0.00    -0.291 C  
BRANCH  28  29
HETATM   29  O   UNL     1     -10.854  14.106  66.171  1.00  0.00    -0.291 OA 
BRANCH  29  30
HETATM   30  C   UNL     1     -10.298  15.270  65.750  1.00  0.00    -0.344 C  
HETATM   31  O   UNL     1      -9.755  15.427  64.664  1.00  0.00     0.050 OA 
BRANCH  30  32
HETATM   32  C   UNL     1     -10.459  16.386  66.805  1.00  0.00    -0.273 C  
HETATM   33  N   UNL     1      -9.875  17.630  66.278  1.00  0.00    -0.304 N  
HETATM   34  C   UNL     1      -8.414  17.845  66.462  1.00  0.00    -0.258 C  
HETATM   35  S   UNL     1      -8.023  16.617  67.727  1.00  0.00    -0.175 S  
HETATM   36  C   UNL     1      -8.742  19.284  66.865  1.00  0.00    -0.323 C  
HETATM   37  O   UNL     1      -7.355  15.496  67.089  1.00  0.00    -0.208 OA 
HETATM   38  O   UNL     1      -7.432  17.261  68.883  1.00  0.00    -0.250 OA 
HETATM   39  C   UNL     1      -9.724  16.094  68.134  1.00  0.00    -0.222 C  
HETATM   40  C   UNL     1     -10.214  18.858  66.762  1.00  0.00    -0.394 C  
HETATM   41  C   UNL     1      -9.747  14.634  68.608  1.00  0.00    -0.220 C  
HETATM   42  C   UNL     1     -10.274  16.943  69.301  1.00  0.00    -0.262 C  
HETATM   43  O   UNL     1     -11.279  19.271  67.151  1.00  0.00    -0.324 OA 
ENDBRANCH  30  32
ENDBRANCH  29  30
ENDBRANCH  28  29
ENDBRANCH  27  28
ENDBRANCH  25  27
ENDBRANCH   7  25
TORSDOF 9
ENDMDL
MODEL       92
REMARK 921   NORMALIZED FREE ENERGY PREDICTED BY IDOCK:   -6.15 KCAL/MOL
REMARK 922        TOTAL FREE ENERGY PREDICTED BY IDOCK:   -9.90 KCAL/MOL
REMARK 923 INTER-LIGAND FREE ENERGY PREDICTED BY IDOCK:  -10.03 KCAL/MOL
REMARK 924 INTRA-LIGAND FREE ENERGY PREDICTED BY IDOCK:    0.13 KCAL/MOL
REMARK 927      BINDING AFFINITY PREDICTED BY RF-SCORE:    0.00 PKD
ROOT
HETATM    1  C   UNL     1     -10.307   9.290  66.014  1.00  0.00    -0.009 C  
HETATM    2  C   UNL     1      -9.908  10.671  65.456  1.00  0.00    -0.258 C  
HETATM    3  S   UNL     1      -8.443  11.244  66.440  1.00  0.00    -0.150 SA 
HETATM    4  C   UNL     1      -9.513  10.438  63.992  1.00  0.00    -0.351 C  
HETATM    5  C   UNL     1      -9.459  12.263  67.614  1.00  0.00    -0.188 C  
HETATM    6  C   UNL     1      -9.958  11.582  68.920  1.00  0.00    -0.101 C  
HETATM    7  C   UNL     1     -10.987  11.760  65.696  1.00  0.00    -0.295 C  
HETATM    8  C   UNL     1     -11.285  11.405  68.136  1.00  0.00    -0.278 C  
HETATM    9  O   UNL     1     -12.279  10.721  68.235  1.00  0.00    -0.449 OA 
HETATM   10  N   UNL     1     -10.838  12.170  67.099  1.00  0.00    -0.235 N  
ENDROOT
BRANCH   6  11
HETATM   11  N   UNL     1      -9.249  10.347  69.350  1.00  0.00    -0.324 N  
HETATM   12  C   UNL     1      -9.658   9.638  70.459  1.00  0.00    -0.199 C  
HETATM   13  O   UNL     1     -10.712   9.888  71.042  1.00  0.00    -0.309 OA 
HETATM   14  H   UNL     1      -8.445  10.019  68.815  1.00  0.00     0.000 HD 
BRANCH  12  15
HETATM   15  C   UNL     1      -8.683   8.537  70.933  1.00  0.00    -0.166 C  
HETATM   16  H2  UNL     1      -7.513   8.642  69.200  1.00  0.00     0.000 HD 
HETATM   17  N   UNL     1      -7.982   7.936  69.767  1.00  0.00    -0.111 NA 
HETATM   18  H1  UNL     1      -7.338   7.210  70.080  1.00  0.00     0.000 HD 
BRANCH  15  19
HETATM   19  C   UNL     1      -9.340   7.483  71.807  1.00  0.00    -0.168 A  
HETATM   20  C   UNL     1      -9.399   7.599  73.206  1.00  0.00    -0.299 A  
HETATM   21  C   UNL     1      -9.964   6.378  71.204  1.00  0.00    -0.203 A  
HETATM   22  C   UNL     1     -10.685   5.459  71.971  1.00  0.00    -0.281 A  
HETATM   23  C   UNL     1     -10.127   6.685  73.970  1.00  0.00    -0.373 A  
HETATM   24  C   UNL     1     -10.782   5.624  73.351  1.00  0.00    -0.313 A  
ENDBRANCH  15  19
ENDBRANCH  12  15
ENDBRANCH   6  11
BRANCH   7  25
HETATM   25  C   UNL     1     -10.820  13.046  64.854  1.00  0.00    -0.323 C  
HETATM   26  O   UNL     1     -11.206  13.196  63.699  1.00  0.00    -0.355 OA 
BRANCH  25  27
HETATM   27  O   UNL     1     -10.165  14.018  65.553  1.00  0.00    -0.317 OA 
BRANCH  27  28
HETATM   28  C   UNL     1     -10.053  15.271  64.873  1.00  0.00    -0.079 C  
BRANCH  28  29
HETATM   29  O   UNL     1     -10.952  16.229  65.423  1.00  0.00    -0.291 OA 
BRANCH  29  30
HETATM   30  C   UNL     1     -10.945  16.351  66.775  1.00  0.00     0.011 C  
HETATM   31  O   UNL     1     -11.227  15.450  67.554  1.00  0.00    -0.327 OA 
BRANCH  30  32
HETATM   32  C   UNL     1     -10.508  17.766  67.211  1.00  0.00    -0.353 C  
HETATM   33  N   UNL     1      -9.502  18.270  66.262  1.00  0.00    -0.272 N  
HETATM   34  C   UNL     1      -8.080  17.899  66.494  1.00  0.00    -0.272 C  
HETATM   35  S   UNL     1      -8.130  17.317  68.202  1.00  0.00    -0.237 S  
HETATM   36  C   UNL     1      -7.718  19.354  66.188  1.00  0.00    -0.314 C  
HETATM   37  O   UNL     1      -8.073  15.866  68.197  1.00  0.00    -0.141 OA 
HETATM   38  O   UNL     1      -7.209  18.083  69.018  1.00  0.00    -0.264 OA 
HETATM   39  C   UNL     1      -9.841  17.807  68.607  1.00  0.00    -0.359 C  
HETATM   40  C   UNL     1      -9.233  19.598  66.120  1.00  0.00    -0.340 C  
HETATM   41  C   UNL     1     -10.441  16.871  69.665  1.00  0.00    -0.158 C  
HETATM   42  C   UNL     1      -9.856  19.225  69.217  1.00  0.00    -0.302 C  
HETATM   43  O   UNL     1      -9.974  20.549  66.169  1.00  0.00    -0.274 OA 
ENDBRANCH  30  32
ENDBRANCH  29  30
ENDBRANCH  28  29
ENDBRANCH  27  28
ENDBRANCH  25  27
ENDBRANCH   7  25
TORSDOF 9
ENDMDL
MODEL       93
REMARK 921   NORMALIZED FREE ENERGY PREDICTED BY IDOCK:   -6.15 KCAL/MOL
REMARK 922        TOTAL FREE ENERGY PREDICTED BY IDOCK:   -9.89 KCAL/MOL
REMARK 923 INTER-LIGAND FREE ENERGY PREDICTED BY IDOCK:   -9.34 KCAL/MOL
REMARK 924 INTRA-LIGAND FREE ENERGY PREDICTED BY IDOCK:   -0.56 KCAL/MOL
REMARK 927      BINDING AFFINITY PREDICTED BY RF-SCORE:    0.00 PKD
ROOT
HETATM    1  C   UNL     1     -11.766  11.859  65.828  1.00  0.00    -0.210 C  
HETATM    2  C   UNL     1     -10.367  12.501  65.719  1.00  0.00    -0.265 C  
HETATM    3  S   UNL     1      -9.140  11.202  66.218  1.00  0.00    -0.199 SA 
HETATM    4  C   UNL     1     -10.186  12.872  64.242  1.00  0.00    -0.337 C  
HETATM    5  C   UNL     1      -9.026  11.792  67.975  1.00  0.00    -0.176 C  
HETATM    6  C   UNL     1      -9.990  11.155  69.017  1.00  0.00    -0.137 C  
HETATM    7  C   UNL     1     -10.146  13.654  66.734  1.00  0.00    -0.269 C  
HETATM    8  C   UNL     1     -10.836  12.434  68.784  1.00  0.00    -0.226 C  
HETATM    9  O   UNL     1     -11.978  12.780  68.986  1.00  0.00    -0.292 OA 
HETATM   10  N   UNL     1      -9.861  13.007  68.021  1.00  0.00    -0.218 N  
ENDROOT
BRANCH   6  11
HETATM   11  N   UNL     1     -10.608   9.852  68.656  1.00  0.00    -0.209 N  
HETATM   12  C   UNL     1     -10.379   8.719  69.408  1.00  0.00    -0.214 C  
HETATM   13  O   UNL     1      -9.798   8.761  70.491  1.00  0.00    -0.172 OA 
HETATM   14  H   UNL     1     -11.214   9.794  67.837  1.00  0.00     0.000 HD 
BRANCH  12  15
HETATM   15  C   UNL     1     -10.870   7.398  68.774  1.00  0.00    -0.043 C  
HETATM   16  H2  UNL     1     -12.582   7.305  69.976  1.00  0.00     0.000 HD 
HETATM   17  N   UNL     1     -11.807   6.704  69.698  1.00  0.00    -0.646 NA 
HETATM   18  H1  UNL     1     -12.131   5.832  69.280  1.00  0.00     0.000 HD 
BRANCH  15  19
HETATM   19  C   UNL     1      -9.741   6.489  68.321  1.00  0.00    -0.131 A  
HETATM   20  C   UNL     1      -9.834   5.088  68.384  1.00  0.00    -0.209 A  
HETATM   21  C   UNL     1      -8.581   7.054  67.764  1.00  0.00    -0.122 A  
HETATM   22  C   UNL     1      -7.581   6.242  67.223  1.00  0.00    -0.093 A  
HETATM   23  C   UNL     1      -8.838   4.279  67.835  1.00  0.00    -0.128 A  
HETATM   24  C   UNL     1      -7.719   4.856  67.242  1.00  0.00    -0.091 A  
ENDBRANCH  15  19
ENDBRANCH  12  15
ENDBRANCH   6  11
BRANCH   7  25
HETATM   25  C   UNL     1      -8.934  14.566  66.436  1.00  0.00    -0.118 C  
HETATM   26  O   UNL     1      -7.829  14.476  66.963  1.00  0.00    -0.151 OA 
BRANCH  25  27
HETATM   27  O   UNL     1      -9.242  15.516  65.506  1.00  0.00    -0.199 OA 
BRANCH  27  28
HETATM   28  C   UNL     1     -10.306  16.396  65.880  1.00  0.00    -0.362 C  
BRANCH  28  29
HETATM   29  O   UNL     1     -10.014  17.737  65.501  1.00  0.00    -0.515 OA 
BRANCH  29  30
HETATM   30  C   UNL     1      -9.968  18.648  66.507  1.00  0.00    -0.380 C  
HETATM   31  O   UNL     1     -10.868  18.838  67.313  1.00  0.00    -0.443 OA 
BRANCH  30  32
HETATM   32  C   UNL     1      -8.619  19.399  66.524  1.00  0.00    -0.343 C  
HETATM   33  N   UNL     1      -7.616  18.599  65.802  1.00  0.00    -0.137 N  
HETATM   34  C   UNL     1      -6.892  17.543  66.560  1.00  0.00    -0.247 C  
HETATM   35  S   UNL     1      -7.249  18.012  68.267  1.00  0.00    -0.257 S  
HETATM   36  C   UNL     1      -5.608  18.029  65.883  1.00  0.00    -0.241 C  
HETATM   37  O   UNL     1      -8.259  17.109  68.791  1.00  0.00    -0.259 OA 
HETATM   38  O   UNL     1      -6.014  18.230  68.994  1.00  0.00    -0.203 OA 
HETATM   39  C   UNL     1      -8.050  19.620  67.946  1.00  0.00    -0.304 C  
HETATM   40  C   UNL     1      -6.479  19.145  65.288  1.00  0.00    -0.270 C  
HETATM   41  C   UNL     1      -9.080  19.944  69.038  1.00  0.00    -0.027 C  
HETATM   42  C   UNL     1      -7.001  20.751  67.983  1.00  0.00    -0.236 C  
HETATM   43  O   UNL     1      -6.299  20.223  64.776  1.00  0.00    -0.261 OA 
ENDBRANCH  30  32
ENDBRANCH  29  30
ENDBRANCH  28  29
ENDBRANCH  27  28
ENDBRANCH  25  27
ENDBRANCH   7  25
TORSDOF 9
ENDMDL
MODEL       94
REMARK 921   NORMALIZED FREE ENERGY PREDICTED BY IDOCK:   -6.15 KCAL/MOL
REMARK 922        TOTAL FREE ENERGY PREDICTED BY IDOCK:   -9.89 KCAL/MOL
REMARK 923 INTER-LIGAND FREE ENERGY PREDICTED BY IDOCK:   -8.67 KCAL/MOL
REMARK 924 INTRA-LIGAND FREE ENERGY PREDICTED BY IDOCK:   -1.22 KCAL/MOL
REMARK 927      BINDING AFFINITY PREDICTED BY RF-SCORE:    0.00 PKD
ROOT
HETATM    1  C   UNL     1      -8.592  10.784  65.848  1.00  0.00    -0.182 C  
HETATM    2  C   UNL     1      -8.863  10.489  67.339  1.00  0.00    -0.132 C  
HETATM    3  S   UNL     1      -9.744  11.970  68.026  1.00  0.00    -0.202 SA 
HETATM    4  C   UNL     1      -9.778   9.259  67.367  1.00  0.00    -0.208 C  
HETATM    5  C   UNL     1      -8.197  12.750  68.694  1.00  0.00     0.012 C  
HETATM    6  C   UNL     1      -7.431  13.744  67.775  1.00  0.00    -0.163 C  
HETATM    7  C   UNL     1      -7.566  10.382  68.184  1.00  0.00    -0.091 C  
HETATM    8  C   UNL     1      -6.523  12.522  67.472  1.00  0.00    -0.153 C  
HETATM    9  O   UNL     1      -5.723  12.213  66.619  1.00  0.00    -0.288 OA 
HETATM   10  N   UNL     1      -7.132  11.764  68.430  1.00  0.00    -0.078 N  
ENDROOT
BRANCH   6  11
HETATM   11  N   UNL     1      -8.188  14.331  66.637  1.00  0.00    -0.338 N  
HETATM   12  C   UNL     1      -8.934  15.480  66.792  1.00  0.00    -0.266 C  
HETATM   13  O   UNL     1      -8.880  16.161  67.815  1.00  0.00    -0.181 OA 
HETATM   14  H   UNL     1      -8.154  13.875  65.725  1.00  0.00     0.000 HD 
BRANCH  12  15
HETATM   15  C   UNL     1      -9.865  15.825  65.608  1.00  0.00    -0.322 C  
HETATM   16  H2  UNL     1      -9.799  17.884  65.985  1.00  0.00     0.000 HD 
HETATM   17  N   UNL     1     -10.494  17.156  65.822  1.00  0.00    -0.515 NA 
HETATM   18  H1  UNL     1     -11.108  17.384  65.040  1.00  0.00     0.000 HD 
BRANCH  15  19
HETATM   19  C   UNL     1     -10.895  14.749  65.315  1.00  0.00    -0.395 A  
HETATM   20  C   UNL     1     -10.781  13.879  64.217  1.00  0.00    -0.146 A  
HETATM   21  C   UNL     1     -11.975  14.569  66.197  1.00  0.00    -0.323 A  
HETATM   22  C   UNL     1     -12.867  13.508  66.024  1.00  0.00    -0.169 A  
HETATM   23  C   UNL     1     -11.668  12.815  64.052  1.00  0.00    -0.494 A  
HETATM   24  C   UNL     1     -12.702  12.621  64.963  1.00  0.00    -0.403 A  
ENDBRANCH  15  19
ENDBRANCH  12  15
ENDBRANCH   6  11
BRANCH   7  25
HETATM   25  C   UNL     1      -7.741   9.735  69.576  1.00  0.00    -0.120 C  
HETATM   26  O   UNL     1      -8.623  10.012  70.383  1.00  0.00    -0.070 OA 
BRANCH  25  27
HETATM   27  O   UNL     1      -6.773   8.806  69.820  1.00  0.00    -0.044 OA 
BRANCH  27  28
HETATM   28  C   UNL     1      -6.685   8.377  71.182  1.00  0.00    -0.052 C  
BRANCH  28  29
HETATM   29  O   UNL     1      -7.128   7.031  71.321  1.00  0.00    -0.071 OA 
BRANCH  29  30
HETATM   30  C   UNL     1      -7.907   6.765  72.401  1.00  0.00    -0.094 C  
HETATM   31  O   UNL     1      -7.746   7.256  73.510  1.00  0.00    -0.090 OA 
BRANCH  30  32
HETATM   32  C   UNL     1      -9.044   5.781  72.047  1.00  0.00    -0.137 C  
HETATM   33  N   UNL     1      -9.409   5.961  70.632  1.00  0.00    -0.158 N  
HETATM   34  C   UNL     1     -10.397   7.023  70.300  1.00  0.00    -0.203 C  
HETATM   35  S   UNL     1     -11.116   7.371  71.919  1.00  0.00    -0.250 S  
HETATM   36  C   UNL     1     -11.067   6.015  69.363  1.00  0.00    -0.445 C  
HETATM   37  O   UNL     1     -10.563   8.622  72.409  1.00  0.00    -0.331 OA 
HETATM   38  O   UNL     1     -12.550   7.168  71.884  1.00  0.00    -0.323 OA 
HETATM   39  C   UNL     1     -10.339   6.013  72.860  1.00  0.00    -0.197 C  
HETATM   40  C   UNL     1     -10.057   5.000  69.917  1.00  0.00    -0.274 C  
HETATM   41  C   UNL     1     -10.148   6.407  74.330  1.00  0.00    -0.367 C  
HETATM   42  C   UNL     1     -11.258   4.772  72.854  1.00  0.00    -0.286 C  
HETATM   43  O   UNL     1      -9.948   3.798  69.957  1.00  0.00    -0.125 OA 
ENDBRANCH  30  32
ENDBRANCH  29  30
ENDBRANCH  28  29
ENDBRANCH  27  28
ENDBRANCH  25  27
ENDBRANCH   7  25
TORSDOF 9
ENDMDL
MODEL       95
REMARK 921   NORMALIZED FREE ENERGY PREDICTED BY IDOCK:   -6.13 KCAL/MOL
REMARK 922        TOTAL FREE ENERGY PREDICTED BY IDOCK:   -9.87 KCAL/MOL
REMARK 923 INTER-LIGAND FREE ENERGY PREDICTED BY IDOCK:   -8.83 KCAL/MOL
REMARK 924 INTRA-LIGAND FREE ENERGY PREDICTED BY IDOCK:   -1.04 KCAL/MOL
REMARK 927      BINDING AFFINITY PREDICTED BY RF-SCORE:    0.00 PKD
ROOT
HETATM    1  C   UNL     1      -8.859  15.371  69.529  1.00  0.00    -0.217 C  
HETATM    2  C   UNL     1      -8.443  14.315  68.484  1.00  0.00    -0.164 C  
HETATM    3  S   UNL     1      -8.375  15.181  66.845  1.00  0.00    -0.194 SA 
HETATM    4  C   UNL     1      -7.045  13.839  68.898  1.00  0.00    -0.107 C  
HETATM    5  C   UNL     1     -10.089  14.667  66.350  1.00  0.00    -0.278 C  
HETATM    6  C   UNL     1     -11.264  15.622  66.705  1.00  0.00    -0.083 C  
HETATM    7  C   UNL     1      -9.503  13.199  68.291  1.00  0.00    -0.210 C  
HETATM    8  C   UNL     1     -11.471  14.667  67.911  1.00  0.00    -0.329 C  
HETATM    9  O   UNL     1     -12.041  14.710  68.977  1.00  0.00    -0.295 OA 
HETATM   10  N   UNL     1     -10.547  13.782  67.437  1.00  0.00    -0.259 N  
ENDROOT
BRANCH   6  11
HETATM   11  N   UNL     1     -10.916  17.037  67.007  1.00  0.00    -0.026 N  
HETATM   12  C   UNL     1     -10.684  17.946  65.997  1.00  0.00    -0.127 C  
HETATM   13  O   UNL     1     -10.914  17.685  64.817  1.00  0.00    -0.917 OA 
HETATM   14  H   UNL     1     -10.847  17.340  67.978  1.00  0.00     0.000 HD 
BRANCH  12  15
HETATM   15  C   UNL     1     -10.085  19.296  66.451  1.00  0.00    -0.429 C  
HETATM   16  H2  UNL     1     -11.068  20.385  64.957  1.00  0.00     0.000 HD 
HETATM   17  N   UNL     1     -10.127  20.277  65.334  1.00  0.00    -0.366 NA 
HETATM   18  H1  UNL     1      -9.731  21.168  65.634  1.00  0.00     0.000 HD 
BRANCH  15  19
HETATM   19  C   UNL     1      -8.694  19.170  67.046  1.00  0.00    -0.313 A  
HETATM   20  C   UNL     1      -8.459  19.249  68.430  1.00  0.00    -0.386 A  
HETATM   21  C   UNL     1      -7.602  18.908  66.200  1.00  0.00    -0.286 A  
HETATM   22  C   UNL     1      -6.333  18.662  66.730  1.00  0.00    -0.201 A  
HETATM   23  C   UNL     1      -7.193  18.994  68.957  1.00  0.00    -0.351 A  
HETATM   24  C   UNL     1      -6.133  18.686  68.108  1.00  0.00    -0.202 A  
ENDBRANCH  15  19
ENDBRANCH  12  15
ENDBRANCH   6  11
BRANCH   7  25
HETATM   25  C   UNL     1      -9.001  11.938  67.552  1.00  0.00    -0.171 C  
HETATM   26  O   UNL     1      -8.589  11.907  66.396  1.00  0.00    -0.165 OA 
BRANCH  25  27
HETATM   27  O   UNL     1      -9.080  10.831  68.344  1.00  0.00    -0.149 OA 
BRANCH  27  28
HETATM   28  C   UNL     1      -7.820  10.237  68.670  1.00  0.00    -0.101 C  
BRANCH  28  29
HETATM   29  O   UNL     1      -7.678   8.968  68.037  1.00  0.00    -0.095 OA 
BRANCH  29  30
HETATM   30  C   UNL     1      -7.787   7.881  68.844  1.00  0.00    -0.117 C  
HETATM   31  O   UNL     1      -6.869   7.410  69.501  1.00  0.00    -0.047 OA 
BRANCH  30  32
HETATM   32  C   UNL     1      -9.229   7.328  68.851  1.00  0.00    -0.141 C  
HETATM   33  N   UNL     1      -9.372   6.382  69.969  1.00  0.00    -0.156 N  
HETATM   34  C   UNL     1      -8.968   4.968  69.740  1.00  0.00    -0.106 C  
HETATM   35  S   UNL     1      -8.883   4.902  67.938  1.00  0.00    -0.105 S  
HETATM   36  C   UNL     1     -10.250   4.552  70.464  1.00  0.00    -0.152 C  
HETATM   37  O   UNL     1      -7.485   4.929  67.541  1.00  0.00    -0.077 OA 
HETATM   38  O   UNL     1      -9.768   3.871  67.433  1.00  0.00    -0.198 OA 
HETATM   39  C   UNL     1      -9.598   6.541  67.571  1.00  0.00    -0.124 C  
HETATM   40  C   UNL     1     -10.584   6.050  70.495  1.00  0.00    -0.266 C  
HETATM   41  C   UNL     1      -9.037   7.099  66.255  1.00  0.00    -0.182 C  
HETATM   42  C   UNL     1     -11.125   6.422  67.382  1.00  0.00    -0.412 C  
HETATM   43  O   UNL     1     -11.568   6.729  70.663  1.00  0.00    -0.326 OA 
ENDBRANCH  30  32
ENDBRANCH  29  30
ENDBRANCH  28  29
ENDBRANCH  27  28
ENDBRANCH  25  27
ENDBRANCH   7  25
TORSDOF 9
ENDMDL
MODEL       96
REMARK 921   NORMALIZED FREE ENERGY PREDICTED BY IDOCK:   -6.13 KCAL/MOL
REMARK 922        TOTAL FREE ENERGY PREDICTED BY IDOCK:   -9.86 KCAL/MOL
REMARK 923 INTER-LIGAND FREE ENERGY PREDICTED BY IDOCK:   -9.43 KCAL/MOL
REMARK 924 INTRA-LIGAND FREE ENERGY PREDICTED BY IDOCK:   -0.43 KCAL/MOL
REMARK 927      BINDING AFFINITY PREDICTED BY RF-SCORE:    0.00 PKD
ROOT
HETATM    1  C   UNL     1     -11.125   6.136  69.917  1.00  0.00    -0.481 C  
HETATM    2  C   UNL     1     -10.172   6.653  68.819  1.00  0.00    -0.171 C  
HETATM    3  S   UNL     1      -8.486   6.771  69.583  1.00  0.00    -0.133 SA 
HETATM    4  C   UNL     1     -10.187   5.593  67.712  1.00  0.00    -0.238 C  
HETATM    5  C   UNL     1      -8.644   8.578  69.982  1.00  0.00    -0.134 C  
HETATM    6  C   UNL     1      -9.207   8.964  71.380  1.00  0.00    -0.258 C  
HETATM    7  C   UNL     1     -10.495   8.102  68.366  1.00  0.00    -0.161 C  
HETATM    8  C   UNL     1     -10.545   9.154  70.616  1.00  0.00    -0.246 C  
HETATM    9  O   UNL     1     -11.718   9.225  70.904  1.00  0.00    -0.279 OA 
HETATM   10  N   UNL     1      -9.940   8.980  69.405  1.00  0.00    -0.186 N  
ENDROOT
BRANCH   6  11
HETATM   11  N   UNL     1      -9.166   7.919  72.437  1.00  0.00    -0.162 N  
HETATM   12  C   UNL     1      -8.241   7.971  73.458  1.00  0.00    -0.214 C  
HETATM   13  O   UNL     1      -7.525   8.955  73.641  1.00  0.00    -0.384 OA 
HETATM   14  H   UNL     1      -9.835   7.149  72.406  1.00  0.00     0.000 HD 
BRANCH  12  15
HETATM   15  C   UNL     1      -8.147   6.697  74.327  1.00  0.00    -0.125 C  
HETATM   16  H2  UNL     1      -6.163   7.066  74.886  1.00  0.00     0.000 HD 
HETATM   17  N   UNL     1      -6.724   6.303  74.507  1.00  0.00    -0.082 NA 
HETATM   18  H1  UNL     1      -6.662   5.463  75.080  1.00  0.00     0.000 HD 
BRANCH  15  19
HETATM   19  C   UNL     1      -8.994   5.548  73.809  1.00  0.00    -0.124 A  
HETATM   20  C   UNL     1      -8.438   4.457  73.120  1.00  0.00    -0.094 A  
HETATM   21  C   UNL     1     -10.375   5.536  74.070  1.00  0.00    -0.297 A  
HETATM   22  C   UNL     1     -11.158   4.434  73.717  1.00  0.00    -0.323 A  
HETATM   23  C   UNL     1      -9.220   3.354  72.776  1.00  0.00    -0.124 A  
HETATM   24  C   UNL     1     -10.577   3.336  73.088  1.00  0.00    -0.260 A  
ENDBRANCH  15  19
ENDBRANCH  12  15
ENDBRANCH   6  11
BRANCH   7  25
HETATM   25  C   UNL     1      -9.833   8.538  67.039  1.00  0.00    -0.224 C  
HETATM   26  O   UNL     1      -9.253   7.793  66.256  1.00  0.00    -0.178 OA 
BRANCH  25  27
HETATM   27  O   UNL     1      -9.958   9.881  66.837  1.00  0.00    -0.191 OA 
BRANCH  27  28
HETATM   28  C   UNL     1      -9.049  10.428  65.878  1.00  0.00    -0.165 C  
BRANCH  28  29
HETATM   29  O   UNL     1      -9.206  11.840  65.777  1.00  0.00    -0.216 OA 
BRANCH  29  30
HETATM   30  C   UNL     1      -9.362  12.510  66.948  1.00  0.00    -0.219 C  
HETATM   31  O   UNL     1      -8.585  12.450  67.891  1.00  0.00    -0.153 OA 
BRANCH  30  32
HETATM   32  C   UNL     1     -10.635  13.385  66.931  1.00  0.00    -0.273 C  
HETATM   33  N   UNL     1     -10.974  13.708  65.535  1.00  0.00    -0.289 N  
HETATM   34  C   UNL     1     -10.311  14.886  64.914  1.00  0.00    -0.313 C  
HETATM   35  S   UNL     1      -9.663  15.746  66.363  1.00  0.00    -0.308 S  
HETATM   36  C   UNL     1     -11.677  15.271  64.340  1.00  0.00    -0.289 C  
HETATM   37  O   UNL     1      -8.232  15.506  66.440  1.00  0.00    -0.214 OA 
HETATM   38  O   UNL     1     -10.183  17.097  66.417  1.00  0.00    -0.311 OA 
HETATM   39  C   UNL     1     -10.467  14.740  67.658  1.00  0.00    -0.254 C  
HETATM   40  C   UNL     1     -12.225  14.092  65.158  1.00  0.00    -0.433 C  
HETATM   41  C   UNL     1      -9.616  14.715  68.935  1.00  0.00    -0.184 C  
HETATM   42  C   UNL     1     -11.824  15.364  68.046  1.00  0.00    -0.128 C  
HETATM   43  O   UNL     1     -13.303  13.725  65.559  1.00  0.00    -0.613 OA 
ENDBRANCH  30  32
ENDBRANCH  29  30
ENDBRANCH  28  29
ENDBRANCH  27  28
ENDBRANCH  25  27
ENDBRANCH   7  25
TORSDOF 9
ENDMDL
MODEL       97
REMARK 921   NORMALIZED FREE ENERGY PREDICTED BY IDOCK:   -6.13 KCAL/MOL
REMARK 922        TOTAL FREE ENERGY PREDICTED BY IDOCK:   -9.86 KCAL/MOL
REMARK 923 INTER-LIGAND FREE ENERGY PREDICTED BY IDOCK:   -9.14 KCAL/MOL
REMARK 924 INTRA-LIGAND FREE ENERGY PREDICTED BY IDOCK:   -0.72 KCAL/MOL
REMARK 927      BINDING AFFINITY PREDICTED BY RF-SCORE:    0.00 PKD
ROOT
HETATM    1  C   UNL     1      -6.802  10.683  65.755  1.00  0.00    -0.098 C  
HETATM    2  C   UNL     1      -7.372   9.338  65.260  1.00  0.00    -0.094 C  
HETATM    3  S   UNL     1      -8.998   9.711  64.448  1.00  0.00    -0.218 SA 
HETATM    4  C   UNL     1      -6.367   8.806  64.230  1.00  0.00    -0.071 C  
HETATM    5  C   UNL     1      -9.998   9.319  65.963  1.00  0.00    -0.255 C  
HETATM    6  C   UNL     1     -10.320  10.484  66.940  1.00  0.00    -0.239 C  
HETATM    7  C   UNL     1      -7.728   8.365  66.415  1.00  0.00    -0.094 C  
HETATM    8  C   UNL     1      -9.120   9.928  67.753  1.00  0.00    -0.131 C  
HETATM    9  O   UNL     1      -8.387  10.334  68.625  1.00  0.00    -0.109 OA 
HETATM   10  N   UNL     1      -9.015   8.831  66.948  1.00  0.00    -0.129 N  
ENDROOT
BRANCH   6  11
HETATM   11  N   UNL     1     -10.199  11.867  66.405  1.00  0.00    -0.205 N  
HETATM   12  C   UNL     1     -11.307  12.674  66.255  1.00  0.00    -0.329 C  
HETATM   13  O   UNL     1     -12.409  12.362  66.703  1.00  0.00    -0.477 OA 
HETATM   14  H   UNL     1      -9.280  12.225  66.145  1.00  0.00     0.000 HD 
BRANCH  12  15
HETATM   15  C   UNL     1     -11.070  13.974  65.454  1.00  0.00    -0.318 C  
HETATM   16  H2  UNL     1     -10.174  12.977  63.846  1.00  0.00     0.000 HD 
HETATM   17  N   UNL     1      -9.986  13.771  64.456  1.00  0.00    -0.694 NA 
HETATM   18  H1  UNL     1      -9.830  14.629  63.928  1.00  0.00     0.000 HD 
BRANCH  15  19
HETATM   19  C   UNL     1     -10.816  15.187  66.332  1.00  0.00    -0.326 A  
HETATM   20  C   UNL     1     -10.396  16.420  65.805  1.00  0.00    -0.388 A  
HETATM   21  C   UNL     1     -11.061  15.102  67.713  1.00  0.00    -0.313 A  
HETATM   22  C   UNL     1     -10.957  16.234  68.526  1.00  0.00    -0.345 A  
HETATM   23  C   UNL     1     -10.302  17.551  66.617  1.00  0.00    -0.319 A  
HETATM   24  C   UNL     1     -10.597  17.461  67.975  1.00  0.00    -0.389 A  
ENDBRANCH  15  19
ENDBRANCH  12  15
ENDBRANCH   6  11
BRANCH   7  25
HETATM   25  C   UNL     1      -7.948   6.895  65.990  1.00  0.00    -0.109 C  
HETATM   26  O   UNL     1      -8.356   6.525  64.893  1.00  0.00    -0.126 OA 
BRANCH  25  27
HETATM   27  O   UNL     1      -7.642   6.033  67.002  1.00  0.00    -0.093 OA 
BRANCH  27  28
HETATM   28  C   UNL     1      -8.750   5.275  67.497  1.00  0.00    -0.106 C  
BRANCH  28  29
HETATM   29  O   UNL     1      -9.166   5.757  68.772  1.00  0.00    -0.117 OA 
BRANCH  29  30
HETATM   30  C   UNL     1      -9.773   4.854  69.584  1.00  0.00    -0.196 C  
HETATM   31  O   UNL     1      -9.681   3.640  69.464  1.00  0.00    -0.177 OA 
BRANCH  30  32
HETATM   32  C   UNL     1     -10.577   5.554  70.702  1.00  0.00    -0.259 C  
HETATM   33  N   UNL     1     -10.367   7.008  70.604  1.00  0.00    -0.206 N  
HETATM   34  C   UNL     1      -9.172   7.584  71.278  1.00  0.00    -0.149 C  
HETATM   35  S   UNL     1      -8.691   6.237  72.379  1.00  0.00    -0.119 S  
HETATM   36  C   UNL     1     -10.082   8.705  71.787  1.00  0.00    -0.380 C  
HETATM   37  O   UNL     1      -7.531   5.571  71.812  1.00  0.00    -0.088 OA 
HETATM   38  O   UNL     1      -8.672   6.697  73.754  1.00  0.00    -0.127 OA 
HETATM   39  C   UNL     1     -10.136   5.151  72.129  1.00  0.00    -0.193 C  
HETATM   40  C   UNL     1     -11.230   7.909  71.150  1.00  0.00    -0.261 C  
HETATM   41  C   UNL     1      -9.751   3.677  72.321  1.00  0.00    -0.223 C  
HETATM   42  C   UNL     1     -11.221   5.462  73.182  1.00  0.00    -0.355 C  
HETATM   43  O   UNL     1     -12.433   7.874  71.241  1.00  0.00    -0.308 OA 
ENDBRANCH  30  32
ENDBRANCH  29  30
ENDBRANCH  28  29
ENDBRANCH  27  28
ENDBRANCH  25  27
ENDBRANCH   7  25
TORSDOF 9
ENDMDL
MODEL       98
REMARK 921   NORMALIZED FREE ENERGY PREDICTED BY IDOCK:   -6.12 KCAL/MOL
REMARK 922        TOTAL FREE ENERGY PREDICTED BY IDOCK:   -9.85 KCAL/MOL
REMARK 923 INTER-LIGAND FREE ENERGY PREDICTED BY IDOCK:   -9.31 KCAL/MOL
REMARK 924 INTRA-LIGAND FREE ENERGY PREDICTED BY IDOCK:   -0.54 KCAL/MOL
REMARK 927      BINDING AFFINITY PREDICTED BY RF-SCORE:    0.00 PKD
ROOT
HETATM    1  C   UNL     1      -8.550  14.877  66.607  1.00  0.00    -0.207 C  
HETATM    2  C   UNL     1      -9.904  14.147  66.733  1.00  0.00    -0.272 C  
HETATM    3  S   UNL     1     -11.224  15.395  66.354  1.00  0.00    -0.081 SA 
HETATM    4  C   UNL     1      -9.889  13.042  65.670  1.00  0.00    -0.181 C  
HETATM    5  C   UNL     1     -11.536  15.807  68.138  1.00  0.00    -0.302 C  
HETATM    6  C   UNL     1     -10.730  16.981  68.762  1.00  0.00    -0.313 C  
HETATM    7  C   UNL     1     -10.213  13.683  68.181  1.00  0.00    -0.247 C  
HETATM    8  C   UNL     1      -9.821  15.855  69.321  1.00  0.00    -0.259 C  
HETATM    9  O   UNL     1      -8.703  15.773  69.776  1.00  0.00    -0.151 OA 
HETATM   10  N   UNL     1     -10.676  14.880  68.896  1.00  0.00    -0.236 N  
ENDROOT
BRANCH   6  11
HETATM   11  N   UNL     1     -10.112  17.953  67.820  1.00  0.00    -0.330 N  
HETATM   12  C   UNL     1      -9.899  19.265  68.184  1.00  0.00    -0.379 C  
HETATM   13  O   UNL     1     -10.048  19.654  69.341  1.00  0.00    -0.390 OA 
HETATM   14  H   UNL     1      -9.841  17.642  66.886  1.00  0.00     0.000 HD 
BRANCH  12  15
HETATM   15  C   UNL     1      -9.495  20.211  67.031  1.00  0.00    -0.409 C  
HETATM   16  H2  UNL     1     -11.276  19.898  65.975  1.00  0.00     0.000 HD 
HETATM   17  N   UNL     1     -10.271  19.884  65.804  1.00  0.00    -0.444 NA 
HETATM   18  H1  UNL     1     -10.005  20.509  65.044  1.00  0.00     0.000 HD 
BRANCH  15  19
HETATM   19  C   UNL     1      -8.000  20.240  66.768  1.00  0.00    -0.330 A  
HETATM   20  C   UNL     1      -7.080  20.713  67.718  1.00  0.00    -0.325 A  
HETATM   21  C   UNL     1      -7.502  19.724  65.559  1.00  0.00    -0.184 A  
HETATM   22  C   UNL     1      -6.125  19.621  65.341  1.00  0.00    -0.250 A  
HETATM   23  C   UNL     1      -5.706  20.601  67.502  1.00  0.00    -0.260 A  
HETATM   24  C   UNL     1      -5.229  20.042  66.320  1.00  0.00    -0.175 A  
ENDBRANCH  15  19
ENDBRANCH  12  15
ENDBRANCH   6  11
BRANCH   7  25
HETATM   25  C   UNL     1     -11.349  12.643  68.308  1.00  0.00    -0.295 C  
HETATM   26  O   UNL     1     -12.197  12.408  67.452  1.00  0.00    -0.459 OA 
BRANCH  25  27
HETATM   27  O   UNL     1     -11.312  12.008  69.515  1.00  0.00    -0.267 OA 
BRANCH  27  28
HETATM   28  C   UNL     1     -11.974  10.741  69.545  1.00  0.00    -0.292 C  
BRANCH  28  29
HETATM   29  O   UNL     1     -11.032   9.677  69.647  1.00  0.00    -0.236 OA 
BRANCH  29  30
HETATM   30  C   UNL     1     -10.770   8.996  68.503  1.00  0.00    -0.095 C  
HETATM   31  O   UNL     1     -10.904   9.455  67.376  1.00  0.00    -0.263 OA 
BRANCH  30  32
HETATM   32  C   UNL     1     -10.252   7.572  68.800  1.00  0.00    -0.197 C  
HETATM   33  N   UNL     1      -9.968   7.458  70.240  1.00  0.00    -0.187 N  
HETATM   34  C   UNL     1      -8.633   7.905  70.722  1.00  0.00    -0.132 C  
HETATM   35  S   UNL     1      -7.699   7.992  69.179  1.00  0.00    -0.101 S  
HETATM   36  C   UNL     1      -8.588   6.637  71.576  1.00  0.00    -0.124 C  
HETATM   37  O   UNL     1      -7.566   9.387  68.798  1.00  0.00    -0.078 OA 
HETATM   38  O   UNL     1      -6.530   7.138  69.253  1.00  0.00    -0.034 OA 
HETATM   39  C   UNL     1      -8.932   7.227  68.071  1.00  0.00    -0.131 C  
HETATM   40  C   UNL     1      -9.902   6.257  70.878  1.00  0.00    -0.181 C  
HETATM   41  C   UNL     1      -8.793   7.769  66.642  1.00  0.00    -0.166 C  
HETATM   42  C   UNL     1      -8.696   5.704  67.987  1.00  0.00    -0.099 C  
HETATM   43  O   UNL     1     -10.551   5.253  70.710  1.00  0.00    -0.245 OA 
ENDBRANCH  30  32
ENDBRANCH  29  30
ENDBRANCH  28  29
ENDBRANCH  27  28
ENDBRANCH  25  27
ENDBRANCH   7  25
TORSDOF 9
ENDMDL
MODEL       99
REMARK 921   NORMALIZED FREE ENERGY PREDICTED BY IDOCK:   -6.10 KCAL/MOL
REMARK 922        TOTAL FREE ENERGY PREDICTED BY IDOCK:   -9.82 KCAL/MOL
REMARK 923 INTER-LIGAND FREE ENERGY PREDICTED BY IDOCK:   -8.86 KCAL/MOL
REMARK 924 INTRA-LIGAND FREE ENERGY PREDICTED BY IDOCK:   -0.96 KCAL/MOL
REMARK 927      BINDING AFFINITY PREDICTED BY RF-SCORE:    0.00 PKD
ROOT
HETATM    1  C   UNL     1      -9.098  11.695  68.860  1.00  0.00     0.060 C  
HETATM    2  C   UNL     1     -10.436  12.128  68.224  1.00  0.00    -0.213 C  
HETATM    3  S   UNL     1     -11.533  10.631  68.211  1.00  0.00    -0.162 SA 
HETATM    4  C   UNL     1     -11.013  13.208  69.147  1.00  0.00    -0.194 C  
HETATM    5  C   UNL     1     -11.110  10.170  66.462  1.00  0.00     0.281 C  
HETATM    6  C   UNL     1      -9.922   9.192  66.238  1.00  0.00    -0.282 C  
HETATM    7  C   UNL     1     -10.300  12.523  66.730  1.00  0.00    -0.226 C  
HETATM    8  C   UNL     1      -9.114  10.485  65.950  1.00  0.00    -0.168 C  
HETATM    9  O   UNL     1      -7.946  10.798  65.904  1.00  0.00    -0.158 OA 
HETATM   10  N   UNL     1     -10.237  11.259  65.985  1.00  0.00    -0.239 N  
ENDROOT
BRANCH   6  11
HETATM   11  N   UNL     1      -9.498   8.366  67.401  1.00  0.00    -0.143 N  
HETATM   12  C   UNL     1     -10.102   7.158  67.677  1.00  0.00    -0.180 C  
HETATM   13  O   UNL     1     -10.891   6.628  66.897  1.00  0.00    -0.341 OA 
HETATM   14  H   UNL     1      -8.747   8.700  68.005  1.00  0.00     0.000 HD 
BRANCH  12  15
HETATM   15  C   UNL     1      -9.743   6.541  69.048  1.00  0.00    -0.135 C  
HETATM   16  H2  UNL     1      -9.457   4.623  68.258  1.00  0.00     0.000 HD 
HETATM   17  N   UNL     1      -9.963   5.070  69.021  1.00  0.00    -0.185 NA 
HETATM   18  H1  UNL     1      -9.726   4.663  69.926  1.00  0.00     0.000 HD 
BRANCH  15  19
HETATM   19  C   UNL     1     -10.456   7.202  70.214  1.00  0.00    -0.232 A  
HETATM   20  C   UNL     1     -11.853   7.161  70.359  1.00  0.00    -0.235 A  
HETATM   21  C   UNL     1      -9.701   7.831  71.219  1.00  0.00    -0.179 A  
HETATM   22  C   UNL     1     -10.319   8.337  72.365  1.00  0.00    -0.402 A  
HETATM   23  C   UNL     1     -12.468   7.659  71.509  1.00  0.00    -0.361 A  
HETATM   24  C   UNL     1     -11.700   8.234  72.518  1.00  0.00    -0.451 A  
ENDBRANCH  15  19
ENDBRANCH  12  15
ENDBRANCH   6  11
BRANCH   7  25
HETATM   25  C   UNL     1     -11.499  13.305  66.146  1.00  0.00    -0.328 C  
HETATM   26  O   UNL     1     -12.572  12.813  65.808  1.00  0.00    -0.562 OA 
BRANCH  25  27
HETATM   27  O   UNL     1     -11.219  14.635  66.034  1.00  0.00    -0.334 OA 
BRANCH  27  28
HETATM   28  C   UNL     1      -9.999  14.934  65.349  1.00  0.00    -0.332 C  
BRANCH  28  29
HETATM   29  O   UNL     1      -8.983  15.321  66.268  1.00  0.00    -0.299 OA 
BRANCH  29  30
HETATM   30  C   UNL     1      -8.519  16.591  66.147  1.00  0.00    -0.285 C  
HETATM   31  O   UNL     1      -7.550  16.916  65.473  1.00  0.00     0.175 OA 
BRANCH  30  32
HETATM   32  C   UNL     1      -9.387  17.587  66.948  1.00  0.00    -0.269 C  
HETATM   33  N   UNL     1      -9.184  18.941  66.407  1.00  0.00    -0.323 N  
HETATM   34  C   UNL     1      -8.032  19.729  66.922  1.00  0.00    -0.293 C  
HETATM   35  S   UNL     1      -7.598  18.809  68.413  1.00  0.00    -0.311 S  
HETATM   36  C   UNL     1      -8.977  20.930  67.008  1.00  0.00    -0.120 C  
HETATM   37  O   UNL     1      -6.404  18.027  68.141  1.00  0.00    -0.180 OA 
HETATM   38  O   UNL     1      -7.657  19.678  69.571  1.00  0.00    -0.237 OA 
HETATM   39  C   UNL     1      -9.019  17.663  68.449  1.00  0.00    -0.280 C  
HETATM   40  C   UNL     1     -10.082  19.946  66.600  1.00  0.00    -0.475 C  
HETATM   41  C   UNL     1      -8.631  16.335  69.113  1.00  0.00    -0.212 C  
HETATM   42  C   UNL     1     -10.161  18.262  69.297  1.00  0.00    -0.059 C  
HETATM   43  O   UNL     1     -11.288  19.911  66.639  1.00  0.00     0.009 OA 
ENDBRANCH  30  32
ENDBRANCH  29  30
ENDBRANCH  28  29
ENDBRANCH  27  28
ENDBRANCH  25  27
ENDBRANCH   7  25
TORSDOF 9
ENDMDL
MODEL      100
REMARK 921   NORMALIZED FREE ENERGY PREDICTED BY IDOCK:   -6.10 KCAL/MOL
REMARK 922        TOTAL FREE ENERGY PREDICTED BY IDOCK:   -9.82 KCAL/MOL
REMARK 923 INTER-LIGAND FREE ENERGY PREDICTED BY IDOCK:   -9.01 KCAL/MOL
REMARK 924 INTRA-LIGAND FREE ENERGY PREDICTED BY IDOCK:   -0.81 KCAL/MOL
REMARK 927      BINDING AFFINITY PREDICTED BY RF-SCORE:    0.00 PKD
ROOT
HETATM    1  C   UNL     1     -10.130   7.998  72.840  1.00  0.00    -0.376 C  
HETATM    2  C   UNL     1     -11.020   8.449  71.663  1.00  0.00    -0.278 C  
HETATM    3  S   UNL     1     -11.001   7.072  70.419  1.00  0.00    -0.281 SA 
HETATM    4  C   UNL     1     -12.428   8.629  72.241  1.00  0.00    -0.460 C  
HETATM    5  C   UNL     1      -9.650   7.833  69.396  1.00  0.00    -0.156 C  
HETATM    6  C   UNL     1      -8.183   7.438  69.724  1.00  0.00    -0.129 C  
HETATM    7  C   UNL     1     -10.445   9.671  70.898  1.00  0.00    -0.289 C  
HETATM    8  C   UNL     1      -8.161   8.778  70.507  1.00  0.00    -0.124 C  
HETATM    9  O   UNL     1      -7.475   9.281  71.367  1.00  0.00    -0.316 OA 
HETATM   10  N   UNL     1      -9.387   9.139  70.029  1.00  0.00    -0.184 N  
ENDROOT
BRANCH   6  11
HETATM   11  N   UNL     1      -7.978   6.188  70.504  1.00  0.00    -0.109 N  
HETATM   12  C   UNL     1      -7.935   4.958  69.884  1.00  0.00    -0.069 C  
HETATM   13  O   UNL     1      -7.895   4.844  68.660  1.00  0.00    -0.077 OA 
HETATM   14  H   UNL     1      -7.867   6.242  71.517  1.00  0.00     0.000 HD 
BRANCH  12  15
HETATM   15  C   UNL     1      -7.977   3.740  70.834  1.00  0.00    -0.065 C  
HETATM   16  H2  UNL     1      -7.850   2.351  69.272  1.00  0.00     0.000 HD 
HETATM   17  N   UNL     1      -8.425   2.529  70.095  1.00  0.00    -0.042 NA 
HETATM   18  H1  UNL     1      -8.452   1.725  70.722  1.00  0.00     0.000 HD 
BRANCH  15  19
HETATM   19  C   UNL     1      -8.801   3.979  72.087  1.00  0.00    -0.129 A  
HETATM   20  C   UNL     1     -10.205   3.934  72.081  1.00  0.00    -0.196 A  
HETATM   21  C   UNL     1      -8.147   4.197  73.312  1.00  0.00    -0.090 A  
HETATM   22  C   UNL     1      -8.874   4.294  74.501  1.00  0.00    -0.102 A  
HETATM   23  C   UNL     1     -10.929   4.022  73.271  1.00  0.00    -0.313 A  
HETATM   24  C   UNL     1     -10.263   4.188  74.482  1.00  0.00    -0.264 A  
ENDBRANCH  15  19
ENDBRANCH  12  15
ENDBRANCH   6  11
BRANCH   7  25
HETATM   25  C   UNL     1     -11.445  10.389  69.964  1.00  0.00    -0.308 C  
HETATM   26  O   UNL     1     -12.664  10.406  70.105  1.00  0.00    -0.250 OA 
BRANCH  25  27
HETATM   27  O   UNL     1     -10.805  11.008  68.930  1.00  0.00    -0.190 OA 
BRANCH  27  28
HETATM   28  C   UNL     1     -11.488  10.936  67.675  1.00  0.00    -0.200 C  
BRANCH  28  29
HETATM   29  O   UNL     1     -11.723  12.239  67.149  1.00  0.00    -0.419 OA 
BRANCH  29  30
HETATM   30  C   UNL     1     -10.628  12.915  66.714  1.00  0.00    -0.257 C  
HETATM   31  O   UNL     1      -9.611  12.386  66.285  1.00  0.00    -0.238 OA 
BRANCH  30  32
HETATM   32  C   UNL     1     -10.838  14.442  66.800  1.00  0.00    -0.301 C  
HETATM   33  N   UNL     1      -9.780  15.115  66.030  1.00  0.00    -0.308 N  
HETATM   34  C   UNL     1      -8.486  15.383  66.715  1.00  0.00    -0.272 C  
HETATM   35  S   UNL     1      -8.938  15.158  68.448  1.00  0.00    -0.190 S  
HETATM   36  C   UNL     1      -8.518  16.779  66.088  1.00  0.00    -0.298 C  
HETATM   37  O   UNL     1      -8.429  13.873  68.894  1.00  0.00    -0.060 OA 
HETATM   38  O   UNL     1      -8.648  16.362  69.201  1.00  0.00    -0.242 OA 
HETATM   39  C   UNL     1     -10.745  15.001  68.240  1.00  0.00    -0.253 C  
HETATM   40  C   UNL     1      -9.910  16.390  65.569  1.00  0.00    -0.073 C  
HETATM   41  C   UNL     1     -11.346  14.119  69.343  1.00  0.00    -0.318 C  
HETATM   42  C   UNL     1     -11.416  16.385  68.371  1.00  0.00    -0.181 C  
HETATM   43  O   UNL     1     -10.881  16.964  65.140  1.00  0.00    -0.602 OA 
ENDBRANCH  30  32
ENDBRANCH  29  30
ENDBRANCH  28  29
ENDBRANCH  27  28
ENDBRANCH  25  27
ENDBRANCH   7  25
TORSDOF 9
ENDMDL
MODEL      101
REMARK 921   NORMALIZED FREE ENERGY PREDICTED BY IDOCK:   -6.10 KCAL/MOL
REMARK 922        TOTAL FREE ENERGY PREDICTED BY IDOCK:   -9.81 KCAL/MOL
REMARK 923 INTER-LIGAND FREE ENERGY PREDICTED BY IDOCK:   -9.46 KCAL/MOL
REMARK 924 INTRA-LIGAND FREE ENERGY PREDICTED BY IDOCK:   -0.35 KCAL/MOL
REMARK 927      BINDING AFFINITY PREDICTED BY RF-SCORE:    0.00 PKD
ROOT
HETATM    1  C   UNL     1      -9.969  14.354  65.397  1.00  0.00    -0.344 C  
HETATM    2  C   UNL     1     -10.949  13.779  66.441  1.00  0.00    -0.298 C  
HETATM    3  S   UNL     1     -11.564  15.212  67.446  1.00  0.00    -0.160 SA 
HETATM    4  C   UNL     1     -12.097  13.151  65.643  1.00  0.00    -0.501 C  
HETATM    5  C   UNL     1     -10.324  14.965  68.806  1.00  0.00    -0.245 C  
HETATM    6  C   UNL     1      -8.974  15.731  68.704  1.00  0.00    -0.204 C  
HETATM    7  C   UNL     1     -10.260  12.847  67.474  1.00  0.00    -0.213 C  
HETATM    8  C   UNL     1      -8.432  14.388  68.149  1.00  0.00    -0.160 C  
HETATM    9  O   UNL     1      -7.466  14.025  67.517  1.00  0.00    -0.163 OA 
HETATM   10  N   UNL     1      -9.596  13.737  68.436  1.00  0.00    -0.215 N  
ENDROOT
BRANCH   6  11
HETATM   11  N   UNL     1      -8.935  16.910  67.798  1.00  0.00    -0.223 N  
HETATM   12  C   UNL     1      -9.724  18.017  68.029  1.00  0.00    -0.309 C  
HETATM   13  O   UNL     1     -10.365  18.156  69.070  1.00  0.00    -0.337 OA 
HETATM   14  H   UNL     1      -8.312  16.901  66.990  1.00  0.00     0.000 HD 
BRANCH  12  15
HETATM   15  C   UNL     1      -9.771  19.045  66.877  1.00  0.00    -0.324 C  
HETATM   16  H2  UNL     1     -11.176  17.948  65.779  1.00  0.00     0.000 HD 
HETATM   17  N   UNL     1     -10.273  18.400  65.635  1.00  0.00    -0.538 NA 
HETATM   18  H1  UNL     1     -10.304  19.079  64.874  1.00  0.00     0.000 HD 
BRANCH  15  19
HETATM   19  C   UNL     1      -8.451  19.762  66.653  1.00  0.00    -0.371 A  
HETATM   20  C   UNL     1      -7.745  20.380  67.699  1.00  0.00    -0.312 A  
HETATM   21  C   UNL     1      -7.876  19.764  65.370  1.00  0.00     0.223 A  
HETATM   22  C   UNL     1      -6.605  20.305  65.159  1.00  0.00    -0.333 A  
HETATM   23  C   UNL     1      -6.472  20.911  67.488  1.00  0.00    -0.398 A  
HETATM   24  C   UNL     1      -5.896  20.860  66.222  1.00  0.00    -0.274 A  
ENDBRANCH  15  19
ENDBRANCH  12  15
ENDBRANCH   6  11
BRANCH   7  25
HETATM   25  C   UNL     1     -11.220  11.962  68.302  1.00  0.00    -0.261 C  
HETATM   26  O   UNL     1     -12.235  11.420  67.874  1.00  0.00    -0.592 OA 
BRANCH  25  27
HETATM   27  O   UNL     1     -10.809  11.858  69.598  1.00  0.00    -0.040 OA 
BRANCH  27  28
HETATM   28  C   UNL     1     -11.471  10.840  70.355  1.00  0.00    -0.307 C  
BRANCH  28  29
HETATM   29  O   UNL     1     -11.043   9.544  69.947  1.00  0.00    -0.236 OA 
BRANCH  29  30
HETATM   30  C   UNL     1      -9.998   9.015  70.633  1.00  0.00    -0.233 C  
HETATM   31  O   UNL     1      -9.986   8.825  71.842  1.00  0.00    -0.290 OA 
BRANCH  30  32
HETATM   32  C   UNL     1      -8.830   8.652  69.690  1.00  0.00    -0.137 C  
HETATM   33  N   UNL     1      -9.129   9.163  68.342  1.00  0.00    -0.133 N  
HETATM   34  C   UNL     1      -9.951   8.310  67.442  1.00  0.00    -0.209 C  
HETATM   35  S   UNL     1      -9.860   6.710  68.273  1.00  0.00    -0.141 S  
HETATM   36  C   UNL     1      -8.964   8.651  66.323  1.00  0.00    -0.211 C  
HETATM   37  O   UNL     1     -11.119   6.475  68.960  1.00  0.00    -0.302 OA 
HETATM   38  O   UNL     1      -9.317   5.710  67.376  1.00  0.00    -0.112 OA 
HETATM   39  C   UNL     1      -8.608   7.129  69.534  1.00  0.00    -0.134 C  
HETATM   40  C   UNL     1      -8.158   9.377  67.411  1.00  0.00    -0.110 C  
HETATM   41  C   UNL     1      -8.808   6.288  70.803  1.00  0.00    -0.144 C  
HETATM   42  C   UNL     1      -7.195   6.800  69.007  1.00  0.00    -0.091 C  
HETATM   43  O   UNL     1      -7.029   9.782  67.546  1.00  0.00    -0.081 OA 
ENDBRANCH  30  32
ENDBRANCH  29  30
ENDBRANCH  28  29
ENDBRANCH  27  28
ENDBRANCH  25  27
ENDBRANCH   7  25
TORSDOF 9
ENDMDL
MODEL      102
REMARK 921   NORMALIZED FREE ENERGY PREDICTED BY IDOCK:   -6.10 KCAL/MOL
REMARK 922        TOTAL FREE ENERGY PREDICTED BY IDOCK:   -9.81 KCAL/MOL
REMARK 923 INTER-LIGAND FREE ENERGY PREDICTED BY IDOCK:   -8.83 KCAL/MOL
REMARK 924 INTRA-LIGAND FREE ENERGY PREDICTED BY IDOCK:   -0.98 KCAL/MOL
REMARK 927      BINDING AFFINITY PREDICTED BY RF-SCORE:    0.00 PKD
ROOT
HETATM    1  C   UNL     1      -8.259   7.750  68.800  1.00  0.00    -0.128 C  
HETATM    2  C   UNL     1      -8.934   8.062  70.153  1.00  0.00    -0.150 C  
HETATM    3  S   UNL     1      -8.508   6.666  71.298  1.00  0.00    -0.125 SA 
HETATM    4  C   UNL     1      -8.306   9.371  70.647  1.00  0.00    -0.217 C  
HETATM    5  C   UNL     1     -10.089   5.743  70.979  1.00  0.00    -0.205 C  
HETATM    6  C   UNL     1     -10.093   4.688  69.837  1.00  0.00    -0.187 C  
HETATM    7  C   UNL     1     -10.484   8.045  70.078  1.00  0.00    -0.228 C  
HETATM    8  C   UNL     1     -10.744   5.822  69.001  1.00  0.00    -0.284 C  
HETATM    9  O   UNL     1     -10.917   6.059  67.828  1.00  0.00    -0.304 OA 
HETATM   10  N   UNL     1     -10.870   6.628  70.095  1.00  0.00    -0.257 N  
ENDROOT
BRANCH   6  11
HETATM   11  N   UNL     1      -8.771   4.178  69.384  1.00  0.00    -0.080 N  
HETATM   12  C   UNL     1      -8.665   3.007  68.664  1.00  0.00    -0.100 C  
HETATM   13  O   UNL     1      -9.652   2.420  68.222  1.00  0.00    -0.206 OA 
HETATM   14  H   UNL     1      -7.927   4.704  69.609  1.00  0.00     0.000 HD 
BRANCH  12  15
HETATM   15  C   UNL     1      -7.227   2.470  68.488  1.00  0.00    -0.048 C  
HETATM   16  H2  UNL     1      -6.872   2.367  70.549  1.00  0.00     0.000 HD 
HETATM   17  N   UNL     1      -6.426   2.740  69.711  1.00  0.00    -0.029 NA 
HETATM   18  H1  UNL     1      -5.477   2.386  69.595  1.00  0.00     0.000 HD 
BRANCH  15  19
HETATM   19  C   UNL     1      -6.541   2.981  67.233  1.00  0.00    -0.037 A  
HETATM   20  C   UNL     1      -6.682   2.345  65.989  1.00  0.00    -0.039 A  
HETATM   21  C   UNL     1      -5.784   4.164  67.294  1.00  0.00    -0.022 A  
HETATM   22  C   UNL     1      -5.246   4.727  66.134  1.00  0.00    -0.009 A  
HETATM   23  C   UNL     1      -6.151   2.913  64.830  1.00  0.00    -0.019 A  
HETATM   24  C   UNL     1      -5.447   4.112  64.900  1.00  0.00    -0.013 A  
ENDBRANCH  15  19
ENDBRANCH  12  15
ENDBRANCH   6  11
BRANCH   7  25
HETATM   25  C   UNL     1     -11.205   8.700  71.278  1.00  0.00    -0.276 C  
HETATM   26  O   UNL     1     -10.945   8.499  72.461  1.00  0.00    -0.353 OA 
BRANCH  25  27
HETATM   27  O   UNL     1     -12.199   9.538  70.865  1.00  0.00    -0.292 OA 
BRANCH  27  28
HETATM   28  C   UNL     1     -11.744  10.733  70.222  1.00  0.00    -0.352 C  
BRANCH  28  29
HETATM   29  O   UNL     1     -12.207  10.794  68.877  1.00  0.00    -0.447 OA 
BRANCH  29  30
HETATM   30  C   UNL     1     -11.289  11.151  67.942  1.00  0.00    -0.309 C  
HETATM   31  O   UNL     1     -10.137  10.741  67.909  1.00  0.00    -0.166 OA 
BRANCH  30  32
HETATM   32  C   UNL     1     -11.892  12.123  66.904  1.00  0.00    -0.222 C  
HETATM   33  N   UNL     1     -11.442  11.725  65.560  1.00  0.00    -0.238 N  
HETATM   34  C   UNL     1     -10.128  12.237  65.087  1.00  0.00    -0.261 C  
HETATM   35  S   UNL     1      -9.817  13.578  66.256  1.00  0.00    -0.286 S  
HETATM   36  C   UNL     1     -10.799  12.531  63.743  1.00  0.00    -0.489 C  
HETATM   37  O   UNL     1      -8.826  13.129  67.219  1.00  0.00    -0.191 OA 
HETATM   38  O   UNL     1      -9.636  14.828  65.547  1.00  0.00    -0.286 OA 
HETATM   39  C   UNL     1     -11.440  13.590  67.093  1.00  0.00    -0.338 C  
HETATM   40  C   UNL     1     -12.103  12.098  64.429  1.00  0.00    -0.357 C  
HETATM   41  C   UNL     1     -11.301  14.069  68.544  1.00  0.00    -0.308 C  
HETATM   42  C   UNL     1     -12.389  14.585  66.391  1.00  0.00    -0.198 C  
HETATM   43  O   UNL     1     -13.286  12.225  64.228  1.00  0.00    -0.777 OA 
ENDBRANCH  30  32
ENDBRANCH  29  30
ENDBRANCH  28  29
ENDBRANCH  27  28
ENDBRANCH  25  27
ENDBRANCH   7  25
TORSDOF 9
ENDMDL
MODEL      103
REMARK 921   NORMALIZED FREE ENERGY PREDICTED BY IDOCK:   -6.09 KCAL/MOL
REMARK 922        TOTAL FREE ENERGY PREDICTED BY IDOCK:   -9.81 KCAL/MOL
REMARK 923 INTER-LIGAND FREE ENERGY PREDICTED BY IDOCK:   -9.67 KCAL/MOL
REMARK 924 INTRA-LIGAND FREE ENERGY PREDICTED BY IDOCK:   -0.13 KCAL/MOL
REMARK 927      BINDING AFFINITY PREDICTED BY RF-SCORE:    0.00 PKD
ROOT
HETATM    1  C   UNL     1     -10.174   8.218  66.657  1.00  0.00    -0.333 C  
HETATM    2  C   UNL     1      -8.813   8.775  67.124  1.00  0.00    -0.127 C  
HETATM    3  S   UNL     1      -8.642   8.337  68.919  1.00  0.00    -0.133 SA 
HETATM    4  C   UNL     1      -7.750   8.048  66.291  1.00  0.00    -0.091 C  
HETATM    5  C   UNL     1      -9.265   9.981  69.519  1.00  0.00    -0.221 C  
HETATM    6  C   UNL     1     -10.789  10.122  69.790  1.00  0.00    -0.279 C  
HETATM    7  C   UNL     1      -8.746  10.325  67.095  1.00  0.00    -0.129 C  
HETATM    8  C   UNL     1     -10.821  10.775  68.383  1.00  0.00    -0.232 C  
HETATM    9  O   UNL     1     -11.662  11.022  67.549  1.00  0.00    -0.565 OA 
HETATM   10  N   UNL     1      -9.460  10.780  68.295  1.00  0.00    -0.158 N  
ENDROOT
BRANCH   6  11
HETATM   11  N   UNL     1     -11.561   8.865  69.978  1.00  0.00    -0.457 N  
HETATM   12  C   UNL     1     -12.090   8.527  71.205  1.00  0.00    -0.286 C  
HETATM   13  O   UNL     1     -12.097   9.312  72.152  1.00  0.00    -0.354 OA 
HETATM   14  H   UNL     1     -11.703   8.241  69.183  1.00  0.00     0.000 HD 
BRANCH  12  15
HETATM   15  C   UNL     1     -12.637   7.086  71.312  1.00  0.00    -0.373 C  
HETATM   16  H2  UNL     1     -14.614   7.716  71.598  1.00  0.00     0.000 HD 
HETATM   17  N   UNL     1     -13.941   7.084  72.030  1.00  0.00    -0.567 NA 
HETATM   18  H1  UNL     1     -14.302   6.133  72.100  1.00  0.00     0.000 HD 
BRANCH  15  19
HETATM   19  C   UNL     1     -11.650   6.108  71.924  1.00  0.00    -0.352 A  
HETATM   20  C   UNL     1     -12.036   5.147  72.874  1.00  0.00    -0.060 A  
HETATM   21  C   UNL     1     -10.312   6.117  71.492  1.00  0.00    -0.253 A  
HETATM   22  C   UNL     1      -9.411   5.149  71.943  1.00  0.00    -0.171 A  
HETATM   23  C   UNL     1     -11.136   4.176  73.316  1.00  0.00    -0.318 A  
HETATM   24  C   UNL     1      -9.828   4.168  72.840  1.00  0.00    -0.186 A  
ENDBRANCH  15  19
ENDBRANCH  12  15
ENDBRANCH   6  11
BRANCH   7  25
HETATM   25  C   UNL     1      -7.324  10.922  67.190  1.00  0.00    -0.105 C  
HETATM   26  O   UNL     1      -6.286  10.275  67.292  1.00  0.00    -0.057 OA 
BRANCH  25  27
HETATM   27  O   UNL     1      -7.353  12.286  67.162  1.00  0.00    -0.148 OA 
BRANCH  27  28
HETATM   28  C   UNL     1      -7.314  12.911  68.448  1.00  0.00    -0.119 C  
BRANCH  28  29
HETATM   29  O   UNL     1      -6.816  14.242  68.351  1.00  0.00    -0.088 OA 
BRANCH  29  30
HETATM   30  C   UNL     1      -7.388  15.028  67.403  1.00  0.00    -0.201 C  
HETATM   31  O   UNL     1      -6.784  15.846  66.723  1.00  0.00    -0.249 OA 
BRANCH  30  32
HETATM   32  C   UNL     1      -8.899  14.740  67.269  1.00  0.00    -0.204 C  
HETATM   33  N   UNL     1      -9.347  15.149  65.928  1.00  0.00    -0.299 N  
HETATM   34  C   UNL     1      -9.731  16.573  65.728  1.00  0.00    -0.202 C  
HETATM   35  S   UNL     1      -9.925  17.140  67.431  1.00  0.00    -0.288 S  
HETATM   36  C   UNL     1     -10.944  16.067  64.944  1.00  0.00    -0.399 C  
HETATM   37  O   UNL     1      -8.764  17.938  67.786  1.00  0.00    -0.243 OA 
HETATM   38  O   UNL     1     -11.262  17.661  67.635  1.00  0.00    -0.081 OA 
HETATM   39  C   UNL     1      -9.773  15.528  68.274  1.00  0.00    -0.201 C  
HETATM   40  C   UNL     1     -10.484  14.662  65.357  1.00  0.00    -0.380 C  
HETATM   41  C   UNL     1      -9.186  15.703  69.682  1.00  0.00    -0.189 C  
HETATM   42  C   UNL     1     -11.167  14.892  68.456  1.00  0.00    -0.292 C  
HETATM   43  O   UNL     1     -10.969  13.559  65.416  1.00  0.00    -0.284 OA 
ENDBRANCH  30  32
ENDBRANCH  29  30
ENDBRANCH  28  29
ENDBRANCH  27  28
ENDBRANCH  25  27
ENDBRANCH   7  25
TORSDOF 9
ENDMDL
MODEL      104
REMARK 921   NORMALIZED FREE ENERGY PREDICTED BY IDOCK:   -6.08 KCAL/MOL
REMARK 922        TOTAL FREE ENERGY PREDICTED BY IDOCK:   -9.79 KCAL/MOL
REMARK 923 INTER-LIGAND FREE ENERGY PREDICTED BY IDOCK:   -8.78 KCAL/MOL
REMARK 924 INTRA-LIGAND FREE ENERGY PREDICTED BY IDOCK:   -1.00 KCAL/MOL
REMARK 927      BINDING AFFINITY PREDICTED BY RF-SCORE:    0.00 PKD
ROOT
HETATM    1  C   UNL     1     -10.844   7.723  72.990  1.00  0.00    -0.451 C  
HETATM    2  C   UNL     1     -11.773   8.366  71.939  1.00  0.00    -0.334 C  
HETATM    3  S   UNL     1     -11.777   7.238  70.466  1.00  0.00    -0.181 SA 
HETATM    4  C   UNL     1     -13.165   8.416  72.580  1.00  0.00    -0.187 C  
HETATM    5  C   UNL     1     -10.467   8.193  69.561  1.00  0.00    -0.227 C  
HETATM    6  C   UNL     1      -8.986   7.768  69.770  1.00  0.00    -0.146 C  
HETATM    7  C   UNL     1     -11.235   9.715  71.394  1.00  0.00    -0.356 C  
HETATM    8  C   UNL     1      -8.954   8.944  70.782  1.00  0.00    -0.209 C  
HETATM    9  O   UNL     1      -8.247   9.293  71.700  1.00  0.00    -0.312 OA 
HETATM   10  N   UNL     1     -10.198   9.366  70.413  1.00  0.00    -0.235 N  
ENDROOT
BRANCH   6  11
HETATM   11  N   UNL     1      -8.745   6.401  70.304  1.00  0.00    -0.142 N  
HETATM   12  C   UNL     1      -8.428   5.352  69.467  1.00  0.00    -0.100 C  
HETATM   13  O   UNL     1      -8.168   5.522  68.277  1.00  0.00    -0.096 OA 
HETATM   14  H   UNL     1      -8.814   6.236  71.308  1.00  0.00     0.000 HD 
BRANCH  12  15
HETATM   15  C   UNL     1      -8.461   3.953  70.123  1.00  0.00    -0.060 C  
HETATM   16  H2  UNL     1      -9.005   2.988  68.346  1.00  0.00     0.000 HD 
HETATM   17  N   UNL     1      -9.306   3.030  69.319  1.00  0.00    -0.155 NA 
HETATM   18  H1  UNL     1      -9.328   2.107  69.751  1.00  0.00     0.000 HD 
BRANCH  15  19
HETATM   19  C   UNL     1      -8.877   3.980  71.583  1.00  0.00    -0.144 A  
HETATM   20  C   UNL     1     -10.214   3.816  71.985  1.00  0.00    -0.157 A  
HETATM   21  C   UNL     1      -7.895   4.114  72.578  1.00  0.00    -0.086 A  
HETATM   22  C   UNL     1      -8.231   4.016  73.931  1.00  0.00    -0.092 A  
HETATM   23  C   UNL     1     -10.547   3.709  73.336  1.00  0.00    -0.281 A  
HETATM   24  C   UNL     1      -9.554   3.794  74.308  1.00  0.00    -0.129 A  
ENDBRANCH  15  19
ENDBRANCH  12  15
ENDBRANCH   6  11
BRANCH   7  25
HETATM   25  C   UNL     1     -12.270  10.575  70.634  1.00  0.00    -0.352 C  
HETATM   26  O   UNL     1     -12.634  10.392  69.476  1.00  0.00    -0.120 OA 
BRANCH  25  27
HETATM   27  O   UNL     1     -12.735  11.596  71.410  1.00  0.00    -0.388 OA 
BRANCH  27  28
HETATM   28  C   UNL     1     -12.902  12.841  70.724  1.00  0.00    -0.030 C  
BRANCH  28  29
HETATM   29  O   UNL     1     -11.643  13.469  70.500  1.00  0.00    -0.135 OA 
BRANCH  29  30
HETATM   30  C   UNL     1     -11.655  14.563  69.695  1.00  0.00    -0.299 C  
HETATM   31  O   UNL     1     -12.634  15.269  69.498  1.00  0.00    -0.139 OA 
BRANCH  30  32
HETATM   32  C   UNL     1     -10.263  14.823  69.079  1.00  0.00    -0.237 C  
HETATM   33  N   UNL     1     -10.203  16.215  68.603  1.00  0.00    -0.233 N  
HETATM   34  C   UNL     1     -10.720  16.506  67.238  1.00  0.00    -0.243 C  
HETATM   35  S   UNL     1     -10.800  14.851  66.519  1.00  0.00    -0.326 S  
HETATM   36  C   UNL     1      -9.480  17.377  67.025  1.00  0.00    -0.268 C  
HETATM   37  O   UNL     1     -12.189  14.424  66.501  1.00  0.00    -0.424 OA 
HETATM   38  O   UNL     1      -9.999  14.791  65.313  1.00  0.00    -0.361 OA 
HETATM   39  C   UNL     1      -9.952  13.935  67.851  1.00  0.00    -0.242 C  
HETATM   40  C   UNL     1      -9.025  16.867  68.400  1.00  0.00    -0.244 C  
HETATM   41  C   UNL     1     -10.458  12.487  67.924  1.00  0.00    -0.226 C  
HETATM   42  C   UNL     1      -8.438  13.856  67.559  1.00  0.00    -0.200 C  
HETATM   43  O   UNL     1      -7.990  16.810  69.019  1.00  0.00    -0.238 OA 
ENDBRANCH  30  32
ENDBRANCH  29  30
ENDBRANCH  28  29
ENDBRANCH  27  28
ENDBRANCH  25  27
ENDBRANCH   7  25
TORSDOF 9
ENDMDL
MODEL      105
REMARK 921   NORMALIZED FREE ENERGY PREDICTED BY IDOCK:   -6.07 KCAL/MOL
REMARK 922        TOTAL FREE ENERGY PREDICTED BY IDOCK:   -9.77 KCAL/MOL
REMARK 923 INTER-LIGAND FREE ENERGY PREDICTED BY IDOCK:   -8.90 KCAL/MOL
REMARK 924 INTRA-LIGAND FREE ENERGY PREDICTED BY IDOCK:   -0.87 KCAL/MOL
REMARK 927      BINDING AFFINITY PREDICTED BY RF-SCORE:    0.00 PKD
ROOT
HETATM    1  C   UNL     1      -8.674   8.966  70.656  1.00  0.00    -0.230 C  
HETATM    2  C   UNL     1     -10.167   9.172  70.327  1.00  0.00    -0.214 C  
HETATM    3  S   UNL     1     -10.702   7.707  69.323  1.00  0.00    -0.105 SA 
HETATM    4  C   UNL     1     -10.898   9.196  71.675  1.00  0.00    -0.442 C  
HETATM    5  C   UNL     1     -10.457   8.562  67.693  1.00  0.00    -0.241 C  
HETATM    6  C   UNL     1      -9.072   8.418  67.001  1.00  0.00    -0.144 C  
HETATM    7  C   UNL     1     -10.423  10.392  69.402  1.00  0.00    -0.238 C  
HETATM    8  C   UNL     1      -8.790   9.812  67.622  1.00  0.00    -0.125 C  
HETATM    9  O   UNL     1      -7.814  10.486  67.860  1.00  0.00    -0.102 OA 
HETATM   10  N   UNL     1     -10.080   9.944  68.045  1.00  0.00    -0.163 N  
ENDROOT
BRANCH   6  11
HETATM   11  N   UNL     1      -8.211   7.288  67.441  1.00  0.00    -0.115 N  
HETATM   12  C   UNL     1      -8.312   6.043  66.857  1.00  0.00    -0.105 C  
HETATM   13  O   UNL     1      -8.986   5.848  65.846  1.00  0.00    -0.153 OA 
HETATM   14  H   UNL     1      -7.534   7.436  68.189  1.00  0.00     0.000 HD 
BRANCH  12  15
HETATM   15  C   UNL     1      -7.549   4.911  67.582  1.00  0.00    -0.083 C  
HETATM   16  H2  UNL     1      -7.345   3.758  65.846  1.00  0.00     0.000 HD 
HETATM   17  N   UNL     1      -7.658   3.644  66.810  1.00  0.00    -0.079 NA 
HETATM   18  H1  UNL     1      -7.155   2.898  67.288  1.00  0.00     0.000 HD 
BRANCH  15  19
HETATM   19  C   UNL     1      -7.968   4.733  69.031  1.00  0.00    -0.075 A  
HETATM   20  C   UNL     1      -7.157   5.145  70.102  1.00  0.00    -0.054 A  
HETATM   21  C   UNL     1      -9.231   4.190  69.323  1.00  0.00    -0.213 A  
HETATM   22  C   UNL     1      -9.694   4.130  70.639  1.00  0.00    -0.273 A  
HETATM   23  C   UNL     1      -7.625   5.093  71.415  1.00  0.00    -0.096 A  
HETATM   24  C   UNL     1      -8.899   4.599  71.683  1.00  0.00    -0.147 A  
ENDBRANCH  15  19
ENDBRANCH  12  15
ENDBRANCH   6  11
BRANCH   7  25
HETATM   25  C   UNL     1     -11.892  10.868  69.336  1.00  0.00    -0.328 C  
HETATM   26  O   UNL     1     -12.724  10.734  70.229  1.00  0.00    -0.311 OA 
BRANCH  25  27
HETATM   27  O   UNL     1     -12.172  11.458  68.139  1.00  0.00    -0.602 OA 
BRANCH  27  28
HETATM   28  C   UNL     1     -11.816  12.841  68.056  1.00  0.00    -0.336 C  
BRANCH  28  29
HETATM   29  O   UNL     1     -10.673  13.023  67.226  1.00  0.00    -0.246 OA 
BRANCH  29  30
HETATM   30  C   UNL     1     -10.616  14.188  66.531  1.00  0.00    -0.282 C  
HETATM   31  O   UNL     1     -11.559  14.683  65.929  1.00  0.00    -0.354 OA 
BRANCH  30  32
HETATM   32  C   UNL     1      -9.213  14.828  66.618  1.00  0.00    -0.275 C  
HETATM   33  N   UNL     1      -8.582  14.426  67.886  1.00  0.00    -0.156 N  
HETATM   34  C   UNL     1      -8.885  15.232  69.099  1.00  0.00    -0.238 C  
HETATM   35  S   UNL     1      -9.593  16.727  68.376  1.00  0.00    -0.249 S  
HETATM   36  C   UNL     1      -7.393  15.172  69.432  1.00  0.00    -0.203 C  
HETATM   37  O   UNL     1     -11.034  16.687  68.553  1.00  0.00    -0.342 OA 
HETATM   38  O   UNL     1      -8.836  17.891  68.792  1.00  0.00    -0.279 OA 
HETATM   39  C   UNL     1      -9.237  16.375  66.620  1.00  0.00    -0.253 C  
HETATM   40  C   UNL     1      -7.234  14.469  68.076  1.00  0.00    -0.142 C  
HETATM   41  C   UNL     1     -10.283  17.032  65.709  1.00  0.00    -0.262 C  
HETATM   42  C   UNL     1      -7.871  16.977  66.226  1.00  0.00    -0.346 C  
HETATM   43  O   UNL     1      -6.335  14.233  67.307  1.00  0.00    -0.296 OA 
ENDBRANCH  30  32
ENDBRANCH  29  30
ENDBRANCH  28  29
ENDBRANCH  27  28
ENDBRANCH  25  27
ENDBRANCH   7  25
TORSDOF 9
ENDMDL
MODEL      106
REMARK 921   NORMALIZED FREE ENERGY PREDICTED BY IDOCK:   -6.06 KCAL/MOL
REMARK 922        TOTAL FREE ENERGY PREDICTED BY IDOCK:   -9.76 KCAL/MOL
REMARK 923 INTER-LIGAND FREE ENERGY PREDICTED BY IDOCK:   -9.32 KCAL/MOL
REMARK 924 INTRA-LIGAND FREE ENERGY PREDICTED BY IDOCK:   -0.44 KCAL/MOL
REMARK 927      BINDING AFFINITY PREDICTED BY RF-SCORE:    0.00 PKD
ROOT
HETATM    1  C   UNL     1      -7.894  14.396  69.164  1.00  0.00    -0.026 C  
HETATM    2  C   UNL     1      -8.898  13.877  68.114  1.00  0.00    -0.184 C  
HETATM    3  S   UNL     1      -8.759  14.997  66.641  1.00  0.00    -0.204 SA 
HETATM    4  C   UNL     1      -8.440  12.459  67.755  1.00  0.00    -0.169 C  
HETATM    5  C   UNL     1     -10.189  16.067  67.150  1.00  0.00    -0.278 C  
HETATM    6  C   UNL     1      -9.883  17.320  68.019  1.00  0.00    -0.284 C  
HETATM    7  C   UNL     1     -10.376  14.012  68.566  1.00  0.00    -0.247 C  
HETATM    8  C   UNL     1     -10.316  16.413  69.201  1.00  0.00    -0.289 C  
HETATM    9  O   UNL     1     -10.185  16.417  70.404  1.00  0.00     0.206 OA 
HETATM   10  N   UNL     1     -10.732  15.423  68.360  1.00  0.00    -0.248 N  
ENDROOT
BRANCH   6  11
HETATM   11  N   UNL     1      -8.481  17.817  68.016  1.00  0.00    -0.247 N  
HETATM   12  C   UNL     1      -8.202  19.167  68.003  1.00  0.00    -0.304 C  
HETATM   13  O   UNL     1      -9.077  20.017  68.160  1.00  0.00    -0.303 OA 
HETATM   14  H   UNL     1      -7.712  17.147  68.025  1.00  0.00     0.000 HD 
BRANCH  12  15
HETATM   15  C   UNL     1      -6.723  19.530  67.742  1.00  0.00    -0.230 C  
HETATM   16  H2  UNL     1      -6.590  20.760  69.432  1.00  0.00     0.000 HD 
HETATM   17  N   UNL     1      -6.377  20.800  68.435  1.00  0.00    -0.309 NA 
HETATM   18  H1  UNL     1      -5.401  21.040  68.263  1.00  0.00     0.000 HD 
BRANCH  15  19
HETATM   19  C   UNL     1      -6.361  19.571  66.268  1.00  0.00    -0.191 A  
HETATM   20  C   UNL     1      -6.725  20.643  65.435  1.00  0.00    -0.206 A  
HETATM   21  C   UNL     1      -5.588  18.534  65.718  1.00  0.00    -0.215 A  
HETATM   22  C   UNL     1      -5.134  18.605  64.398  1.00  0.00    -0.189 A  
HETATM   23  C   UNL     1      -6.263  20.716  64.120  1.00  0.00    -0.342 A  
HETATM   24  C   UNL     1      -5.456  19.706  63.607  1.00  0.00    -0.315 A  
ENDBRANCH  15  19
ENDBRANCH  12  15
ENDBRANCH   6  11
BRANCH   7  25
HETATM   25  C   UNL     1     -11.392  13.190  67.741  1.00  0.00    -0.290 C  
HETATM   26  O   UNL     1     -11.670  13.380  66.561  1.00  0.00    -0.337 OA 
BRANCH  25  27
HETATM   27  O   UNL     1     -11.971  12.212  68.496  1.00  0.00    -0.320 OA 
BRANCH  27  28
HETATM   28  C   UNL     1     -11.785  10.884  67.997  1.00  0.00    -0.124 C  
BRANCH  28  29
HETATM   29  O   UNL     1     -10.970  10.119  68.881  1.00  0.00    -0.219 OA 
BRANCH  29  30
HETATM   30  C   UNL     1     -11.393  10.041  70.169  1.00  0.00    -0.291 C  
HETATM   31  O   UNL     1     -12.504  10.376  70.556  1.00  0.00    -0.311 OA 
BRANCH  30  32
HETATM   32  C   UNL     1     -10.300   9.448  71.085  1.00  0.00    -0.307 C  
HETATM   33  N   UNL     1      -9.163   9.017  70.256  1.00  0.00    -0.185 N  
HETATM   34  C   UNL     1      -9.217   7.657  69.655  1.00  0.00    -0.146 C  
HETATM   35  S   UNL     1     -10.534   6.885  70.619  1.00  0.00    -0.214 S  
HETATM   36  C   UNL     1      -7.756   7.484  70.075  1.00  0.00    -0.094 C  
HETATM   37  O   UNL     1     -11.736   6.839  69.803  1.00  0.00    -0.270 OA 
HETATM   38  O   UNL     1     -10.043   5.687  71.268  1.00  0.00    -0.190 OA 
HETATM   39  C   UNL     1     -10.760   8.196  71.869  1.00  0.00    -0.265 C  
HETATM   40  C   UNL     1      -7.911   8.847  70.765  1.00  0.00    -0.119 C  
HETATM   41  C   UNL     1     -12.207   8.219  72.381  1.00  0.00    -0.412 C  
HETATM   42  C   UNL     1      -9.865   7.918  73.096  1.00  0.00    -0.357 C  
HETATM   43  O   UNL     1      -7.328   9.475  71.615  1.00  0.00    -0.293 OA 
ENDBRANCH  30  32
ENDBRANCH  29  30
ENDBRANCH  28  29
ENDBRANCH  27  28
ENDBRANCH  25  27
ENDBRANCH   7  25
TORSDOF 9
ENDMDL
MODEL      107
REMARK 921   NORMALIZED FREE ENERGY PREDICTED BY IDOCK:   -6.03 KCAL/MOL
REMARK 922        TOTAL FREE ENERGY PREDICTED BY IDOCK:   -9.71 KCAL/MOL
REMARK 923 INTER-LIGAND FREE ENERGY PREDICTED BY IDOCK:   -8.61 KCAL/MOL
REMARK 924 INTRA-LIGAND FREE ENERGY PREDICTED BY IDOCK:   -1.10 KCAL/MOL
REMARK 927      BINDING AFFINITY PREDICTED BY RF-SCORE:    0.00 PKD
ROOT
HETATM    1  C   UNL     1      -7.648  10.955  65.737  1.00  0.00    -0.018 C  
HETATM    2  C   UNL     1      -8.748   9.877  65.639  1.00  0.00    -0.151 C  
HETATM    3  S   UNL     1     -10.368  10.773  65.516  1.00  0.00    -0.208 SA 
HETATM    4  C   UNL     1      -8.465   9.100  64.348  1.00  0.00    -0.198 C  
HETATM    5  C   UNL     1     -10.727  10.653  67.334  1.00  0.00    -0.276 C  
HETATM    6  C   UNL     1     -10.252  11.821  68.245  1.00  0.00    -0.205 C  
HETATM    7  C   UNL     1      -8.875   9.019  66.926  1.00  0.00    -0.116 C  
HETATM    8  C   UNL     1      -9.055  10.885  68.557  1.00  0.00    -0.173 C  
HETATM    9  O   UNL     1      -7.943  11.005  69.020  1.00  0.00    -0.141 OA 
HETATM   10  N   UNL     1      -9.624   9.843  67.885  1.00  0.00    -0.138 N  
ENDROOT
BRANCH   6  11
HETATM   11  N   UNL     1      -9.951  13.116  67.579  1.00  0.00    -0.220 N  
HETATM   12  C   UNL     1     -10.885  14.129  67.531  1.00  0.00    -0.275 C  
HETATM   13  O   UNL     1     -11.936  14.080  68.169  1.00  0.00    -0.357 OA 
HETATM   14  H   UNL     1      -9.036  13.259  67.151  1.00  0.00     0.000 HD 
BRANCH  12  15
HETATM   15  C   UNL     1     -10.532  15.306  66.593  1.00  0.00    -0.290 C  
HETATM   16  H2  UNL     1      -9.963  14.051  65.016  1.00  0.00     0.000 HD 
HETATM   17  N   UNL     1      -9.596  14.852  65.530  1.00  0.00    -0.472 NA 
HETATM   18  H1  UNL     1      -9.363  15.628  64.912  1.00  0.00     0.000 HD 
BRANCH  15  19
HETATM   19  C   UNL     1     -10.010  16.528  67.328  1.00  0.00    -0.264 A  
HETATM   20  C   UNL     1      -8.734  16.563  67.914  1.00  0.00    -0.188 A  
HETATM   21  C   UNL     1     -10.798  17.690  67.381  1.00  0.00    -0.178 A  
HETATM   22  C   UNL     1     -10.295  18.869  67.938  1.00  0.00    -0.473 A  
HETATM   23  C   UNL     1      -8.229  17.743  68.462  1.00  0.00    -0.296 A  
HETATM   24  C   UNL     1      -9.004  18.899  68.461  1.00  0.00    -0.388 A  
ENDBRANCH  15  19
ENDBRANCH  12  15
ENDBRANCH   6  11
BRANCH   7  25
HETATM   25  C   UNL     1      -9.681   7.710  66.765  1.00  0.00    -0.222 C  
HETATM   26  O   UNL     1     -10.902   7.634  66.668  1.00  0.00    -0.162 OA 
BRANCH  25  27
HETATM   27  O   UNL     1      -8.863   6.619  66.756  1.00  0.00    -0.122 OA 
BRANCH  27  28
HETATM   28  C   UNL     1      -9.491   5.398  67.157  1.00  0.00    -0.124 C  
BRANCH  28  29
HETATM   29  O   UNL     1      -9.098   5.035  68.478  1.00  0.00    -0.105 OA 
BRANCH  29  30
HETATM   30  C   UNL     1      -9.983   5.322  69.466  1.00  0.00    -0.227 C  
HETATM   31  O   UNL     1     -11.159   5.606  69.284  1.00  0.00    -0.274 OA 
BRANCH  30  32
HETATM   32  C   UNL     1      -9.325   5.216  70.859  1.00  0.00    -0.150 C  
HETATM   33  N   UNL     1     -10.295   4.639  71.804  1.00  0.00    -0.175 N  
HETATM   34  C   UNL     1     -11.254   5.563  72.468  1.00  0.00    -0.274 C  
HETATM   35  S   UNL     1     -10.487   7.168  72.156  1.00  0.00    -0.210 S  
HETATM   36  C   UNL     1     -10.969   4.817  73.773  1.00  0.00    -0.371 C  
HETATM   37  O   UNL     1     -11.225   7.833  71.096  1.00  0.00    -0.255 OA 
HETATM   38  O   UNL     1     -10.228   7.850  73.409  1.00  0.00    -0.321 OA 
HETATM   39  C   UNL     1      -8.907   6.583  71.453  1.00  0.00    -0.137 C  
HETATM   40  C   UNL     1      -9.915   4.043  72.968  1.00  0.00    -0.139 C  
HETATM   41  C   UNL     1      -8.343   7.604  70.456  1.00  0.00    -0.126 C  
HETATM   42  C   UNL     1      -7.853   6.432  72.571  1.00  0.00    -0.101 C  
HETATM   43  O   UNL     1      -8.950   3.359  73.210  1.00  0.00    -0.092 OA 
ENDBRANCH  30  32
ENDBRANCH  29  30
ENDBRANCH  28  29
ENDBRANCH  27  28
ENDBRANCH  25  27
ENDBRANCH   7  25
TORSDOF 9
ENDMDL
MODEL      108
REMARK 921   NORMALIZED FREE ENERGY PREDICTED BY IDOCK:   -6.00 KCAL/MOL
REMARK 922        TOTAL FREE ENERGY PREDICTED BY IDOCK:   -9.67 KCAL/MOL
REMARK 923 INTER-LIGAND FREE ENERGY PREDICTED BY IDOCK:   -8.64 KCAL/MOL
REMARK 924 INTRA-LIGAND FREE ENERGY PREDICTED BY IDOCK:   -1.03 KCAL/MOL
REMARK 927      BINDING AFFINITY PREDICTED BY RF-SCORE:    0.00 PKD
ROOT
HETATM    1  C   UNL     1      -7.484  10.864  66.887  1.00  0.00    -0.128 C  
HETATM    2  C   UNL     1      -8.855  11.550  67.062  1.00  0.00    -0.173 C  
HETATM    3  S   UNL     1      -9.718  10.678  68.454  1.00  0.00    -0.173 SA 
HETATM    4  C   UNL     1      -8.555  13.004  67.444  1.00  0.00    -0.199 C  
HETATM    5  C   UNL     1     -10.678   9.551  67.333  1.00  0.00    -0.227 C  
HETATM    6  C   UNL     1     -10.048   8.174  66.978  1.00  0.00    -0.280 C  
HETATM    7  C   UNL     1      -9.794  11.356  65.841  1.00  0.00    -0.226 C  
HETATM    8  C   UNL     1      -9.613   8.884  65.669  1.00  0.00    -0.105 C  
HETATM    9  O   UNL     1      -8.804   8.688  64.791  1.00  0.00    -0.123 OA 
HETATM   10  N   UNL     1     -10.342   9.998  65.969  1.00  0.00    -0.199 N  
ENDROOT
BRANCH   6  11
HETATM   11  N   UNL     1      -8.972   7.673  67.874  1.00  0.00    -0.129 N  
HETATM   12  C   UNL     1      -9.255   6.841  68.936  1.00  0.00    -0.131 C  
HETATM   13  O   UNL     1     -10.368   6.342  69.097  1.00  0.00    -0.181 OA 
HETATM   14  H   UNL     1      -8.006   7.950  67.699  1.00  0.00     0.000 HD 
BRANCH  12  15
HETATM   15  C   UNL     1      -8.088   6.613  69.923  1.00  0.00    -0.125 C  
HETATM   16  H2  UNL     1      -9.243   5.449  71.226  1.00  0.00     0.000 HD 
HETATM   17  N   UNL     1      -8.616   6.251  71.266  1.00  0.00    -0.124 NA 
HETATM   18  H1  UNL     1      -7.846   6.101  71.918  1.00  0.00     0.000 HD 
BRANCH  15  19
HETATM   19  C   UNL     1      -7.115   7.777  69.988  1.00  0.00    -0.054 A  
HETATM   20  C   UNL     1      -5.940   7.817  69.218  1.00  0.00    -0.034 A  
HETATM   21  C   UNL     1      -7.417   8.884  70.800  1.00  0.00    -0.101 A  
HETATM   22  C   UNL     1      -6.606  10.022  70.784  1.00  0.00    -0.040 A  
HETATM   23  C   UNL     1      -5.137   8.958  69.197  1.00  0.00    -0.036 A  
HETATM   24  C   UNL     1      -5.478  10.065  69.968  1.00  0.00    -0.039 A  
ENDBRANCH  15  19
ENDBRANCH  12  15
ENDBRANCH   6  11
BRANCH   7  25
HETATM   25  C   UNL     1     -11.011  12.306  65.792  1.00  0.00    -0.301 C  
HETATM   26  O   UNL     1     -12.142  12.035  66.186  1.00  0.00    -0.582 OA 
BRANCH  25  27
HETATM   27  O   UNL     1     -10.684  13.507  65.235  1.00  0.00    -0.298 OA 
BRANCH  27  28
HETATM   28  C   UNL     1     -11.552  14.588  65.591  1.00  0.00    -0.344 C  
BRANCH  28  29
HETATM   29  O   UNL     1     -10.812  15.671  66.147  1.00  0.00    -0.314 OA 
BRANCH  29  30
HETATM   30  C   UNL     1     -10.507  16.686  65.299  1.00  0.00    -0.173 C  
HETATM   31  O   UNL     1     -11.168  16.990  64.314  1.00  0.00    -1.186 OA 
BRANCH  30  32
HETATM   32  C   UNL     1      -9.232  17.432  65.748  1.00  0.00     0.209 C  
HETATM   33  N   UNL     1      -8.553  16.637  66.785  1.00  0.00    -0.214 N  
HETATM   34  C   UNL     1      -8.997  16.811  68.195  1.00  0.00    -0.224 C  
HETATM   35  S   UNL     1      -9.938  18.348  68.094  1.00  0.00    -0.384 S  
HETATM   36  C   UNL     1      -7.518  16.840  68.588  1.00  0.00    -0.219 C  
HETATM   37  O   UNL     1     -11.354  18.025  68.127  1.00  0.00     0.227 OA 
HETATM   38  O   UNL     1      -9.390  19.331  69.006  1.00  0.00    -0.365 OA 
HETATM   39  C   UNL     1      -9.513  18.815  66.381  1.00  0.00    -0.322 C  
HETATM   40  C   UNL     1      -7.233  16.796  67.080  1.00  0.00    -0.201 C  
HETATM   41  C   UNL     1     -10.646  19.629  65.740  1.00  0.00    -0.537 C  
HETATM   42  C   UNL     1      -8.263  19.722  66.374  1.00  0.00    -0.371 C  
HETATM   43  O   UNL     1      -6.300  17.038  66.353  1.00  0.00    -0.212 OA 
ENDBRANCH  30  32
ENDBRANCH  29  30
ENDBRANCH  28  29
ENDBRANCH  27  28
ENDBRANCH  25  27
ENDBRANCH   7  25
TORSDOF 9
ENDMDL
MODEL      109
REMARK 921   NORMALIZED FREE ENERGY PREDICTED BY IDOCK:   -5.98 KCAL/MOL
REMARK 922        TOTAL FREE ENERGY PREDICTED BY IDOCK:   -9.64 KCAL/MOL
REMARK 923 INTER-LIGAND FREE ENERGY PREDICTED BY IDOCK:   -8.57 KCAL/MOL
REMARK 924 INTRA-LIGAND FREE ENERGY PREDICTED BY IDOCK:   -1.06 KCAL/MOL
REMARK 927      BINDING AFFINITY PREDICTED BY RF-SCORE:    0.00 PKD
ROOT
HETATM    1  C   UNL     1      -8.590  11.909  68.298  1.00  0.00    -0.162 C  
HETATM    2  C   UNL     1      -9.395  10.972  67.374  1.00  0.00    -0.155 C  
HETATM    3  S   UNL     1     -11.116  11.659  67.280  1.00  0.00    -0.306 SA 
HETATM    4  C   UNL     1      -8.713  11.043  66.002  1.00  0.00    -0.192 C  
HETATM    5  C   UNL     1     -11.778  10.546  68.611  1.00  0.00    -0.085 C  
HETATM    6  C   UNL     1     -11.744  11.068  70.076  1.00  0.00    -0.355 C  
HETATM    7  C   UNL     1      -9.576   9.547  67.961  1.00  0.00    -0.137 C  
HETATM    8  C   UNL     1     -10.456  10.211  70.188  1.00  0.00    -0.255 C  
HETATM    9  O   UNL     1      -9.504  10.150  70.932  1.00  0.00     0.319 OA 
HETATM   10  N   UNL     1     -10.652   9.658  68.956  1.00  0.00    -0.215 N  
ENDROOT
BRANCH   6  11
HETATM   11  N   UNL     1     -11.607  12.536  70.266  1.00  0.00    -0.534 N  
HETATM   12  C   UNL     1     -12.500  13.243  71.042  1.00  0.00    -0.336 C  
HETATM   13  O   UNL     1     -13.343  12.684  71.743  1.00  0.00    -0.418 OA 
HETATM   14  H   UNL     1     -10.838  13.030  69.813  1.00  0.00     0.000 HD 
BRANCH  12  15
HETATM   15  C   UNL     1     -12.388  14.781  70.940  1.00  0.00    -0.319 C  
HETATM   16  H2  UNL     1     -14.387  15.094  71.480  1.00  0.00     0.000 HD 
HETATM   17  N   UNL     1     -13.736  15.382  70.750  1.00  0.00    -0.845 NA 
HETATM   18  H1  UNL     1     -13.662  16.396  70.683  1.00  0.00     0.000 HD 
BRANCH  15  19
HETATM   19  C   UNL     1     -11.404  15.246  69.882  1.00  0.00    -0.308 A  
HETATM   20  C   UNL     1     -10.094  15.647  70.199  1.00  0.00    -0.145 A  
HETATM   21  C   UNL     1     -11.784  15.227  68.529  1.00  0.00    -0.352 A  
HETATM   22  C   UNL     1     -10.860  15.528  67.524  1.00  0.00    -0.306 A  
HETATM   23  C   UNL     1      -9.172  15.938  69.194  1.00  0.00    -0.253 A  
HETATM   24  C   UNL     1      -9.550  15.865  67.857  1.00  0.00    -0.215 A  
ENDBRANCH  15  19
ENDBRANCH  12  15
ENDBRANCH   6  11
BRANCH   7  25
HETATM   25  C   UNL     1     -10.039   8.474  66.949  1.00  0.00    -0.294 C  
HETATM   26  O   UNL     1     -10.329   8.683  65.774  1.00  0.00     0.367 OA 
BRANCH  25  27
HETATM   27  O   UNL     1     -10.103   7.240  67.525  1.00  0.00    -0.163 OA 
BRANCH  27  28
HETATM   28  C   UNL     1      -8.851   6.736  68.001  1.00  0.00    -0.119 C  
BRANCH  28  29
HETATM   29  O   UNL     1      -8.948   6.342  69.366  1.00  0.00    -0.131 OA 
BRANCH  29  30
HETATM   30  C   UNL     1      -9.778   5.301  69.632  1.00  0.00    -0.182 C  
HETATM   31  O   UNL     1      -9.962   4.351  68.883  1.00  0.00    -0.129 OA 
BRANCH  30  32
HETATM   32  C   UNL     1     -10.445   5.452  71.017  1.00  0.00    -0.232 C  
HETATM   33  N   UNL     1     -10.090   6.765  71.578  1.00  0.00    -0.182 N  
HETATM   34  C   UNL     1      -8.808   6.878  72.325  1.00  0.00    -0.134 C  
HETATM   35  S   UNL     1      -8.412   5.143  72.633  1.00  0.00    -0.117 S  
HETATM   36  C   UNL     1      -9.567   7.690  73.377  1.00  0.00    -0.346 C  
HETATM   37  O   UNL     1      -7.360   4.741  71.716  1.00  0.00    -0.066 OA 
HETATM   38  O   UNL     1      -8.274   4.907  74.056  1.00  0.00    -0.103 OA 
HETATM   39  C   UNL     1      -9.974   4.400  72.049  1.00  0.00    -0.185 C  
HETATM   40  C   UNL     1     -10.824   7.364  72.557  1.00  0.00    -0.283 C  
HETATM   41  C   UNL     1      -9.735   2.985  71.505  1.00  0.00    -0.223 C  
HETATM   42  C   UNL     1     -10.964   4.257  73.225  1.00  0.00    -0.334 C  
HETATM   43  O   UNL     1     -12.018   7.372  72.735  1.00  0.00    -0.140 OA 
ENDBRANCH  30  32
ENDBRANCH  29  30
ENDBRANCH  28  29
ENDBRANCH  27  28
ENDBRANCH  25  27
ENDBRANCH   7  25
TORSDOF 9
ENDMDL
MODEL      110
REMARK 921   NORMALIZED FREE ENERGY PREDICTED BY IDOCK:   -5.98 KCAL/MOL
REMARK 922        TOTAL FREE ENERGY PREDICTED BY IDOCK:   -9.63 KCAL/MOL
REMARK 923 INTER-LIGAND FREE ENERGY PREDICTED BY IDOCK:   -8.91 KCAL/MOL
REMARK 924 INTRA-LIGAND FREE ENERGY PREDICTED BY IDOCK:   -0.72 KCAL/MOL
REMARK 927      BINDING AFFINITY PREDICTED BY RF-SCORE:    0.00 PKD
ROOT
HETATM    1  C   UNL     1      -8.853   7.905  69.401  1.00  0.00    -0.145 C  
HETATM    2  C   UNL     1      -9.565   9.114  70.043  1.00  0.00    -0.197 C  
HETATM    3  S   UNL     1      -9.414   8.912  71.881  1.00  0.00    -0.118 SA 
HETATM    4  C   UNL     1      -8.796  10.355  69.574  1.00  0.00    -0.111 C  
HETATM    5  C   UNL     1     -11.082   8.118  72.067  1.00  0.00    -0.306 C  
HETATM    6  C   UNL     1     -11.158   6.566  71.992  1.00  0.00    -0.258 C  
HETATM    7  C   UNL     1     -11.094   9.131  69.778  1.00  0.00    -0.125 C  
HETATM    8  C   UNL     1     -11.589   6.813  70.522  1.00  0.00    -0.372 C  
HETATM    9  O   UNL     1     -11.650   6.162  69.504  1.00  0.00    -0.396 OA 
HETATM   10  N   UNL     1     -11.674   8.161  70.717  1.00  0.00    -0.247 N  
ENDROOT
BRANCH   6  11
HETATM   11  N   UNL     1      -9.893   5.817  72.217  1.00  0.00    -0.161 N  
HETATM   12  C   UNL     1      -9.829   4.778  73.120  1.00  0.00    -0.146 C  
HETATM   13  O   UNL     1     -10.835   4.313  73.655  1.00  0.00    -0.223 OA 
HETATM   14  H   UNL     1      -9.058   6.076  71.692  1.00  0.00     0.000 HD 
BRANCH  12  15
HETATM   15  C   UNL     1      -8.405   4.268  73.437  1.00  0.00    -0.090 C  
HETATM   16  H2  UNL     1      -7.788   6.096  74.249  1.00  0.00     0.000 HD 
HETATM   17  N   UNL     1      -7.466   5.414  73.563  1.00  0.00    -0.094 NA 
HETATM   18  H1  UNL     1      -6.526   5.078  73.772  1.00  0.00     0.000 HD 
BRANCH  15  19
HETATM   19  C   UNL     1      -7.903   3.227  72.451  1.00  0.00    -0.059 A  
HETATM   20  C   UNL     1      -8.774   2.370  71.757  1.00  0.00    -0.108 A  
HETATM   21  C   UNL     1      -6.528   3.146  72.173  1.00  0.00    -0.015 A  
HETATM   22  C   UNL     1      -6.050   2.287  71.180  1.00  0.00    -0.018 A  
HETATM   23  C   UNL     1      -8.296   1.519  70.759  1.00  0.00    -0.067 A  
HETATM   24  C   UNL     1      -6.937   1.488  70.461  1.00  0.00    -0.032 A  
ENDBRANCH  15  19
ENDBRANCH  12  15
ENDBRANCH   6  11
BRANCH   7  25
HETATM   25  C   UNL     1     -11.795  10.477  70.066  1.00  0.00    -0.308 C  
HETATM   26  O   UNL     1     -11.878  11.015  71.167  1.00  0.00    -0.239 OA 
BRANCH  25  27
HETATM   27  O   UNL     1     -12.338  11.010  68.934  1.00  0.00    -0.516 OA 
BRANCH  27  28
HETATM   28  C   UNL     1     -11.990  12.376  68.690  1.00  0.00    -0.225 C  
BRANCH  28  29
HETATM   29  O   UNL     1     -12.186  12.713  67.319  1.00  0.00    -0.425 OA 
BRANCH  29  30
HETATM   30  C   UNL     1     -11.780  13.952  66.943  1.00  0.00    -0.399 C  
HETATM   31  O   UNL     1     -12.157  14.529  65.932  1.00  0.00    -0.354 OA 
BRANCH  30  32
HETATM   32  C   UNL     1     -10.800  14.560  67.971  1.00  0.00    -0.244 C  
HETATM   33  N   UNL     1     -11.154  15.971  68.193  1.00  0.00    -0.345 N  
HETATM   34  C   UNL     1     -10.598  16.984  67.256  1.00  0.00    -0.267 C  
HETATM   35  S   UNL     1      -9.278  16.049  66.452  1.00  0.00    -0.334 S  
HETATM   36  C   UNL     1     -10.290  17.851  68.478  1.00  0.00    -0.365 C  
HETATM   37  O   UNL     1      -9.724  15.673  65.122  1.00  0.00    -0.302 OA 
HETATM   38  O   UNL     1      -8.007  16.720  66.636  1.00  0.00    -0.211 OA 
HETATM   39  C   UNL     1      -9.326  14.555  67.500  1.00  0.00    -0.193 C  
HETATM   40  C   UNL     1     -10.771  16.653  69.309  1.00  0.00    -0.337 C  
HETATM   41  C   UNL     1      -8.878  13.319  66.707  1.00  0.00    -0.140 C  
HETATM   42  C   UNL     1      -8.339  14.702  68.678  1.00  0.00    -0.165 C  
HETATM   43  O   UNL     1     -10.670  16.277  70.451  1.00  0.00    -0.250 OA 
ENDBRANCH  30  32
ENDBRANCH  29  30
ENDBRANCH  28  29
ENDBRANCH  27  28
ENDBRANCH  25  27
ENDBRANCH   7  25
TORSDOF 9
ENDMDL
MODEL      111
REMARK 921   NORMALIZED FREE ENERGY PREDICTED BY IDOCK:   -5.97 KCAL/MOL
REMARK 922        TOTAL FREE ENERGY PREDICTED BY IDOCK:   -9.62 KCAL/MOL
REMARK 923 INTER-LIGAND FREE ENERGY PREDICTED BY IDOCK:   -9.15 KCAL/MOL
REMARK 924 INTRA-LIGAND FREE ENERGY PREDICTED BY IDOCK:   -0.46 KCAL/MOL
REMARK 927      BINDING AFFINITY PREDICTED BY RF-SCORE:    0.00 PKD
ROOT
HETATM    1  C   UNL     1      -9.760  10.515  69.373  1.00  0.00    -0.188 C  
HETATM    2  C   UNL     1     -10.277  10.277  67.939  1.00  0.00    -0.183 C  
HETATM    3  S   UNL     1     -10.530   8.448  67.756  1.00  0.00    -0.187 SA 
HETATM    4  C   UNL     1     -11.618  11.016  67.846  1.00  0.00    -0.306 C  
HETATM    5  C   UNL     1      -8.875   8.162  66.964  1.00  0.00    -0.132 C  
HETATM    6  C   UNL     1      -7.678   7.814  67.893  1.00  0.00    -0.122 C  
HETATM    7  C   UNL     1      -9.235  10.636  66.848  1.00  0.00    -0.155 C  
HETATM    8  C   UNL     1      -7.333   9.320  67.755  1.00  0.00    -0.084 C  
HETATM    9  O   UNL     1      -6.650  10.123  68.349  1.00  0.00    -0.053 OA 
HETATM   10  N   UNL     1      -8.294   9.508  66.805  1.00  0.00    -0.116 N  
ENDROOT
BRANCH   6  11
HETATM   11  N   UNL     1      -8.003   7.310  69.255  1.00  0.00    -0.117 N  
HETATM   12  C   UNL     1      -7.062   6.653  70.018  1.00  0.00    -0.071 C  
HETATM   13  O   UNL     1      -5.877   6.598  69.690  1.00  0.00    -0.014 OA 
HETATM   14  H   UNL     1      -8.941   7.453  69.631  1.00  0.00     0.000 HD 
BRANCH  12  15
HETATM   15  C   UNL     1      -7.609   5.965  71.289  1.00  0.00    -0.104 C  
HETATM   16  H2  UNL     1      -6.751   4.115  70.816  1.00  0.00     0.000 HD 
HETATM   17  N   UNL     1      -7.656   4.491  71.094  1.00  0.00    -0.069 NA 
HETATM   18  H1  UNL     1      -8.017   4.037  71.933  1.00  0.00     0.000 HD 
BRANCH  15  19
HETATM   19  C   UNL     1      -8.944   6.522  71.751  1.00  0.00    -0.138 A  
HETATM   20  C   UNL     1      -9.082   7.833  72.238  1.00  0.00    -0.201 A  
HETATM   21  C   UNL     1     -10.098   5.728  71.639  1.00  0.00    -0.241 A  
HETATM   22  C   UNL     1     -11.358   6.255  71.936  1.00  0.00    -0.348 A  
HETATM   23  C   UNL     1     -10.342   8.360  72.526  1.00  0.00    -0.371 A  
HETATM   24  C   UNL     1     -11.480   7.576  72.361  1.00  0.00    -0.362 A  
ENDBRANCH  15  19
ENDBRANCH  12  15
ENDBRANCH   6  11
BRANCH   7  25
HETATM   25  C   UNL     1      -9.803  10.774  65.417  1.00  0.00    -0.262 C  
HETATM   26  O   UNL     1      -9.370  10.201  64.421  1.00  0.00    -0.249 OA 
BRANCH  25  27
HETATM   27  O   UNL     1     -10.860  11.636  65.381  1.00  0.00    -0.284 OA 
BRANCH  27  28
HETATM   28  C   UNL     1     -10.627  12.836  64.637  1.00  0.00    -0.349 C  
BRANCH  28  29
HETATM   29  O   UNL     1     -10.214  13.894  65.497  1.00  0.00    -0.311 OA 
BRANCH  29  30
HETATM   30  C   UNL     1     -11.203  14.549  66.158  1.00  0.00    -0.339 C  
HETATM   31  O   UNL     1     -12.336  14.115  66.319  1.00  0.00    -0.456 OA 
BRANCH  30  32
HETATM   32  C   UNL     1     -10.710  15.904  66.710  1.00  0.00    -0.281 C  
HETATM   33  N   UNL     1      -9.381  16.194  66.149  1.00  0.00    -0.312 N  
HETATM   34  C   UNL     1      -8.194  15.625  66.844  1.00  0.00    -0.253 C  
HETATM   35  S   UNL     1      -8.896  15.157  68.440  1.00  0.00    -0.181 S  
HETATM   36  C   UNL     1      -7.520  16.988  66.671  1.00  0.00    -0.300 C  
HETATM   37  O   UNL     1      -9.078  13.716  68.459  1.00  0.00    -0.183 OA 
HETATM   38  O   UNL     1      -8.184  15.820  69.514  1.00  0.00    -0.239 OA 
HETATM   39  C   UNL     1     -10.542  15.923  68.248  1.00  0.00    -0.276 C  
HETATM   40  C   UNL     1      -8.867  17.455  66.101  1.00  0.00    -0.145 C  
HETATM   41  C   UNL     1     -11.600  15.151  69.049  1.00  0.00    -0.350 C  
HETATM   42  C   UNL     1     -10.527  17.360  68.813  1.00  0.00    -0.333 C  
HETATM   43  O   UNL     1      -9.419  18.509  65.896  1.00  0.00    -0.488 OA 
ENDBRANCH  30  32
ENDBRANCH  29  30
ENDBRANCH  28  29
ENDBRANCH  27  28
ENDBRANCH  25  27
ENDBRANCH   7  25
TORSDOF 9
ENDMDL
MODEL      112
REMARK 921   NORMALIZED FREE ENERGY PREDICTED BY IDOCK:   -5.95 KCAL/MOL
REMARK 922        TOTAL FREE ENERGY PREDICTED BY IDOCK:   -9.59 KCAL/MOL
REMARK 923 INTER-LIGAND FREE ENERGY PREDICTED BY IDOCK:   -9.20 KCAL/MOL
REMARK 924 INTRA-LIGAND FREE ENERGY PREDICTED BY IDOCK:   -0.39 KCAL/MOL
REMARK 927      BINDING AFFINITY PREDICTED BY RF-SCORE:    0.00 PKD
ROOT
HETATM    1  C   UNL     1      -9.857  13.514  65.176  1.00  0.00    -0.103 C  
HETATM    2  C   UNL     1     -10.731  13.164  66.398  1.00  0.00    -0.284 C  
HETATM    3  S   UNL     1     -10.580  14.578  67.589  1.00  0.00    -0.253 SA 
HETATM    4  C   UNL     1     -12.168  13.055  65.873  1.00  0.00    -0.493 C  
HETATM    5  C   UNL     1      -9.246  13.766  68.594  1.00  0.00    -0.069 C  
HETATM    6  C   UNL     1      -7.768  14.053  68.203  1.00  0.00    -0.143 C  
HETATM    7  C   UNL     1     -10.209  11.934  67.187  1.00  0.00    -0.208 C  
HETATM    8  C   UNL     1      -7.860  12.689  67.470  1.00  0.00    -0.175 C  
HETATM    9  O   UNL     1      -7.238  12.113  66.607  1.00  0.00     0.023 OA 
HETATM   10  N   UNL     1      -9.089  12.425  68.001  1.00  0.00    -0.190 N  
ENDROOT
BRANCH   6  11
HETATM   11  N   UNL     1      -7.512  15.260  67.372  1.00  0.00    -0.194 N  
HETATM   12  C   UNL     1      -6.825  16.343  67.876  1.00  0.00    -0.137 C  
HETATM   13  O   UNL     1      -6.251  16.304  68.964  1.00  0.00    -0.133 OA 
HETATM   14  H   UNL     1      -7.851  15.286  66.410  1.00  0.00     0.000 HD 
BRANCH  12  15
HETATM   15  C   UNL     1      -6.859  17.613  66.996  1.00  0.00    -0.171 C  
HETATM   16  H2  UNL     1      -4.815  17.998  67.242  1.00  0.00     0.000 HD 
HETATM   17  N   UNL     1      -5.704  18.492  67.320  1.00  0.00    -0.141 NA 
HETATM   18  H1  UNL     1      -5.727  19.330  66.740  1.00  0.00     0.000 HD 
BRANCH  15  19
HETATM   19  C   UNL     1      -8.179  18.359  67.064  1.00  0.00    -0.253 A  
HETATM   20  C   UNL     1      -8.289  19.641  67.631  1.00  0.00    -0.343 A  
HETATM   21  C   UNL     1      -9.328  17.785  66.493  1.00  0.00    -0.291 A  
HETATM   22  C   UNL     1     -10.526  18.500  66.427  1.00  0.00    -0.443 A  
HETATM   23  C   UNL     1      -9.484  20.357  67.557  1.00  0.00    -0.532 A  
HETATM   24  C   UNL     1     -10.598  19.792  66.942  1.00  0.00    -0.588 A  
ENDBRANCH  15  19
ENDBRANCH  12  15
ENDBRANCH   6  11
BRANCH   7  25
HETATM   25  C   UNL     1     -11.219  11.314  68.180  1.00  0.00    -0.286 C  
HETATM   26  O   UNL     1     -12.153  10.578  67.878  1.00  0.00    -0.110 OA 
BRANCH  25  27
HETATM   27  O   UNL     1     -10.958  11.699  69.462  1.00  0.00    -0.200 OA 
BRANCH  27  28
HETATM   28  C   UNL     1     -11.441  10.801  70.466  1.00  0.00    -0.275 C  
BRANCH  28  29
HETATM   29  O   UNL     1     -10.426   9.883  70.859  1.00  0.00    -0.286 OA 
BRANCH  29  30
HETATM   30  C   UNL     1     -10.664   8.574  70.587  1.00  0.00    -0.220 C  
HETATM   31  O   UNL     1     -11.480   7.880  71.179  1.00  0.00    -0.266 OA 
BRANCH  30  32
HETATM   32  C   UNL     1      -9.794   8.074  69.414  1.00  0.00    -0.181 C  
HETATM   33  N   UNL     1     -10.672   7.544  68.359  1.00  0.00    -0.123 N  
HETATM   34  C   UNL     1     -11.112   6.127  68.468  1.00  0.00    -0.262 C  
HETATM   35  S   UNL     1      -9.952   5.478  69.689  1.00  0.00    -0.237 S  
HETATM   36  C   UNL     1     -10.812   5.987  66.974  1.00  0.00    -0.413 C  
HETATM   37  O   UNL     1     -10.643   5.355  70.961  1.00  0.00    -0.238 OA 
HETATM   38  O   UNL     1      -9.223   4.353  69.139  1.00  0.00    -0.116 OA 
HETATM   39  C   UNL     1      -8.838   6.921  69.799  1.00  0.00    -0.141 C  
HETATM   40  C   UNL     1     -10.266   7.419  67.065  1.00  0.00    -0.287 C  
HETATM   41  C   UNL     1      -8.200   7.013  71.192  1.00  0.00    -0.113 C  
HETATM   42  C   UNL     1      -7.676   6.769  68.794  1.00  0.00    -0.110 C  
HETATM   43  O   UNL     1      -9.547   8.130  66.406  1.00  0.00    -0.217 OA 
ENDBRANCH  30  32
ENDBRANCH  29  30
ENDBRANCH  28  29
ENDBRANCH  27  28
ENDBRANCH  25  27
ENDBRANCH   7  25
TORSDOF 9
ENDMDL
MODEL      113
REMARK 921   NORMALIZED FREE ENERGY PREDICTED BY IDOCK:   -5.91 KCAL/MOL
REMARK 922        TOTAL FREE ENERGY PREDICTED BY IDOCK:   -9.53 KCAL/MOL
REMARK 923 INTER-LIGAND FREE ENERGY PREDICTED BY IDOCK:   -8.17 KCAL/MOL
REMARK 924 INTRA-LIGAND FREE ENERGY PREDICTED BY IDOCK:   -1.36 KCAL/MOL
REMARK 927      BINDING AFFINITY PREDICTED BY RF-SCORE:    0.00 PKD
ROOT
HETATM    1  C   UNL     1     -11.789  15.987  67.972  1.00  0.00     0.146 C  
HETATM    2  C   UNL     1     -11.546  15.002  69.134  1.00  0.00    -0.310 C  
HETATM    3  S   UNL     1      -9.726  15.031  69.490  1.00  0.00    -0.038 SA 
HETATM    4  C   UNL     1     -12.335  15.553  70.328  1.00  0.00    -0.431 C  
HETATM    5  C   UNL     1      -9.361  13.539  68.447  1.00  0.00    -0.171 C  
HETATM    6  C   UNL     1      -8.983  13.771  66.957  1.00  0.00    -0.238 C  
HETATM    7  C   UNL     1     -11.845  13.527  68.755  1.00  0.00    -0.355 C  
HETATM    8  C   UNL     1     -10.472  13.429  66.687  1.00  0.00    -0.280 C  
HETATM    9  O   UNL     1     -11.258  13.583  65.780  1.00  0.00    -0.297 OA 
HETATM   10  N   UNL     1     -10.680  13.068  67.986  1.00  0.00    -0.226 N  
ENDROOT
BRANCH   6  11
HETATM   11  N   UNL     1      -8.517  15.134  66.583  1.00  0.00    -0.386 N  
HETATM   12  C   UNL     1      -7.231  15.548  66.855  1.00  0.00     0.043 C  
HETATM   13  O   UNL     1      -6.365  14.773  67.260  1.00  0.00    -0.306 OA 
HETATM   14  H   UNL     1      -9.161  15.773  66.117  1.00  0.00     0.000 HD 
BRANCH  12  15
HETATM   15  C   UNL     1      -6.968  17.057  66.649  1.00  0.00    -0.249 C  
HETATM   16  H2  UNL     1      -4.889  16.848  66.783  1.00  0.00     0.000 HD 
HETATM   17  N   UNL     1      -5.629  17.422  67.184  1.00  0.00    -0.132 NA 
HETATM   18  H1  UNL     1      -5.456  18.418  67.048  1.00  0.00     0.000 HD 
BRANCH  15  19
HETATM   19  C   UNL     1      -8.066  17.944  67.208  1.00  0.00    -0.222 A  
HETATM   20  C   UNL     1      -8.204  18.189  68.585  1.00  0.00    -0.295 A  
HETATM   21  C   UNL     1      -8.946  18.593  66.326  1.00  0.00    -0.228 A  
HETATM   22  C   UNL     1      -9.885  19.512  66.802  1.00  0.00    -0.486 A  
HETATM   23  C   UNL     1      -9.136  19.114  69.058  1.00  0.00    -0.273 A  
HETATM   24  C   UNL     1      -9.966  19.786  68.166  1.00  0.00    -0.557 A  
ENDBRANCH  15  19
ENDBRANCH  12  15
ENDBRANCH   6  11
BRANCH   7  25
HETATM   25  C   UNL     1     -11.979  12.557  69.950  1.00  0.00    -0.301 C  
HETATM   26  O   UNL     1     -12.188  12.886  71.114  1.00  0.00    -0.256 OA 
BRANCH  25  27
HETATM   27  O   UNL     1     -11.821  11.259  69.559  1.00  0.00    -0.297 OA 
BRANCH  27  28
HETATM   28  C   UNL     1     -11.356  10.378  70.585  1.00  0.00    -0.325 C  
BRANCH  28  29
HETATM   29  O   UNL     1     -10.421   9.439  70.062  1.00  0.00    -0.205 OA 
BRANCH  29  30
HETATM   30  C   UNL     1      -9.165   9.904  69.839  1.00  0.00    -0.212 C  
HETATM   31  O   UNL     1      -8.358  10.174  70.719  1.00  0.00     0.147 OA 
BRANCH  30  32
HETATM   32  C   UNL     1      -8.869  10.025  68.328  1.00  0.00    -0.116 C  
HETATM   33  N   UNL     1      -9.700   9.054  67.599  1.00  0.00    -0.150 N  
HETATM   34  C   UNL     1      -9.185   7.665  67.458  1.00  0.00    -0.132 C  
HETATM   35  S   UNL     1      -7.443   7.879  67.882  1.00  0.00    -0.106 S  
HETATM   36  C   UNL     1      -9.631   7.717  65.995  1.00  0.00    -0.006 C  
HETATM   37  O   UNL     1      -7.231   7.376  69.228  1.00  0.00    -0.076 OA 
HETATM   38  O   UNL     1      -6.603   7.428  66.790  1.00  0.00    -0.053 OA 
HETATM   39  C   UNL     1      -7.403   9.703  67.956  1.00  0.00    -0.082 C  
HETATM   40  C   UNL     1      -9.984   9.186  66.273  1.00  0.00    -0.282 C  
HETATM   41  C   UNL     1      -6.336  10.185  68.948  1.00  0.00    -0.044 C  
HETATM   42  C   UNL     1      -7.013  10.280  66.578  1.00  0.00    -0.107 C  
HETATM   43  O   UNL     1     -10.196  10.179  65.621  1.00  0.00    -0.275 OA 
ENDBRANCH  30  32
ENDBRANCH  29  30
ENDBRANCH  28  29
ENDBRANCH  27  28
ENDBRANCH  25  27
ENDBRANCH   7  25
TORSDOF 9
ENDMDL
MODEL      114
REMARK 921   NORMALIZED FREE ENERGY PREDICTED BY IDOCK:   -5.88 KCAL/MOL
REMARK 922        TOTAL FREE ENERGY PREDICTED BY IDOCK:   -9.48 KCAL/MOL
REMARK 923 INTER-LIGAND FREE ENERGY PREDICTED BY IDOCK:   -8.60 KCAL/MOL
REMARK 924 INTRA-LIGAND FREE ENERGY PREDICTED BY IDOCK:   -0.88 KCAL/MOL
REMARK 927      BINDING AFFINITY PREDICTED BY RF-SCORE:    0.00 PKD
ROOT
HETATM    1  C   UNL     1     -10.074  10.236  66.102  1.00  0.00    -0.307 C  
HETATM    2  C   UNL     1      -9.670   9.292  67.254  1.00  0.00    -0.167 C  
HETATM    3  S   UNL     1      -9.953  10.223  68.834  1.00  0.00    -0.213 SA 
HETATM    4  C   UNL     1     -10.615   8.088  67.164  1.00  0.00    -0.367 C  
HETATM    5  C   UNL     1      -8.188  10.784  68.976  1.00  0.00    -0.138 C  
HETATM    6  C   UNL     1      -7.809  12.153  68.342  1.00  0.00    -0.149 C  
HETATM    7  C   UNL     1      -8.155   8.958  67.265  1.00  0.00    -0.104 C  
HETATM    8  C   UNL     1      -7.297  11.287  67.160  1.00  0.00    -0.130 C  
HETATM    9  O   UNL     1      -7.017  11.467  65.997  1.00  0.00     0.050 OA 
HETATM   10  N   UNL     1      -7.491  10.129  67.854  1.00  0.00    -0.088 N  
ENDROOT
BRANCH   6  11
HETATM   11  N   UNL     1      -8.923  13.099  68.063  1.00  0.00    -0.189 N  
HETATM   12  C   UNL     1      -9.002  14.317  68.703  1.00  0.00    -0.154 C  
HETATM   13  O   UNL     1      -8.085  14.751  69.399  1.00  0.00    -0.134 OA 
HETATM   14  H   UNL     1      -9.641  12.842  67.386  1.00  0.00     0.000 HD 
BRANCH  12  15
HETATM   15  C   UNL     1     -10.335  15.076  68.512  1.00  0.00    -0.230 C  
HETATM   16  H2  UNL     1      -9.454  16.605  67.384  1.00  0.00     0.000 HD 
HETATM   17  N   UNL     1     -10.070  16.504  68.191  1.00  0.00    -0.247 NA 
HETATM   18  H1  UNL     1     -10.949  17.005  68.064  1.00  0.00     0.000 HD 
BRANCH  15  19
HETATM   19  C   UNL     1     -11.290  14.923  69.681  1.00  0.00    -0.311 A  
HETATM   20  C   UNL     1     -12.006  13.737  69.916  1.00  0.00    -0.412 A  
HETATM   21  C   UNL     1     -11.430  15.977  70.601  1.00  0.00    -0.427 A  
HETATM   22  C   UNL     1     -12.203  15.820  71.754  1.00  0.00    -0.525 A  
HETATM   23  C   UNL     1     -12.771  13.579  71.072  1.00  0.00    -0.399 A  
HETATM   24  C   UNL     1     -12.858  14.614  71.998  1.00  0.00    -0.403 A  
ENDBRANCH  15  19
ENDBRANCH  12  15
ENDBRANCH   6  11
BRANCH   7  25
HETATM   25  C   UNL     1      -7.756   7.751  68.144  1.00  0.00    -0.119 C  
HETATM   26  O   UNL     1      -7.368   7.816  69.307  1.00  0.00    -0.082 OA 
BRANCH  25  27
HETATM   27  O   UNL     1      -7.873   6.576  67.461  1.00  0.00    -0.109 OA 
BRANCH  27  28
HETATM   28  C   UNL     1      -8.212   5.446  68.270  1.00  0.00    -0.095 C  
BRANCH  28  29
HETATM   29  O   UNL     1      -9.389   5.701  69.031  1.00  0.00    -0.120 OA 
BRANCH  29  30
HETATM   30  C   UNL     1      -9.814   4.691  69.833  1.00  0.00    -0.226 C  
HETATM   31  O   UNL     1      -9.475   3.521  69.715  1.00  0.00    -0.166 OA 
BRANCH  30  32
HETATM   32  C   UNL     1     -10.761   5.209  70.937  1.00  0.00    -0.058 C  
HETATM   33  N   UNL     1     -10.811   6.679  70.874  1.00  0.00    -0.241 N  
HETATM   34  C   UNL     1      -9.758   7.441  71.598  1.00  0.00    -0.154 C  
HETATM   35  S   UNL     1      -9.076   6.174  72.689  1.00  0.00    -0.139 S  
HETATM   36  C   UNL     1     -10.867   8.370  72.099  1.00  0.00    -0.407 C  
HETATM   37  O   UNL     1      -7.801   5.738  72.148  1.00  0.00    -0.101 OA 
HETATM   38  O   UNL     1      -9.180   6.596  74.072  1.00  0.00    -0.151 OA 
HETATM   39  C   UNL     1     -10.297   4.855  72.370  1.00  0.00    -0.204 C  
HETATM   40  C   UNL     1     -11.835   7.399  71.409  1.00  0.00    -0.300 C  
HETATM   41  C   UNL     1      -9.662   3.469  72.546  1.00  0.00    -0.209 C  
HETATM   42  C   UNL     1     -11.451   4.942  73.392  1.00  0.00    -0.306 C  
HETATM   43  O   UNL     1     -13.015   7.149  71.459  1.00  0.00    -0.374 OA 
ENDBRANCH  30  32
ENDBRANCH  29  30
ENDBRANCH  28  29
ENDBRANCH  27  28
ENDBRANCH  25  27
ENDBRANCH   7  25
TORSDOF 9
ENDMDL
MODEL      115
REMARK 921   NORMALIZED FREE ENERGY PREDICTED BY IDOCK:   -5.88 KCAL/MOL
REMARK 922        TOTAL FREE ENERGY PREDICTED BY IDOCK:   -9.47 KCAL/MOL
REMARK 923 INTER-LIGAND FREE ENERGY PREDICTED BY IDOCK:   -9.13 KCAL/MOL
REMARK 924 INTRA-LIGAND FREE ENERGY PREDICTED BY IDOCK:   -0.34 KCAL/MOL
REMARK 927      BINDING AFFINITY PREDICTED BY RF-SCORE:    0.00 PKD
ROOT
HETATM    1  C   UNL     1      -7.107  16.476  69.145  1.00  0.00    -0.227 C  
HETATM    2  C   UNL     1      -6.956  15.373  68.077  1.00  0.00    -0.133 C  
HETATM    3  S   UNL     1      -7.767  16.007  66.533  1.00  0.00    -0.002 SA 
HETATM    4  C   UNL     1      -5.448  15.198  67.858  1.00  0.00    -0.125 C  
HETATM    5  C   UNL     1      -9.380  15.150  66.866  1.00  0.00    -0.234 C  
HETATM    6  C   UNL     1     -10.468  15.934  67.653  1.00  0.00    -0.289 C  
HETATM    7  C   UNL     1      -7.739  14.079  68.423  1.00  0.00    -0.138 C  
HETATM    8  C   UNL     1      -9.944  15.131  68.872  1.00  0.00    -0.227 C  
HETATM    9  O   UNL     1     -10.009  15.221  70.077  1.00  0.00    -0.234 OA 
HETATM   10  N   UNL     1      -9.142  14.356  68.086  1.00  0.00    -0.187 N  
ENDROOT
BRANCH   6  11
HETATM   11  N   UNL     1     -10.332  17.414  67.700  1.00  0.00    -0.342 N  
HETATM   12  C   UNL     1     -10.381  18.174  66.551  1.00  0.00    -0.386 C  
HETATM   13  O   UNL     1     -10.703  17.695  65.464  1.00  0.00    -0.565 OA 
HETATM   14  H   UNL     1     -10.199  17.877  68.600  1.00  0.00     0.000 HD 
BRANCH  12  15
HETATM   15  C   UNL     1      -9.969  19.654  66.721  1.00  0.00    -0.409 C  
HETATM   16  H2  UNL     1     -11.451  20.353  65.417  1.00  0.00     0.000 HD 
HETATM   17  N   UNL     1     -10.447  20.455  65.562  1.00  0.00    -0.318 NA 
HETATM   18  H1  UNL     1     -10.175  21.431  65.675  1.00  0.00     0.000 HD 
BRANCH  15  19
HETATM   19  C   UNL     1      -8.483  19.843  66.970  1.00  0.00    -0.380 A  
HETATM   20  C   UNL     1      -7.580  20.132  65.933  1.00  0.00    -0.272 A  
HETATM   21  C   UNL     1      -7.991  19.786  68.285  1.00  0.00    -0.330 A  
HETATM   22  C   UNL     1      -6.653  20.080  68.559  1.00  0.00    -0.337 A  
HETATM   23  C   UNL     1      -6.246  20.434  66.210  1.00  0.00    -0.239 A  
HETATM   24  C   UNL     1      -5.786  20.423  67.524  1.00  0.00    -0.231 A  
ENDBRANCH  15  19
ENDBRANCH  12  15
ENDBRANCH   6  11
BRANCH   7  25
HETATM   25  C   UNL     1      -7.341  12.831  67.602  1.00  0.00    -0.144 C  
HETATM   26  O   UNL     1      -6.249  12.646  67.074  1.00  0.00    -0.250 OA 
BRANCH  25  27
HETATM   27  O   UNL     1      -8.371  11.941  67.517  1.00  0.00    -0.143 OA 
BRANCH  27  28
HETATM   28  C   UNL     1      -8.254  10.807  68.381  1.00  0.00    -0.129 C  
BRANCH  28  29
HETATM   29  O   UNL     1      -9.348  10.746  69.290  1.00  0.00    -0.167 OA 
BRANCH  29  30
HETATM   30  C   UNL     1     -10.165   9.667  69.173  1.00  0.00    -0.202 C  
HETATM   31  O   UNL     1     -11.376   9.728  69.008  1.00  0.00    -0.109 OA 
BRANCH  30  32
HETATM   32  C   UNL     1      -9.367   8.346  69.247  1.00  0.00    -0.154 C  
HETATM   33  N   UNL     1     -10.028   7.341  68.400  1.00  0.00    -0.156 N  
HETATM   34  C   UNL     1     -11.141   6.553  68.996  1.00  0.00    -0.310 C  
HETATM   35  S   UNL     1     -10.907   6.868  70.758  1.00  0.00    -0.256 S  
HETATM   36  C   UNL     1     -10.522   5.312  68.349  1.00  0.00    -0.143 C  
HETATM   37  O   UNL     1     -11.909   7.826  71.192  1.00  0.00    -0.288 OA 
HETATM   38  O   UNL     1     -10.731   5.618  71.471  1.00  0.00    -0.241 OA 
HETATM   39  C   UNL     1      -9.305   7.739  70.669  1.00  0.00    -0.162 C  
HETATM   40  C   UNL     1      -9.377   6.242  67.927  1.00  0.00    -0.114 C  
HETATM   41  C   UNL     1      -9.163   8.741  71.822  1.00  0.00    -0.332 C  
HETATM   42  C   UNL     1      -8.145   6.730  70.819  1.00  0.00    -0.118 C  
HETATM   43  O   UNL     1      -8.236   6.120  67.551  1.00  0.00    -0.109 OA 
ENDBRANCH  30  32
ENDBRANCH  29  30
ENDBRANCH  28  29
ENDBRANCH  27  28
ENDBRANCH  25  27
ENDBRANCH   7  25
TORSDOF 9
ENDMDL
MODEL      116
REMARK 921   NORMALIZED FREE ENERGY PREDICTED BY IDOCK:   -5.86 KCAL/MOL
REMARK 922        TOTAL FREE ENERGY PREDICTED BY IDOCK:   -9.45 KCAL/MOL
REMARK 923 INTER-LIGAND FREE ENERGY PREDICTED BY IDOCK:   -9.07 KCAL/MOL
REMARK 924 INTRA-LIGAND FREE ENERGY PREDICTED BY IDOCK:   -0.39 KCAL/MOL
REMARK 927      BINDING AFFINITY PREDICTED BY RF-SCORE:    0.00 PKD
ROOT
HETATM    1  C   UNL     1      -9.635  10.920  69.221  1.00  0.00    -0.067 C  
HETATM    2  C   UNL     1     -10.644  11.592  68.267  1.00  0.00    -0.200 C  
HETATM    3  S   UNL     1     -11.057  10.343  66.958  1.00  0.00     0.063 SA 
HETATM    4  C   UNL     1     -11.881  11.909  69.115  1.00  0.00    -0.371 C  
HETATM    5  C   UNL     1      -9.814  11.003  65.746  1.00  0.00    -0.235 C  
HETATM    6  C   UNL     1      -8.388  10.384  65.761  1.00  0.00    -0.158 C  
HETATM    7  C   UNL     1     -10.039  12.788  67.485  1.00  0.00    -0.213 C  
HETATM    8  C   UNL     1      -8.023  11.632  66.608  1.00  0.00    -0.098 C  
HETATM    9  O   UNL     1      -7.126  11.957  67.351  1.00  0.00    -0.108 OA 
HETATM   10  N   UNL     1      -9.247  12.198  66.398  1.00  0.00    -0.220 N  
ENDROOT
BRANCH   6  11
HETATM   11  N   UNL     1      -8.237   9.052  66.406  1.00  0.00    -0.110 N  
HETATM   12  C   UNL     1      -7.125   8.269  66.179  1.00  0.00    -0.065 C  
HETATM   13  O   UNL     1      -6.140   8.693  65.576  1.00  0.00    -0.051 OA 
HETATM   14  H   UNL     1      -8.969   8.712  67.029  1.00  0.00     0.000 HD 
BRANCH  12  15
HETATM   15  C   UNL     1      -7.222   6.819  66.703  1.00  0.00    -0.073 C  
HETATM   16  H2  UNL     1      -5.222   6.768  67.320  1.00  0.00     0.000 HD 
HETATM   17  N   UNL     1      -5.869   6.205  66.768  1.00  0.00    -0.020 NA 
HETATM   18  H1  UNL     1      -5.933   5.248  67.113  1.00  0.00     0.000 HD 
BRANCH  15  19
HETATM   19  C   UNL     1      -8.200   5.959  65.921  1.00  0.00    -0.127 A  
HETATM   20  C   UNL     1      -7.908   5.469  64.637  1.00  0.00    -0.108 A  
HETATM   21  C   UNL     1      -9.418   5.585  66.515  1.00  0.00    -0.161 A  
HETATM   22  C   UNL     1     -10.280   4.693  65.873  1.00  0.00    -0.303 A  
HETATM   23  C   UNL     1      -8.767   4.571  64.001  1.00  0.00    -0.139 A  
HETATM   24  C   UNL     1      -9.945   4.172  64.625  1.00  0.00    -0.182 A  
ENDBRANCH  15  19
ENDBRANCH  12  15
ENDBRANCH   6  11
BRANCH   7  25
HETATM   25  C   UNL     1     -11.071  13.718  66.807  1.00  0.00    -0.308 C  
HETATM   26  O   UNL     1     -12.276  13.735  67.042  1.00  0.00    -0.401 OA 
BRANCH  25  27
HETATM   27  O   UNL     1     -10.480  14.530  65.884  1.00  0.00    -0.288 OA 
BRANCH  27  28
HETATM   28  C   UNL     1     -10.529  15.925  66.196  1.00  0.00    -0.326 C  
BRANCH  28  29
HETATM   29  O   UNL     1      -9.297  16.562  65.873  1.00  0.00    -0.435 OA 
BRANCH  29  30
HETATM   30  C   UNL     1      -8.306  16.451  66.794  1.00  0.00    -0.250 C  
HETATM   31  O   UNL     1      -7.539  15.501  66.877  1.00  0.00    -0.209 OA 
BRANCH  30  32
HETATM   32  C   UNL     1      -8.247  17.692  67.711  1.00  0.00    -0.225 C  
HETATM   33  N   UNL     1      -9.276  18.652  67.283  1.00  0.00    -0.284 N  
HETATM   34  C   UNL     1      -8.929  19.602  66.191  1.00  0.00    -0.334 C  
HETATM   35  S   UNL     1      -7.129  19.467  66.151  1.00  0.00    -0.275 S  
HETATM   36  C   UNL     1      -9.598  20.700  67.021  1.00  0.00    -0.484 C  
HETATM   37  O   UNL     1      -6.753  18.661  65.002  1.00  0.00    -0.526 OA 
HETATM   38  O   UNL     1      -6.525  20.768  66.362  1.00  0.00    -0.236 OA 
HETATM   39  C   UNL     1      -6.898  18.447  67.647  1.00  0.00    -0.207 C  
HETATM   40  C   UNL     1      -9.756  19.625  68.107  1.00  0.00    -0.402 C  
HETATM   41  C   UNL     1      -5.643  17.572  67.523  1.00  0.00    -0.147 C  
HETATM   42  C   UNL     1      -6.682  19.354  68.878  1.00  0.00    -0.348 C  
HETATM   43  O   UNL     1      -9.971  19.599  69.294  1.00  0.00    -0.436 OA 
ENDBRANCH  30  32
ENDBRANCH  29  30
ENDBRANCH  28  29
ENDBRANCH  27  28
ENDBRANCH  25  27
ENDBRANCH   7  25
TORSDOF 9
ENDMDL
MODEL      117
REMARK 921   NORMALIZED FREE ENERGY PREDICTED BY IDOCK:   -5.85 KCAL/MOL
REMARK 922        TOTAL FREE ENERGY PREDICTED BY IDOCK:   -9.44 KCAL/MOL
REMARK 923 INTER-LIGAND FREE ENERGY PREDICTED BY IDOCK:   -8.07 KCAL/MOL
REMARK 924 INTRA-LIGAND FREE ENERGY PREDICTED BY IDOCK:   -1.36 KCAL/MOL
REMARK 927      BINDING AFFINITY PREDICTED BY RF-SCORE:    0.00 PKD
ROOT
HETATM    1  C   UNL     1      -7.857   6.759  69.644  1.00  0.00    -0.115 C  
HETATM    2  C   UNL     1      -9.218   6.940  70.347  1.00  0.00    -0.156 C  
HETATM    3  S   UNL     1     -10.331   5.597  69.715  1.00  0.00    -0.308 SA 
HETATM    4  C   UNL     1      -8.948   6.753  71.845  1.00  0.00    -0.135 C  
HETATM    5  C   UNL     1     -11.114   6.671  68.417  1.00  0.00    -0.198 C  
HETATM    6  C   UNL     1     -10.470   6.681  67.002  1.00  0.00    -0.298 C  
HETATM    7  C   UNL     1      -9.936   8.258  69.954  1.00  0.00    -0.190 C  
HETATM    8  C   UNL     1      -9.797   7.992  67.488  1.00  0.00    -0.172 C  
HETATM    9  O   UNL     1      -8.854   8.672  67.151  1.00  0.00    -0.126 OA 
HETATM   10  N   UNL     1     -10.535   8.010  68.635  1.00  0.00    -0.196 N  
ENDROOT
BRANCH   6  11
HETATM   11  N   UNL     1      -9.579   5.542  66.657  1.00  0.00    -0.143 N  
HETATM   12  C   UNL     1     -10.004   4.527  65.827  1.00  0.00    -0.239 C  
HETATM   13  O   UNL     1     -11.063   4.593  65.204  1.00  0.00    -0.169 OA 
HETATM   14  H   UNL     1      -8.634   5.511  67.041  1.00  0.00     0.000 HD 
BRANCH  12  15
HETATM   15  C   UNL     1      -9.075   3.294  65.765  1.00  0.00    -0.153 C  
HETATM   16  H2  UNL     1     -10.154   2.395  64.212  1.00  0.00     0.000 HD 
HETATM   17  N   UNL     1      -9.784   2.150  65.130  1.00  0.00    -0.345 NA 
HETATM   18  H1  UNL     1      -9.171   1.336  65.090  1.00  0.00     0.000 HD 
BRANCH  15  19
HETATM   19  C   UNL     1      -8.480   2.918  67.111  1.00  0.00    -0.104 A  
HETATM   20  C   UNL     1      -7.129   3.144  67.424  1.00  0.00    -0.054 A  
HETATM   21  C   UNL     1      -9.312   2.377  68.106  1.00  0.00    -0.263 A  
HETATM   22  C   UNL     1      -8.822   2.139  69.393  1.00  0.00    -0.140 A  
HETATM   23  C   UNL     1      -6.644   2.915  68.712  1.00  0.00    -0.033 A  
HETATM   24  C   UNL     1      -7.494   2.426  69.700  1.00  0.00    -0.043 A  
ENDBRANCH  15  19
ENDBRANCH  12  15
ENDBRANCH   6  11
BRANCH   7  25
HETATM   25  C   UNL     1     -11.101   8.673  70.881  1.00  0.00    -0.264 C  
HETATM   26  O   UNL     1     -12.041   7.954  71.208  1.00  0.00    -0.296 OA 
BRANCH  25  27
HETATM   27  O   UNL     1     -10.971   9.965  71.297  1.00  0.00    -0.320 OA 
BRANCH  27  28
HETATM   28  C   UNL     1     -11.854  10.891  70.655  1.00  0.00    -0.352 C  
BRANCH  28  29
HETATM   29  O   UNL     1     -11.131  11.778  69.807  1.00  0.00    -0.145 OA 
BRANCH  29  30
HETATM   30  C   UNL     1     -11.269  11.575  68.472  1.00  0.00    -0.258 C  
HETATM   31  O   UNL     1     -12.197  10.969  67.954  1.00  0.00    -0.438 OA 
BRANCH  30  32
HETATM   32  C   UNL     1     -10.118  12.234  67.680  1.00  0.00    -0.200 C  
HETATM   33  N   UNL     1      -9.368  13.126  68.579  1.00  0.00    -0.141 N  
HETATM   34  C   UNL     1      -9.869  14.515  68.756  1.00  0.00    -0.220 C  
HETATM   35  S   UNL     1     -11.005  14.673  67.361  1.00  0.00    -0.318 S  
HETATM   36  C   UNL     1      -8.419  14.986  68.623  1.00  0.00    -0.168 C  
HETATM   37  O   UNL     1     -12.365  14.564  67.860  1.00  0.00    -0.188 OA 
HETATM   38  O   UNL     1     -10.618  15.793  66.526  1.00  0.00    -0.306 OA 
HETATM   39  C   UNL     1     -10.599  13.114  66.502  1.00  0.00    -0.284 C  
HETATM   40  C   UNL     1      -8.090  13.518  68.319  1.00  0.00    -0.155 C  
HETATM   41  C   UNL     1     -11.813  12.589  65.723  1.00  0.00    -0.494 C  
HETATM   42  C   UNL     1      -9.483  13.357  65.464  1.00  0.00     0.161 C  
HETATM   43  O   UNL     1      -7.178  12.906  67.818  1.00  0.00    -0.104 OA 
ENDBRANCH  30  32
ENDBRANCH  29  30
ENDBRANCH  28  29
ENDBRANCH  27  28
ENDBRANCH  25  27
ENDBRANCH   7  25
TORSDOF 9
ENDMDL
MODEL      118
REMARK 921   NORMALIZED FREE ENERGY PREDICTED BY IDOCK:   -5.84 KCAL/MOL
REMARK 922        TOTAL FREE ENERGY PREDICTED BY IDOCK:   -9.42 KCAL/MOL
REMARK 923 INTER-LIGAND FREE ENERGY PREDICTED BY IDOCK:   -8.02 KCAL/MOL
REMARK 924 INTRA-LIGAND FREE ENERGY PREDICTED BY IDOCK:   -1.40 KCAL/MOL
REMARK 927      BINDING AFFINITY PREDICTED BY RF-SCORE:    0.00 PKD
ROOT
HETATM    1  C   UNL     1      -9.703  11.011  68.710  1.00  0.00    -0.199 C  
HETATM    2  C   UNL     1      -8.250  10.900  68.202  1.00  0.00    -0.121 C  
HETATM    3  S   UNL     1      -8.131  11.958  66.683  1.00  0.00     0.005 SA 
HETATM    4  C   UNL     1      -7.366  11.465  69.320  1.00  0.00    -0.042 C  
HETATM    5  C   UNL     1      -8.411  10.544  65.511  1.00  0.00    -0.170 C  
HETATM    6  C   UNL     1      -9.873  10.241  65.077  1.00  0.00    -0.329 C  
HETATM    7  C   UNL     1      -7.884   9.474  67.712  1.00  0.00    -0.095 C  
HETATM    8  C   UNL     1      -9.806   9.144  66.173  1.00  0.00    -0.293 C  
HETATM    9  O   UNL     1     -10.599   8.479  66.799  1.00  0.00    -0.283 OA 
HETATM   10  N   UNL     1      -8.471   9.348  66.371  1.00  0.00    -0.124 N  
ENDROOT
BRANCH   6  11
HETATM   11  N   UNL     1     -10.870  11.329  65.260  1.00  0.00    -0.236 N  
HETATM   12  C   UNL     1     -11.136  12.232  64.253  1.00  0.00    -0.348 C  
HETATM   13  O   UNL     1     -10.694  12.089  63.114  1.00  0.00    -0.368 OA 
HETATM   14  H   UNL     1     -11.368  11.408  66.147  1.00  0.00     0.000 HD 
BRANCH  12  15
HETATM   15  C   UNL     1     -11.993  13.449  64.669  1.00  0.00    -0.399 C  
HETATM   16  H2  UNL     1     -12.814  13.690  62.758  1.00  0.00     0.000 HD 
HETATM   17  N   UNL     1     -12.354  14.254  63.471  1.00  0.00    -1.122 NA 
HETATM   18  H1  UNL     1     -12.920  15.057  63.746  1.00  0.00     0.000 HD 
BRANCH  15  19
HETATM   19  C   UNL     1     -11.352  14.297  65.753  1.00  0.00    -0.326 A  
HETATM   20  C   UNL     1     -11.804  14.282  67.083  1.00  0.00    -0.454 A  
HETATM   21  C   UNL     1     -10.231  15.086  65.440  1.00  0.00    -0.411 A  
HETATM   22  C   UNL     1      -9.544  15.778  66.441  1.00  0.00    -0.311 A  
HETATM   23  C   UNL     1     -11.111  14.966  68.083  1.00  0.00    -0.290 A  
HETATM   24  C   UNL     1      -9.973  15.702  67.764  1.00  0.00    -0.223 A  
ENDBRANCH  15  19
ENDBRANCH  12  15
ENDBRANCH   6  11
BRANCH   7  25
HETATM   25  C   UNL     1      -6.371   9.207  67.543  1.00  0.00    -0.063 C  
HETATM   26  O   UNL     1      -5.522  10.057  67.293  1.00  0.00    -0.041 OA 
BRANCH  25  27
HETATM   27  O   UNL     1      -6.079   7.883  67.694  1.00  0.00    -0.047 OA 
BRANCH  27  28
HETATM   28  C   UNL     1      -5.641   7.228  66.499  1.00  0.00    -0.024 C  
BRANCH  28  29
HETATM   29  O   UNL     1      -6.469   6.108  66.201  1.00  0.00    -0.043 OA 
BRANCH  29  30
HETATM   30  C   UNL     1      -7.261   6.224  65.105  1.00  0.00    -0.070 C  
HETATM   31  O   UNL     1      -6.903   6.704  64.037  1.00  0.00    -0.046 OA 
BRANCH  30  32
HETATM   32  C   UNL     1      -8.670   5.646  65.363  1.00  0.00    -0.137 C  
HETATM   33  N   UNL     1      -8.697   5.034  66.701  1.00  0.00    -0.109 N  
HETATM   34  C   UNL     1      -8.235   3.625  66.830  1.00  0.00    -0.095 C  
HETATM   35  S   UNL     1      -8.257   3.076  65.110  1.00  0.00    -0.092 S  
HETATM   36  C   UNL     1      -9.449   3.378  67.730  1.00  0.00    -0.229 C  
HETATM   37  O   UNL     1      -6.889   3.041  64.621  1.00  0.00    -0.039 OA 
HETATM   38  O   UNL     1      -9.117   1.920  64.964  1.00  0.00    -0.124 OA 
HETATM   39  C   UNL     1      -9.075   4.531  64.371  1.00  0.00    -0.143 C  
HETATM   40  C   UNL     1      -9.856   4.817  67.382  1.00  0.00    -0.175 C  
HETATM   41  C   UNL     1      -8.624   4.730  62.917  1.00  0.00    -0.119 C  
HETATM   42  C   UNL     1     -10.603   4.316  64.331  1.00  0.00    -0.079 C  
HETATM   43  O   UNL     1     -10.861   5.484  67.434  1.00  0.00    -0.205 OA 
ENDBRANCH  30  32
ENDBRANCH  29  30
ENDBRANCH  28  29
ENDBRANCH  27  28
ENDBRANCH  25  27
ENDBRANCH   7  25
TORSDOF 9
ENDMDL
MODEL      119
REMARK 921   NORMALIZED FREE ENERGY PREDICTED BY IDOCK:   -5.84 KCAL/MOL
REMARK 922        TOTAL FREE ENERGY PREDICTED BY IDOCK:   -9.41 KCAL/MOL
REMARK 923 INTER-LIGAND FREE ENERGY PREDICTED BY IDOCK:   -8.52 KCAL/MOL
REMARK 924 INTRA-LIGAND FREE ENERGY PREDICTED BY IDOCK:   -0.89 KCAL/MOL
REMARK 927      BINDING AFFINITY PREDICTED BY RF-SCORE:    0.00 PKD
ROOT
HETATM    1  C   UNL     1     -10.652   7.393  66.955  1.00  0.00    -0.414 C  
HETATM    2  C   UNL     1     -10.109   8.689  67.593  1.00  0.00    -0.213 C  
HETATM    3  S   UNL     1      -8.396   8.311  68.198  1.00  0.00    -0.129 SA 
HETATM    4  C   UNL     1     -10.062   9.728  66.465  1.00  0.00    -0.307 C  
HETATM    5  C   UNL     1      -8.944   7.953  69.937  1.00  0.00    -0.146 C  
HETATM    6  C   UNL     1      -9.300   6.483  70.296  1.00  0.00    -0.159 C  
HETATM    7  C   UNL     1     -10.886   9.114  68.866  1.00  0.00    -0.070 C  
HETATM    8  C   UNL     1     -10.764   6.946  70.073  1.00  0.00    -0.243 C  
HETATM    9  O   UNL     1     -11.832   6.415  69.874  1.00  0.00    -0.384 OA 
HETATM   10  N   UNL     1     -10.388   8.252  69.947  1.00  0.00    -0.213 N  
ENDROOT
BRANCH   6  11
HETATM   11  N   UNL     1      -8.775   5.422  69.396  1.00  0.00    -0.105 N  
HETATM   12  C   UNL     1      -9.092   4.095  69.594  1.00  0.00    -0.119 C  
HETATM   13  O   UNL     1      -9.945   3.741  70.407  1.00  0.00    -0.137 OA 
HETATM   14  H   UNL     1      -8.169   5.681  68.617  1.00  0.00     0.000 HD 
BRANCH  12  15
HETATM   15  C   UNL     1      -8.276   3.090  68.750  1.00  0.00    -0.060 C  
HETATM   16  H2  UNL     1      -6.717   2.983  70.144  1.00  0.00     0.000 HD 
HETATM   17  N   UNL     1      -6.842   3.135  69.143  1.00  0.00    -0.040 NA 
HETATM   18  H1  UNL     1      -6.304   2.472  68.586  1.00  0.00     0.000 HD 
BRANCH  15  19
HETATM   19  C   UNL     1      -8.461   3.268  67.253  1.00  0.00    -0.106 A  
HETATM   20  C   UNL     1      -9.647   3.778  66.699  1.00  0.00    -0.197 A  
HETATM   21  C   UNL     1      -7.397   2.968  66.385  1.00  0.00    -0.074 A  
HETATM   22  C   UNL     1      -7.493   3.240  65.018  1.00  0.00    -0.073 A  
HETATM   23  C   UNL     1      -9.738   4.057  65.335  1.00  0.00    -0.196 A  
HETATM   24  C   UNL     1      -8.656   3.802  64.497  1.00  0.00    -0.105 A  
ENDBRANCH  15  19
ENDBRANCH  12  15
ENDBRANCH   6  11
BRANCH   7  25
HETATM   25  C   UNL     1     -10.640  10.567  69.331  1.00  0.00    -0.240 C  
HETATM   26  O   UNL     1      -9.567  11.160  69.275  1.00  0.00    -0.074 OA 
BRANCH  25  27
HETATM   27  O   UNL     1     -11.777  11.129  69.836  1.00  0.00    -0.292 OA 
BRANCH  27  28
HETATM   28  C   UNL     1     -11.701  12.541  70.051  1.00  0.00    -0.221 C  
BRANCH  28  29
HETATM   29  O   UNL     1     -12.364  13.250  69.008  1.00  0.00    -0.184 OA 
BRANCH  29  30
HETATM   30  C   UNL     1     -12.159  14.591  68.971  1.00  0.00    -0.251 C  
HETATM   31  O   UNL     1     -12.154  15.320  69.954  1.00  0.00    -0.318 OA 
BRANCH  30  32
HETATM   32  C   UNL     1     -11.902  15.083  67.529  1.00  0.00    -0.164 C  
HETATM   33  N   UNL     1     -11.616  13.921  66.672  1.00  0.00    -0.355 N  
HETATM   34  C   UNL     1     -10.213  13.428  66.616  1.00  0.00    -0.274 C  
HETATM   35  S   UNL     1      -9.308  14.822  67.321  1.00  0.00    -0.214 S  
HETATM   36  C   UNL     1     -10.383  13.310  65.100  1.00  0.00    -0.336 C  
HETATM   37  O   UNL     1      -8.932  14.486  68.683  1.00  0.00    -0.184 OA 
HETATM   38  O   UNL     1      -8.313  15.299  66.382  1.00  0.00    -0.185 OA 
HETATM   39  C   UNL     1     -10.681  16.024  67.403  1.00  0.00    -0.306 C  
HETATM   40  C   UNL     1     -11.757  13.960  65.318  1.00  0.00    -0.340 C  
HETATM   41  C   UNL     1     -10.472  17.013  68.558  1.00  0.00    -0.373 C  
HETATM   42  C   UNL     1     -10.727  16.864  66.108  1.00  0.00    -0.109 C  
HETATM   43  O   UNL     1     -12.580  14.526  64.641  1.00  0.00    -0.607 OA 
ENDBRANCH  30  32
ENDBRANCH  29  30
ENDBRANCH  28  29
ENDBRANCH  27  28
ENDBRANCH  25  27
ENDBRANCH   7  25
TORSDOF 9
ENDMDL
MODEL      120
REMARK 921   NORMALIZED FREE ENERGY PREDICTED BY IDOCK:   -5.83 KCAL/MOL
REMARK 922        TOTAL FREE ENERGY PREDICTED BY IDOCK:   -9.40 KCAL/MOL
REMARK 923 INTER-LIGAND FREE ENERGY PREDICTED BY IDOCK:   -8.65 KCAL/MOL
REMARK 924 INTRA-LIGAND FREE ENERGY PREDICTED BY IDOCK:   -0.75 KCAL/MOL
REMARK 927      BINDING AFFINITY PREDICTED BY RF-SCORE:    0.00 PKD
ROOT
HETATM    1  C   UNL     1      -8.870   8.143  68.401  1.00  0.00    -0.133 C  
HETATM    2  C   UNL     1      -9.230   8.354  69.887  1.00  0.00    -0.151 C  
HETATM    3  S   UNL     1      -8.427   6.976  70.834  1.00  0.00    -0.135 SA 
HETATM    4  C   UNL     1      -8.619   9.704  70.282  1.00  0.00    -0.234 C  
HETATM    5  C   UNL     1      -9.952   5.916  70.849  1.00  0.00    -0.187 C  
HETATM    6  C   UNL     1     -10.135   4.894  69.691  1.00  0.00    -0.230 C  
HETATM    7  C   UNL     1     -10.746   8.192  70.175  1.00  0.00    -0.243 C  
HETATM    8  C   UNL     1     -11.061   5.982  69.085  1.00  0.00    -0.335 C  
HETATM    9  O   UNL     1     -11.526   6.232  67.997  1.00  0.00    -0.138 OA 
HETATM   10  N   UNL     1     -10.994   6.744  70.215  1.00  0.00    -0.271 N  
ENDROOT
BRANCH   6  11
HETATM   11  N   UNL     1      -8.919   4.524  68.918  1.00  0.00    -0.104 N  
HETATM   12  C   UNL     1      -8.720   3.234  68.473  1.00  0.00    -0.103 C  
HETATM   13  O   UNL     1      -9.598   2.376  68.544  1.00  0.00    -0.185 OA 
HETATM   14  H   UNL     1      -8.220   5.237  68.713  1.00  0.00     0.000 HD 
BRANCH  12  15
HETATM   15  C   UNL     1      -7.309   2.940  67.917  1.00  0.00    -0.053 C  
HETATM   16  H2  UNL     1      -6.389   3.120  69.790  1.00  0.00     0.000 HD 
HETATM   17  N   UNL     1      -6.272   3.474  68.841  1.00  0.00    -0.028 NA 
HETATM   18  H1  UNL     1      -5.341   3.280  68.474  1.00  0.00     0.000 HD 
BRANCH  15  19
HETATM   19  C   UNL     1      -7.107   3.427  66.493  1.00  0.00    -0.062 A  
HETATM   20  C   UNL     1      -8.185   3.732  65.644  1.00  0.00    -0.105 A  
HETATM   21  C   UNL     1      -5.803   3.640  66.014  1.00  0.00    -0.019 A  
HETATM   22  C   UNL     1      -5.588   4.206  64.755  1.00  0.00    -0.014 A  
HETATM   23  C   UNL     1      -7.969   4.305  64.391  1.00  0.00    -0.087 A  
HETATM   24  C   UNL     1      -6.672   4.556  63.952  1.00  0.00    -0.043 A  
ENDBRANCH  15  19
ENDBRANCH  12  15
ENDBRANCH   6  11
BRANCH   7  25
HETATM   25  C   UNL     1     -11.217   8.744  71.540  1.00  0.00    -0.307 C  
HETATM   26  O   UNL     1     -11.364   8.082  72.563  1.00  0.00    -0.353 OA 
BRANCH  25  27
HETATM   27  O   UNL     1     -11.471  10.082  71.475  1.00  0.00    -0.332 OA 
BRANCH  27  28
HETATM   28  C   UNL     1     -12.499  10.452  70.551  1.00  0.00    -0.317 C  
BRANCH  28  29
HETATM   29  O   UNL     1     -12.162  11.658  69.872  1.00  0.00    -0.283 OA 
BRANCH  29  30
HETATM   30  C   UNL     1     -11.528  11.517  68.680  1.00  0.00    -0.293 C  
HETATM   31  O   UNL     1     -11.747  10.619  67.879  1.00  0.00    -0.506 OA 
BRANCH  30  32
HETATM   32  C   UNL     1     -10.508  12.654  68.447  1.00  0.00    -0.238 C  
HETATM   33  N   UNL     1     -11.140  13.940  68.784  1.00  0.00    -0.255 N  
HETATM   34  C   UNL     1     -11.943  14.617  67.729  1.00  0.00    -0.268 C  
HETATM   35  S   UNL     1     -11.404  13.742  66.245  1.00  0.00    -0.331 S  
HETATM   36  C   UNL     1     -11.261  15.923  68.141  1.00  0.00    -0.339 C  
HETATM   37  O   UNL     1     -12.448  12.810  65.854  1.00  0.00    -0.560 OA 
HETATM   38  O   UNL     1     -10.861  14.679  65.282  1.00  0.00    -0.328 OA 
HETATM   39  C   UNL     1     -10.040  12.776  66.978  1.00  0.00    -0.240 C  
HETATM   40  C   UNL     1     -10.416  15.054  69.083  1.00  0.00    -0.247 C  
HETATM   41  C   UNL     1      -9.842  11.453  66.224  1.00  0.00    -0.250 C  
HETATM   42  C   UNL     1      -8.713  13.554  66.853  1.00  0.00    -0.158 C  
HETATM   43  O   UNL     1      -9.377  15.164  69.686  1.00  0.00    -0.189 OA 
ENDBRANCH  30  32
ENDBRANCH  29  30
ENDBRANCH  28  29
ENDBRANCH  27  28
ENDBRANCH  25  27
ENDBRANCH   7  25
TORSDOF 9
ENDMDL
MODEL      121
REMARK 921   NORMALIZED FREE ENERGY PREDICTED BY IDOCK:   -5.82 KCAL/MOL
REMARK 922        TOTAL FREE ENERGY PREDICTED BY IDOCK:   -9.38 KCAL/MOL
REMARK 923 INTER-LIGAND FREE ENERGY PREDICTED BY IDOCK:   -8.20 KCAL/MOL
REMARK 924 INTRA-LIGAND FREE ENERGY PREDICTED BY IDOCK:   -1.18 KCAL/MOL
REMARK 927      BINDING AFFINITY PREDICTED BY RF-SCORE:    0.00 PKD
ROOT
HETATM    1  C   UNL     1      -7.449  10.191  63.357  1.00  0.00    -0.139 C  
HETATM    2  C   UNL     1      -7.602   8.896  64.181  1.00  0.00    -0.120 C  
HETATM    3  S   UNL     1      -8.923   9.215  65.444  1.00  0.00    -0.198 SA 
HETATM    4  C   UNL     1      -8.055   7.816  63.191  1.00  0.00    -0.078 C  
HETATM    5  C   UNL     1      -7.721   9.660  66.788  1.00  0.00    -0.098 C  
HETATM    6  C   UNL     1      -7.333  11.158  66.945  1.00  0.00    -0.138 C  
HETATM    7  C   UNL     1      -6.340   8.554  65.017  1.00  0.00    -0.060 C  
HETATM    8  C   UNL     1      -6.071  10.756  66.135  1.00  0.00    -0.133 C  
HETATM    9  O   UNL     1      -5.217  11.329  65.500  1.00  0.00    -0.268 OA 
HETATM   10  N   UNL     1      -6.390   9.430  66.195  1.00  0.00    -0.067 N  
ENDROOT
BRANCH   6  11
HETATM   11  N   UNL     1      -8.246  12.160  66.334  1.00  0.00    -0.395 N  
HETATM   12  C   UNL     1      -9.332  12.653  67.025  1.00  0.00    -0.220 C  
HETATM   13  O   UNL     1      -9.505  12.422  68.221  1.00  0.00    -0.209 OA 
HETATM   14  H   UNL     1      -8.065  12.489  65.385  1.00  0.00     0.000 HD 
BRANCH  12  15
HETATM   15  C   UNL     1     -10.329  13.480  66.182  1.00  0.00    -0.296 C  
HETATM   16  H2  UNL     1      -9.934  12.412  64.425  1.00  0.00     0.000 HD 
HETATM   17  N   UNL     1      -9.985  13.381  64.738  1.00  0.00    -0.614 NA 
HETATM   18  H1  UNL     1     -10.643  13.927  64.182  1.00  0.00     0.000 HD 
BRANCH  15  19
HETATM   19  C   UNL     1     -10.455  14.923  66.639  1.00  0.00    -0.292 A  
HETATM   20  C   UNL     1     -11.151  15.282  67.805  1.00  0.00    -0.318 A  
HETATM   21  C   UNL     1      -9.808  15.936  65.911  1.00  0.00    -0.383 A  
HETATM   22  C   UNL     1      -9.800  17.254  66.376  1.00  0.00    -0.310 A  
HETATM   23  C   UNL     1     -11.134  16.597  68.273  1.00  0.00    -0.295 A  
HETATM   24  C   UNL     1     -10.447  17.580  67.566  1.00  0.00    -0.355 A  
ENDBRANCH  15  19
ENDBRANCH  12  15
ENDBRANCH   6  11
BRANCH   7  25
HETATM   25  C   UNL     1      -6.285   7.108  65.562  1.00  0.00    -0.037 C  
HETATM   26  O   UNL     1      -6.219   6.092  64.877  1.00  0.00    -0.028 OA 
BRANCH  25  27
HETATM   27  O   UNL     1      -6.333   7.087  66.925  1.00  0.00    -0.048 OA 
BRANCH  27  28
HETATM   28  C   UNL     1      -7.316   6.204  67.474  1.00  0.00    -0.077 C  
BRANCH  28  29
HETATM   29  O   UNL     1      -7.098   6.005  68.868  1.00  0.00    -0.075 OA 
BRANCH  29  30
HETATM   30  C   UNL     1      -7.546   6.987  69.691  1.00  0.00    -0.104 C  
HETATM   31  O   UNL     1      -6.847   7.595  70.491  1.00  0.00    -0.046 OA 
BRANCH  30  32
HETATM   32  C   UNL     1      -9.049   7.264  69.471  1.00  0.00    -0.143 C  
HETATM   33  N   UNL     1      -9.349   8.642  69.895  1.00  0.00    -0.157 N  
HETATM   34  C   UNL     1      -9.647   8.876  71.334  1.00  0.00    -0.289 C  
HETATM   35  S   UNL     1      -9.976   7.199  71.916  1.00  0.00    -0.166 S  
HETATM   36  C   UNL     1     -10.803   9.772  70.881  1.00  0.00    -0.399 C  
HETATM   37  O   UNL     1      -8.818   6.735  72.661  1.00  0.00    -0.123 OA 
HETATM   38  O   UNL     1     -11.301   7.122  72.497  1.00  0.00    -0.271 OA 
HETATM   39  C   UNL     1      -9.977   6.346  70.301  1.00  0.00    -0.168 C  
HETATM   40  C   UNL     1     -10.448   9.318  69.458  1.00  0.00    -0.220 C  
HETATM   41  C   UNL     1      -9.519   4.889  70.454  1.00  0.00    -0.233 C  
HETATM   42  C   UNL     1     -11.410   6.298  69.729  1.00  0.00    -0.506 C  
HETATM   43  O   UNL     1     -10.986   9.306  68.378  1.00  0.00    -0.121 OA 
ENDBRANCH  30  32
ENDBRANCH  29  30
ENDBRANCH  28  29
ENDBRANCH  27  28
ENDBRANCH  25  27
ENDBRANCH   7  25
TORSDOF 9
ENDMDL
MODEL      122
REMARK 921   NORMALIZED FREE ENERGY PREDICTED BY IDOCK:   -5.82 KCAL/MOL
REMARK 922        TOTAL FREE ENERGY PREDICTED BY IDOCK:   -9.38 KCAL/MOL
REMARK 923 INTER-LIGAND FREE ENERGY PREDICTED BY IDOCK:   -9.27 KCAL/MOL
REMARK 924 INTRA-LIGAND FREE ENERGY PREDICTED BY IDOCK:   -0.11 KCAL/MOL
REMARK 927      BINDING AFFINITY PREDICTED BY RF-SCORE:    0.00 PKD
ROOT
HETATM    1  C   UNL     1      -6.939  10.463  67.446  1.00  0.00    -0.085 C  
HETATM    2  C   UNL     1      -7.545   9.100  67.051  1.00  0.00    -0.091 C  
HETATM    3  S   UNL     1      -9.340   9.395  66.688  1.00  0.00    -0.176 SA 
HETATM    4  C   UNL     1      -6.805   8.660  65.782  1.00  0.00    -0.068 C  
HETATM    5  C   UNL     1      -9.904   8.900  68.386  1.00  0.00    -0.174 C  
HETATM    6  C   UNL     1     -10.030  10.015  69.463  1.00  0.00    -0.228 C  
HETATM    7  C   UNL     1      -7.548   8.074  68.216  1.00  0.00    -0.109 C  
HETATM    8  C   UNL     1      -8.637   9.510  69.925  1.00  0.00    -0.204 C  
HETATM    9  O   UNL     1      -7.730   9.935  70.603  1.00  0.00    -0.289 OA 
HETATM   10  N   UNL     1      -8.681   8.445  69.074  1.00  0.00    -0.141 N  
ENDROOT
BRANCH   6  11
HETATM   11  N   UNL     1     -10.121  11.417  68.974  1.00  0.00    -0.379 N  
HETATM   12  C   UNL     1     -11.240  11.872  68.310  1.00  0.00    -0.261 C  
HETATM   13  O   UNL     1     -12.271  11.205  68.235  1.00  0.00    -0.613 OA 
HETATM   14  H   UNL     1      -9.340  12.055  69.134  1.00  0.00     0.000 HD 
BRANCH  12  15
HETATM   15  C   UNL     1     -11.091  13.256  67.639  1.00  0.00    -0.269 C  
HETATM   16  H2  UNL     1     -11.631  14.300  69.373  1.00  0.00     0.000 HD 
HETATM   17  N   UNL     1     -11.880  14.274  68.384  1.00  0.00    -0.390 NA 
HETATM   18  H1  UNL     1     -11.781  15.187  67.942  1.00  0.00     0.000 HD 
BRANCH  15  19
HETATM   19  C   UNL     1     -11.425  13.249  66.158  1.00  0.00    -0.359 A  
HETATM   20  C   UNL     1     -11.598  12.058  65.433  1.00  0.00    -0.343 A  
HETATM   21  C   UNL     1     -11.627  14.470  65.491  1.00  0.00    -0.350 A  
HETATM   22  C   UNL     1     -12.058  14.493  64.162  1.00  0.00    -0.377 A  
HETATM   23  C   UNL     1     -12.037  12.083  64.109  1.00  0.00    -0.458 A  
HETATM   24  C   UNL     1     -12.281  13.300  63.478  1.00  0.00    -0.513 A  
ENDBRANCH  15  19
ENDBRANCH  12  15
ENDBRANCH   6  11
BRANCH   7  25
HETATM   25  C   UNL     1      -7.790   6.606  67.797  1.00  0.00    -0.112 C  
HETATM   26  O   UNL     1      -6.956   5.707  67.839  1.00  0.00    -0.062 OA 
BRANCH  25  27
HETATM   27  O   UNL     1      -9.066   6.420  67.350  1.00  0.00    -0.113 OA 
BRANCH  27  28
HETATM   28  C   UNL     1      -9.666   5.186  67.755  1.00  0.00    -0.148 C  
BRANCH  28  29
HETATM   29  O   UNL     1     -10.414   5.354  68.956  1.00  0.00    -0.218 OA 
BRANCH  29  30
HETATM   30  C   UNL     1      -9.983   4.650  70.034  1.00  0.00    -0.232 C  
HETATM   31  O   UNL     1      -9.211   3.703  69.981  1.00  0.00    -0.119 OA 
BRANCH  30  32
HETATM   32  C   UNL     1     -10.570   5.214  71.346  1.00  0.00    -0.137 C  
HETATM   33  N   UNL     1     -10.067   6.583  71.546  1.00  0.00    -0.190 N  
HETATM   34  C   UNL     1      -8.749   6.748  72.215  1.00  0.00    -0.128 C  
HETATM   35  S   UNL     1      -8.506   5.117  72.949  1.00  0.00    -0.115 S  
HETATM   36  C   UNL     1      -9.380   7.874  73.037  1.00  0.00    -0.329 C  
HETATM   37  O   UNL     1      -7.539   4.389  72.146  1.00  0.00    -0.076 OA 
HETATM   38  O   UNL     1      -8.328   5.235  74.383  1.00  0.00    -0.104 OA 
HETATM   39  C   UNL     1     -10.156   4.415  72.605  1.00  0.00    -0.173 C  
HETATM   40  C   UNL     1     -10.697   7.482  72.352  1.00  0.00    -0.263 C  
HETATM   41  C   UNL     1     -10.077   2.892  72.437  1.00  0.00    -0.231 C  
HETATM   42  C   UNL     1     -11.102   4.677  73.796  1.00  0.00    -0.333 C  
HETATM   43  O   UNL     1     -11.876   7.659  72.544  1.00  0.00    -0.311 OA 
ENDBRANCH  30  32
ENDBRANCH  29  30
ENDBRANCH  28  29
ENDBRANCH  27  28
ENDBRANCH  25  27
ENDBRANCH   7  25
TORSDOF 9
ENDMDL
MODEL      123
REMARK 921   NORMALIZED FREE ENERGY PREDICTED BY IDOCK:   -5.81 KCAL/MOL
REMARK 922        TOTAL FREE ENERGY PREDICTED BY IDOCK:   -9.37 KCAL/MOL
REMARK 923 INTER-LIGAND FREE ENERGY PREDICTED BY IDOCK:   -8.81 KCAL/MOL
REMARK 924 INTRA-LIGAND FREE ENERGY PREDICTED BY IDOCK:   -0.56 KCAL/MOL
REMARK 927      BINDING AFFINITY PREDICTED BY RF-SCORE:    0.00 PKD
ROOT
HETATM    1  C   UNL     1      -7.484  10.864  66.887  1.00  0.00    -0.128 C  
HETATM    2  C   UNL     1      -8.855  11.550  67.062  1.00  0.00    -0.173 C  
HETATM    3  S   UNL     1      -9.718  10.678  68.454  1.00  0.00    -0.173 SA 
HETATM    4  C   UNL     1      -8.555  13.004  67.444  1.00  0.00    -0.199 C  
HETATM    5  C   UNL     1     -10.678   9.551  67.333  1.00  0.00    -0.227 C  
HETATM    6  C   UNL     1     -10.048   8.174  66.978  1.00  0.00    -0.280 C  
HETATM    7  C   UNL     1      -9.794  11.356  65.841  1.00  0.00    -0.226 C  
HETATM    8  C   UNL     1      -9.613   8.884  65.669  1.00  0.00    -0.105 C  
HETATM    9  O   UNL     1      -8.804   8.688  64.791  1.00  0.00    -0.123 OA 
HETATM   10  N   UNL     1     -10.342   9.998  65.969  1.00  0.00    -0.199 N  
ENDROOT
BRANCH   6  11
HETATM   11  N   UNL     1      -8.972   7.673  67.874  1.00  0.00    -0.129 N  
HETATM   12  C   UNL     1      -9.255   6.841  68.936  1.00  0.00    -0.131 C  
HETATM   13  O   UNL     1     -10.368   6.342  69.097  1.00  0.00    -0.181 OA 
HETATM   14  H   UNL     1      -8.006   7.950  67.699  1.00  0.00     0.000 HD 
BRANCH  12  15
HETATM   15  C   UNL     1      -8.088   6.613  69.923  1.00  0.00    -0.125 C  
HETATM   16  H2  UNL     1      -6.702   7.626  68.724  1.00  0.00     0.000 HD 
HETATM   17  N   UNL     1      -6.786   6.736  69.215  1.00  0.00    -0.051 NA 
HETATM   18  H1  UNL     1      -6.016   6.585  69.866  1.00  0.00     0.000 HD 
BRANCH  15  19
HETATM   19  C   UNL     1      -8.195   5.309  70.695  1.00  0.00    -0.109 A  
HETATM   20  C   UNL     1      -8.774   5.239  71.973  1.00  0.00    -0.133 A  
HETATM   21  C   UNL     1      -7.755   4.115  70.097  1.00  0.00    -0.049 A  
HETATM   22  C   UNL     1      -7.956   2.885  70.729  1.00  0.00    -0.052 A  
HETATM   23  C   UNL     1      -8.982   4.009  72.598  1.00  0.00    -0.124 A  
HETATM   24  C   UNL     1      -8.586   2.831  71.970  1.00  0.00    -0.088 A  
ENDBRANCH  15  19
ENDBRANCH  12  15
ENDBRANCH   6  11
BRANCH   7  25
HETATM   25  C   UNL     1     -11.011  12.306  65.792  1.00  0.00    -0.301 C  
HETATM   26  O   UNL     1     -12.142  12.035  66.186  1.00  0.00    -0.582 OA 
BRANCH  25  27
HETATM   27  O   UNL     1     -10.684  13.507  65.235  1.00  0.00    -0.298 OA 
BRANCH  27  28
HETATM   28  C   UNL     1     -11.552  14.588  65.591  1.00  0.00    -0.344 C  
BRANCH  28  29
HETATM   29  O   UNL     1     -10.812  15.671  66.147  1.00  0.00    -0.314 OA 
BRANCH  29  30
HETATM   30  C   UNL     1     -10.507  16.686  65.299  1.00  0.00    -0.173 C  
HETATM   31  O   UNL     1     -11.168  16.990  64.314  1.00  0.00    -1.186 OA 
BRANCH  30  32
HETATM   32  C   UNL     1      -9.232  17.432  65.748  1.00  0.00     0.209 C  
HETATM   33  N   UNL     1      -8.553  16.637  66.785  1.00  0.00    -0.214 N  
HETATM   34  C   UNL     1      -8.997  16.811  68.195  1.00  0.00    -0.224 C  
HETATM   35  S   UNL     1      -9.938  18.348  68.094  1.00  0.00    -0.384 S  
HETATM   36  C   UNL     1      -7.518  16.840  68.588  1.00  0.00    -0.219 C  
HETATM   37  O   UNL     1     -11.354  18.025  68.127  1.00  0.00     0.227 OA 
HETATM   38  O   UNL     1      -9.390  19.331  69.006  1.00  0.00    -0.365 OA 
HETATM   39  C   UNL     1      -9.513  18.815  66.381  1.00  0.00    -0.322 C  
HETATM   40  C   UNL     1      -7.233  16.796  67.080  1.00  0.00    -0.201 C  
HETATM   41  C   UNL     1     -10.646  19.629  65.740  1.00  0.00    -0.537 C  
HETATM   42  C   UNL     1      -8.263  19.722  66.374  1.00  0.00    -0.371 C  
HETATM   43  O   UNL     1      -6.300  17.038  66.353  1.00  0.00    -0.212 OA 
ENDBRANCH  30  32
ENDBRANCH  29  30
ENDBRANCH  28  29
ENDBRANCH  27  28
ENDBRANCH  25  27
ENDBRANCH   7  25
TORSDOF 9
ENDMDL
MODEL      124
REMARK 921   NORMALIZED FREE ENERGY PREDICTED BY IDOCK:   -5.80 KCAL/MOL
REMARK 922        TOTAL FREE ENERGY PREDICTED BY IDOCK:   -9.36 KCAL/MOL
REMARK 923 INTER-LIGAND FREE ENERGY PREDICTED BY IDOCK:   -8.81 KCAL/MOL
REMARK 924 INTRA-LIGAND FREE ENERGY PREDICTED BY IDOCK:   -0.55 KCAL/MOL
REMARK 927      BINDING AFFINITY PREDICTED BY RF-SCORE:    0.00 PKD
ROOT
HETATM    1  C   UNL     1      -7.768   7.629  69.031  1.00  0.00    -0.117 C  
HETATM    2  C   UNL     1      -8.745   7.821  70.209  1.00  0.00    -0.143 C  
HETATM    3  S   UNL     1      -9.518   6.167  70.540  1.00  0.00    -0.165 SA 
HETATM    4  C   UNL     1      -7.887   8.262  71.402  1.00  0.00    -0.122 C  
HETATM    5  C   UNL     1     -11.031   6.520  69.523  1.00  0.00    -0.340 C  
HETATM    6  C   UNL     1     -11.007   6.109  68.023  1.00  0.00    -0.305 C  
HETATM    7  C   UNL     1      -9.941   8.747  69.864  1.00  0.00    -0.187 C  
HETATM    8  C   UNL     1     -10.661   7.602  67.780  1.00  0.00    -0.196 C  
HETATM    9  O   UNL     1     -10.187   8.259  66.881  1.00  0.00    -0.268 OA 
HETATM   10  N   UNL     1     -10.877   7.921  69.089  1.00  0.00    -0.109 N  
ENDROOT
BRANCH   6  11
HETATM   11  N   UNL     1      -9.994   5.098  67.616  1.00  0.00    -0.161 N  
HETATM   12  C   UNL     1     -10.090   4.436  66.411  1.00  0.00    -0.209 C  
HETATM   13  O   UNL     1     -10.907   4.760  65.550  1.00  0.00    -0.239 OA 
HETATM   14  H   UNL     1      -9.214   4.891  68.240  1.00  0.00     0.000 HD 
BRANCH  12  15
HETATM   15  C   UNL     1      -9.126   3.241  66.237  1.00  0.00    -0.155 C  
HETATM   16  H2  UNL     1      -8.635   3.173  68.272  1.00  0.00     0.000 HD 
HETATM   17  N   UNL     1      -8.161   3.193  67.369  1.00  0.00    -0.081 NA 
HETATM   18  H1  UNL     1      -7.525   2.404  67.254  1.00  0.00     0.000 HD 
BRANCH  15  19
HETATM   19  C   UNL     1      -8.424   3.221  64.891  1.00  0.00    -0.098 A  
HETATM   20  C   UNL     1      -8.791   2.332  63.866  1.00  0.00    -0.092 A  
HETATM   21  C   UNL     1      -7.410   4.158  64.627  1.00  0.00    -0.071 A  
HETATM   22  C   UNL     1      -6.834   4.247  63.357  1.00  0.00    -0.043 A  
HETATM   23  C   UNL     1      -8.221   2.429  62.596  1.00  0.00    -0.072 A  
HETATM   24  C   UNL     1      -7.254   3.395  62.337  1.00  0.00    -0.040 A  
ENDBRANCH  15  19
ENDBRANCH  12  15
ENDBRANCH   6  11
BRANCH   7  25
HETATM   25  C   UNL     1     -10.739   9.270  71.080  1.00  0.00    -0.316 C  
HETATM   26  O   UNL     1     -10.671   8.823  72.221  1.00  0.00    -0.344 OA 
BRANCH  25  27
HETATM   27  O   UNL     1     -11.558  10.304  70.732  1.00  0.00    -0.310 OA 
BRANCH  27  28
HETATM   28  C   UNL     1     -11.003  11.208  69.771  1.00  0.00    -0.150 C  
BRANCH  28  29
HETATM   29  O   UNL     1     -12.015  12.047  69.220  1.00  0.00    -0.302 OA 
BRANCH  29  30
HETATM   30  C   UNL     1     -11.885  13.377  69.458  1.00  0.00    -0.332 C  
HETATM   31  O   UNL     1     -11.735  13.873  70.567  1.00  0.00    -0.260 OA 
BRANCH  30  32
HETATM   32  C   UNL     1     -11.922  14.190  68.146  1.00  0.00    -0.332 C  
HETATM   33  N   UNL     1     -11.837  13.263  67.006  1.00  0.00    -0.385 N  
HETATM   34  C   UNL     1     -10.484  12.839  66.555  1.00  0.00    -0.263 C  
HETATM   35  S   UNL     1      -9.431  14.066  67.359  1.00  0.00    -0.233 S  
HETATM   36  C   UNL     1     -10.964  13.063  65.119  1.00  0.00    -0.317 C  
HETATM   37  O   UNL     1      -8.788  13.442  68.503  1.00  0.00    -0.157 OA 
HETATM   38  O   UNL     1      -8.642  14.774  66.371  1.00  0.00    -0.144 OA 
HETATM   39  C   UNL     1     -10.738  15.173  67.991  1.00  0.00    -0.264 C  
HETATM   40  C   UNL     1     -12.253  13.603  65.754  1.00  0.00    -0.464 C  
HETATM   41  C   UNL     1     -10.281  15.881  69.274  1.00  0.00    -0.250 C  
HETATM   42  C   UNL     1     -11.035  16.283  66.960  1.00  0.00    -0.086 C  
HETATM   43  O   UNL     1     -13.189  14.281  65.406  1.00  0.00    -0.688 OA 
ENDBRANCH  30  32
ENDBRANCH  29  30
ENDBRANCH  28  29
ENDBRANCH  27  28
ENDBRANCH  25  27
ENDBRANCH   7  25
TORSDOF 9
ENDMDL
MODEL      125
REMARK 921   NORMALIZED FREE ENERGY PREDICTED BY IDOCK:   -5.78 KCAL/MOL
REMARK 922        TOTAL FREE ENERGY PREDICTED BY IDOCK:   -9.33 KCAL/MOL
REMARK 923 INTER-LIGAND FREE ENERGY PREDICTED BY IDOCK:   -8.36 KCAL/MOL
REMARK 924 INTRA-LIGAND FREE ENERGY PREDICTED BY IDOCK:   -0.97 KCAL/MOL
REMARK 927      BINDING AFFINITY PREDICTED BY RF-SCORE:    0.00 PKD
ROOT
HETATM    1  C   UNL     1      -9.769   9.716  65.334  1.00  0.00    -0.365 C  
HETATM    2  C   UNL     1      -9.328   8.895  66.564  1.00  0.00    -0.195 C  
HETATM    3  S   UNL     1      -9.280  10.066  68.002  1.00  0.00    -0.134 SA 
HETATM    4  C   UNL     1     -10.413   7.832  66.773  1.00  0.00    -0.318 C  
HETATM    5  C   UNL     1      -7.459  10.393  67.849  1.00  0.00    -0.087 C  
HETATM    6  C   UNL     1      -7.010  11.595  66.970  1.00  0.00    -0.144 C  
HETATM    7  C   UNL     1      -7.875   8.360  66.450  1.00  0.00    -0.098 C  
HETATM    8  C   UNL     1      -6.769  10.512  65.886  1.00  0.00    -0.130 C  
HETATM    9  O   UNL     1      -6.630  10.488  64.684  1.00  0.00    -0.078 OA 
HETATM   10  N   UNL     1      -7.003   9.499  66.769  1.00  0.00    -0.081 N  
ENDROOT
BRANCH   6  11
HETATM   11  N   UNL     1      -8.030  12.637  66.680  1.00  0.00    -0.393 N  
HETATM   12  C   UNL     1      -8.217  13.710  67.526  1.00  0.00    -0.184 C  
HETATM   13  O   UNL     1      -7.452  13.947  68.459  1.00  0.00    -0.109 OA 
HETATM   14  H   UNL     1      -8.602  12.558  65.839  1.00  0.00     0.000 HD 
BRANCH  12  15
HETATM   15  C   UNL     1      -9.473  14.564  67.239  1.00  0.00    -0.217 C  
HETATM   16  H2  UNL     1      -8.482  15.797  65.867  1.00  0.00     0.000 HD 
HETATM   17  N   UNL     1      -9.077  15.888  66.690  1.00  0.00    -0.235 NA 
HETATM   18  H1  UNL     1      -9.905  16.452  66.500  1.00  0.00     0.000 HD 
BRANCH  15  19
HETATM   19  C   UNL     1     -10.399  14.697  68.435  1.00  0.00    -0.237 A  
HETATM   20  C   UNL     1     -11.162  13.620  68.917  1.00  0.00    -0.309 A  
HETATM   21  C   UNL     1     -10.462  15.919  69.126  1.00  0.00    -0.235 A  
HETATM   22  C   UNL     1     -11.207  16.036  70.303  1.00  0.00    -0.397 A  
HETATM   23  C   UNL     1     -11.898  13.736  70.097  1.00  0.00    -0.360 A  
HETATM   24  C   UNL     1     -11.909  14.938  70.797  1.00  0.00    -0.368 A  
ENDBRANCH  15  19
ENDBRANCH  12  15
ENDBRANCH   6  11
BRANCH   7  25
HETATM   25  C   UNL     1      -7.507   7.244  67.453  1.00  0.00    -0.096 C  
HETATM   26  O   UNL     1      -8.040   6.140  67.517  1.00  0.00    -0.108 OA 
BRANCH  25  27
HETATM   27  O   UNL     1      -6.505   7.638  68.291  1.00  0.00    -0.046 OA 
BRANCH  27  28
HETATM   28  C   UNL     1      -6.611   7.136  69.627  1.00  0.00    -0.044 C  
BRANCH  28  29
HETATM   29  O   UNL     1      -7.316   8.052  70.459  1.00  0.00    -0.058 OA 
BRANCH  29  30
HETATM   30  C   UNL     1      -8.200   7.508  71.334  1.00  0.00    -0.106 C  
HETATM   31  O   UNL     1      -7.894   7.002  72.405  1.00  0.00    -0.094 OA 
BRANCH  30  32
HETATM   32  C   UNL     1      -9.651   7.635  70.820  1.00  0.00    -0.166 C  
HETATM   33  N   UNL     1     -10.415   8.484  71.749  1.00  0.00    -0.272 N  
HETATM   34  C   UNL     1     -11.028   7.834  72.939  1.00  0.00    -0.407 C  
HETATM   35  S   UNL     1     -10.950   6.089  72.482  1.00  0.00    -0.275 S  
HETATM   36  C   UNL     1     -12.292   8.648  72.651  1.00  0.00    -0.282 C  
HETATM   37  O   UNL     1      -9.866   5.467  73.222  1.00  0.00    -0.158 OA 
HETATM   38  O   UNL     1     -12.278   5.508  72.500  1.00  0.00    -0.134 OA 
HETATM   39  C   UNL     1     -10.404   6.285  70.751  1.00  0.00    -0.206 C  
HETATM   40  C   UNL     1     -11.563   9.117  71.383  1.00  0.00    -0.341 C  
HETATM   41  C   UNL     1      -9.574   5.075  70.301  1.00  0.00    -0.255 C  
HETATM   42  C   UNL     1     -11.629   6.351  69.814  1.00  0.00    -0.397 C  
HETATM   43  O   UNL     1     -11.866   9.627  70.332  1.00  0.00    -0.240 OA 
ENDBRANCH  30  32
ENDBRANCH  29  30
ENDBRANCH  28  29
ENDBRANCH  27  28
ENDBRANCH  25  27
ENDBRANCH   7  25
TORSDOF 9
ENDMDL
MODEL      126
REMARK 921   NORMALIZED FREE ENERGY PREDICTED BY IDOCK:   -5.76 KCAL/MOL
REMARK 922        TOTAL FREE ENERGY PREDICTED BY IDOCK:   -9.29 KCAL/MOL
REMARK 923 INTER-LIGAND FREE ENERGY PREDICTED BY IDOCK:   -9.01 KCAL/MOL
REMARK 924 INTRA-LIGAND FREE ENERGY PREDICTED BY IDOCK:   -0.28 KCAL/MOL
REMARK 927      BINDING AFFINITY PREDICTED BY RF-SCORE:    0.00 PKD
ROOT
HETATM    1  C   UNL     1     -11.164   7.189  72.736  1.00  0.00    -0.314 C  
HETATM    2  C   UNL     1     -11.643   7.911  71.460  1.00  0.00    -0.270 C  
HETATM    3  S   UNL     1     -11.001   6.936  70.018  1.00  0.00    -0.294 SA 
HETATM    4  C   UNL     1     -13.176   7.866  71.498  1.00  0.00    -0.342 C  
HETATM    5  C   UNL     1      -9.501   8.007  69.788  1.00  0.00    -0.159 C  
HETATM    6  C   UNL     1      -8.198   7.598  70.532  1.00  0.00    -0.121 C  
HETATM    7  C   UNL     1     -11.017   9.321  71.285  1.00  0.00    -0.351 C  
HETATM    8  C   UNL     1      -8.637   8.668  71.567  1.00  0.00    -0.195 C  
HETATM    9  O   UNL     1      -8.370   8.940  72.715  1.00  0.00    -0.385 OA 
HETATM   10  N   UNL     1      -9.660   9.095  70.771  1.00  0.00    -0.253 N  
ENDROOT
BRANCH   6  11
HETATM   11  N   UNL     1      -8.103   6.190  71.002  1.00  0.00    -0.119 N  
HETATM   12  C   UNL     1      -6.987   5.734  71.670  1.00  0.00    -0.072 C  
HETATM   13  O   UNL     1      -6.099   6.493  72.054  1.00  0.00    -0.037 OA 
HETATM   14  H   UNL     1      -8.879   5.551  70.829  1.00  0.00     0.000 HD 
BRANCH  12  15
HETATM   15  C   UNL     1      -6.918   4.203  71.867  1.00  0.00    -0.045 C  
HETATM   16  H2  UNL     1      -4.975   4.258  72.647  1.00  0.00     0.000 HD 
HETATM   17  N   UNL     1      -5.500   3.757  71.930  1.00  0.00    -0.007 NA 
HETATM   18  H1  UNL     1      -5.455   2.747  72.060  1.00  0.00     0.000 HD 
BRANCH  15  19
HETATM   19  C   UNL     1      -7.714   3.424  70.835  1.00  0.00    -0.043 A  
HETATM   20  C   UNL     1      -9.010   2.944  71.092  1.00  0.00    -0.162 A  
HETATM   21  C   UNL     1      -7.170   3.219  69.555  1.00  0.00    -0.045 A  
HETATM   22  C   UNL     1      -7.927   2.618  68.547  1.00  0.00    -0.061 A  
HETATM   23  C   UNL     1      -9.767   2.352  70.081  1.00  0.00     0.023 A  
HETATM   24  C   UNL     1      -9.232   2.202  68.805  1.00  0.00    -0.221 A  
ENDBRANCH  15  19
ENDBRANCH  12  15
ENDBRANCH   6  11
BRANCH   7  25
HETATM   25  C   UNL     1     -11.722  10.228  70.251  1.00  0.00    -0.306 C  
HETATM   26  O   UNL     1     -11.482  10.254  69.048  1.00  0.00    -0.217 OA 
BRANCH  25  27
HETATM   27  O   UNL     1     -12.655  11.028  70.843  1.00  0.00    -0.351 OA 
BRANCH  27  28
HETATM   28  C   UNL     1     -12.301  12.413  70.908  1.00  0.00    -0.262 C  
BRANCH  28  29
HETATM   29  O   UNL     1     -11.972  12.914  69.616  1.00  0.00    -0.313 OA 
BRANCH  29  30
HETATM   30  C   UNL     1     -12.145  14.247  69.428  1.00  0.00    -0.318 C  
HETATM   31  O   UNL     1     -12.347  15.054  70.325  1.00  0.00    -0.313 OA 
BRANCH  30  32
HETATM   32  C   UNL     1     -12.026  14.626  67.935  1.00  0.00    -0.264 C  
HETATM   33  N   UNL     1     -11.805  13.403  67.147  1.00  0.00    -0.375 N  
HETATM   34  C   UNL     1     -10.408  12.913  67.002  1.00  0.00    -0.242 C  
HETATM   35  S   UNL     1      -9.459  14.362  67.511  1.00  0.00    -0.213 S  
HETATM   36  C   UNL     1     -10.714  12.677  65.521  1.00  0.00    -0.303 C  
HETATM   37  O   UNL     1      -8.956  14.135  68.855  1.00  0.00    -0.111 OA 
HETATM   38  O   UNL     1      -8.558  14.768  66.451  1.00  0.00    -0.144 OA 
HETATM   39  C   UNL     1     -10.832  15.560  67.626  1.00  0.00    -0.306 C  
HETATM   40  C   UNL     1     -12.070  13.336  65.813  1.00  0.00    -0.441 C  
HETATM   41  C   UNL     1     -10.531  16.636  68.677  1.00  0.00    -0.323 C  
HETATM   42  C   UNL     1     -11.005  16.297  66.280  1.00  0.00     0.008 C  
HETATM   43  O   UNL     1     -12.957  13.844  65.172  1.00  0.00    -0.744 OA 
ENDBRANCH  30  32
ENDBRANCH  29  30
ENDBRANCH  28  29
ENDBRANCH  27  28
ENDBRANCH  25  27
ENDBRANCH   7  25
TORSDOF 9
ENDMDL
MODEL      127
REMARK 921   NORMALIZED FREE ENERGY PREDICTED BY IDOCK:   -5.76 KCAL/MOL
REMARK 922        TOTAL FREE ENERGY PREDICTED BY IDOCK:   -9.29 KCAL/MOL
REMARK 923 INTER-LIGAND FREE ENERGY PREDICTED BY IDOCK:   -8.43 KCAL/MOL
REMARK 924 INTRA-LIGAND FREE ENERGY PREDICTED BY IDOCK:   -0.86 KCAL/MOL
REMARK 927      BINDING AFFINITY PREDICTED BY RF-SCORE:    0.00 PKD
ROOT
HETATM    1  C   UNL     1     -11.241   6.370  70.216  1.00  0.00    -0.445 C  
HETATM    2  C   UNL     1     -10.488   7.097  69.083  1.00  0.00    -0.211 C  
HETATM    3  S   UNL     1      -8.689   6.693  69.288  1.00  0.00    -0.130 SA 
HETATM    4  C   UNL     1     -11.025   6.508  67.773  1.00  0.00    -0.407 C  
HETATM    5  C   UNL     1      -8.309   8.246  70.232  1.00  0.00    -0.123 C  
HETATM    6  C   UNL     1      -8.406   8.194  71.783  1.00  0.00    -0.142 C  
HETATM    7  C   UNL     1     -10.555   8.643  69.201  1.00  0.00    -0.178 C  
HETATM    8  C   UNL     1      -9.804   8.831  71.562  1.00  0.00    -0.301 C  
HETATM    9  O   UNL     1     -10.819   8.965  72.205  1.00  0.00    -0.332 OA 
HETATM   10  N   UNL     1      -9.571   9.009  70.229  1.00  0.00    -0.185 N  
ENDROOT
BRANCH   6  11
HETATM   11  N   UNL     1      -8.361   6.849  72.417  1.00  0.00    -0.111 N  
HETATM   12  C   UNL     1      -8.302   6.707  73.787  1.00  0.00    -0.114 C  
HETATM   13  O   UNL     1      -8.450   7.660  74.550  1.00  0.00    -0.214 OA 
HETATM   14  H   UNL     1      -8.375   6.017  71.828  1.00  0.00     0.000 HD 
BRANCH  12  15
HETATM   15  C   UNL     1      -8.001   5.276  74.288  1.00  0.00    -0.099 C  
HETATM   16  H2  UNL     1      -5.953   5.648  74.522  1.00  0.00     0.000 HD 
HETATM   17  N   UNL     1      -6.562   4.955  74.087  1.00  0.00    -0.067 NA 
HETATM   18  H1  UNL     1      -6.363   4.011  74.418  1.00  0.00     0.000 HD 
BRANCH  15  19
HETATM   19  C   UNL     1      -8.909   4.221  73.683  1.00  0.00    -0.093 A  
HETATM   20  C   UNL     1      -8.430   3.229  72.810  1.00  0.00    -0.081 A  
HETATM   21  C   UNL     1     -10.267   4.188  74.045  1.00  0.00    -0.230 A  
HETATM   22  C   UNL     1     -11.098   3.155  73.605  1.00  0.00    -0.321 A  
HETATM   23  C   UNL     1      -9.259   2.193  72.379  1.00  0.00    -0.123 A  
HETATM   24  C   UNL     1     -10.589   2.148  72.788  1.00  0.00    -0.221 A  
ENDBRANCH  15  19
ENDBRANCH  12  15
ENDBRANCH   6  11
BRANCH   7  25
HETATM   25  C   UNL     1     -10.150   9.417  67.926  1.00  0.00    -0.194 C  
HETATM   26  O   UNL     1      -9.180   9.164  67.218  1.00  0.00    -0.131 OA 
BRANCH  25  27
HETATM   27  O   UNL     1     -11.007  10.449  67.677  1.00  0.00    -0.287 OA 
BRANCH  27  28
HETATM   28  C   UNL     1     -10.620  11.297  66.591  1.00  0.00    -0.262 C  
BRANCH  28  29
HETATM   29  O   UNL     1     -10.511  12.651  67.019  1.00  0.00    -0.231 OA 
BRANCH  29  30
HETATM   30  C   UNL     1      -9.276  13.057  67.411  1.00  0.00    -0.208 C  
HETATM   31  O   UNL     1      -8.226  12.568  67.017  1.00  0.00    -0.176 OA 
BRANCH  30  32
HETATM   32  C   UNL     1      -9.360  14.239  68.402  1.00  0.00    -0.208 C  
HETATM   33  N   UNL     1     -10.768  14.448  68.779  1.00  0.00    -0.246 N  
HETATM   34  C   UNL     1     -11.606  15.299  67.891  1.00  0.00    -0.289 C  
HETATM   35  S   UNL     1     -10.351  16.136  66.899  1.00  0.00    -0.297 S  
HETATM   36  C   UNL     1     -12.154  15.964  69.156  1.00  0.00    -0.158 C  
HETATM   37  O   UNL     1     -10.319  15.522  65.583  1.00  0.00    -0.328 OA 
HETATM   38  O   UNL     1     -10.484  17.573  67.034  1.00  0.00    -0.328 OA 
HETATM   39  C   UNL     1      -8.869  15.581  67.809  1.00  0.00    -0.172 C  
HETATM   40  C   UNL     1     -11.129  15.108  69.914  1.00  0.00    -0.284 C  
HETATM   41  C   UNL     1      -7.654  15.498  66.875  1.00  0.00    -0.162 C  
HETATM   42  C   UNL     1      -8.509  16.604  68.908  1.00  0.00    -0.233 C  
HETATM   43  O   UNL     1     -10.614  15.113  71.005  1.00  0.00    -0.111 OA 
ENDBRANCH  30  32
ENDBRANCH  29  30
ENDBRANCH  28  29
ENDBRANCH  27  28
ENDBRANCH  25  27
ENDBRANCH   7  25
TORSDOF 9
ENDMDL
MODEL      128
REMARK 921   NORMALIZED FREE ENERGY PREDICTED BY IDOCK:   -5.75 KCAL/MOL
REMARK 922        TOTAL FREE ENERGY PREDICTED BY IDOCK:   -9.28 KCAL/MOL
REMARK 923 INTER-LIGAND FREE ENERGY PREDICTED BY IDOCK:   -8.32 KCAL/MOL
REMARK 924 INTRA-LIGAND FREE ENERGY PREDICTED BY IDOCK:   -0.96 KCAL/MOL
REMARK 927      BINDING AFFINITY PREDICTED BY RF-SCORE:    0.00 PKD
ROOT
HETATM    1  C   UNL     1     -10.978   6.811  68.265  1.00  0.00    -0.270 C  
HETATM    2  C   UNL     1     -10.413   8.244  68.179  1.00  0.00    -0.171 C  
HETATM    3  S   UNL     1      -8.852   8.266  69.183  1.00  0.00    -0.144 SA 
HETATM    4  C   UNL     1     -10.102   8.488  66.698  1.00  0.00    -0.364 C  
HETATM    5  C   UNL     1      -9.682   8.926  70.708  1.00  0.00    -0.227 C  
HETATM    6  C   UNL     1     -10.225   7.898  71.740  1.00  0.00    -0.196 C  
HETATM    7  C   UNL     1     -11.325   9.300  68.857  1.00  0.00     0.331 C  
HETATM    8  C   UNL     1     -11.589   8.159  71.048  1.00  0.00    -0.279 C  
HETATM    9  O   UNL     1     -12.663   7.604  70.986  1.00  0.00    -0.239 OA 
HETATM   10  N   UNL     1     -11.076   9.178  70.300  1.00  0.00    -0.243 N  
ENDROOT
BRANCH   6  11
HETATM   11  N   UNL     1      -9.677   6.517  71.669  1.00  0.00    -0.164 N  
HETATM   12  C   UNL     1      -8.390   6.237  72.077  1.00  0.00    -0.110 C  
HETATM   13  O   UNL     1      -7.697   7.065  72.667  1.00  0.00    -0.089 OA 
HETATM   14  H   UNL     1     -10.264   5.762  71.313  1.00  0.00     0.000 HD 
BRANCH  12  15
HETATM   15  C   UNL     1      -7.875   4.827  71.709  1.00  0.00    -0.099 C  
HETATM   16  H2  UNL     1      -6.621   4.705  73.382  1.00  0.00     0.000 HD 
HETATM   17  N   UNL     1      -6.568   4.570  72.372  1.00  0.00    -0.039 NA 
HETATM   18  H1  UNL     1      -6.228   3.640  72.129  1.00  0.00     0.000 HD 
BRANCH  15  19
HETATM   19  C   UNL     1      -7.811   4.579  70.212  1.00  0.00    -0.060 A  
HETATM   20  C   UNL     1      -8.829   3.900  69.520  1.00  0.00    -0.144 A  
HETATM   21  C   UNL     1      -6.731   5.091  69.473  1.00  0.00    -0.051 A  
HETATM   22  C   UNL     1      -6.708   4.988  68.079  1.00  0.00    -0.055 A  
HETATM   23  C   UNL     1      -8.809   3.807  68.128  1.00  0.00    -0.144 A  
HETATM   24  C   UNL     1      -7.756   4.363  67.407  1.00  0.00    -0.085 A  
ENDBRANCH  15  19
ENDBRANCH  12  15
ENDBRANCH   6  11
BRANCH   7  25
HETATM   25  C   UNL     1     -11.013  10.769  68.492  1.00  0.00    -0.243 C  
HETATM   26  O   UNL     1      -9.961  11.354  68.735  1.00  0.00    -0.206 OA 
BRANCH  25  27
HETATM   27  O   UNL     1     -12.068  11.362  67.864  1.00  0.00    -0.646 OA 
BRANCH  27  28
HETATM   28  C   UNL     1     -11.749  11.984  66.616  1.00  0.00    -0.256 C  
BRANCH  28  29
HETATM   29  O   UNL     1     -11.818  13.403  66.723  1.00  0.00    -0.365 OA 
BRANCH  29  30
HETATM   30  C   UNL     1     -10.810  14.098  66.136  1.00  0.00    -0.296 C  
HETATM   31  O   UNL     1     -10.062  13.646  65.280  1.00  0.00    -0.316 OA 
BRANCH  30  32
HETATM   32  C   UNL     1     -10.743  15.548  66.665  1.00  0.00    -0.306 C  
HETATM   33  N   UNL     1      -9.620  16.243  66.014  1.00  0.00    -0.327 N  
HETATM   34  C   UNL     1      -8.268  16.095  66.617  1.00  0.00    -0.286 C  
HETATM   35  S   UNL     1      -8.668  15.448  68.254  1.00  0.00    -0.168 S  
HETATM   36  C   UNL     1      -8.084  17.600  66.410  1.00  0.00    -0.302 C  
HETATM   37  O   UNL     1      -8.373  14.026  68.272  1.00  0.00    -0.149 OA 
HETATM   38  O   UNL     1      -8.133  16.320  69.281  1.00  0.00    -0.237 OA 
HETATM   39  C   UNL     1     -10.482  15.641  68.187  1.00  0.00    -0.259 C  
HETATM   40  C   UNL     1      -9.546  17.600  65.941  1.00  0.00     0.020 C  
HETATM   41  C   UNL     1     -11.176  14.580  69.053  1.00  0.00    -0.289 C  
HETATM   42  C   UNL     1     -10.891  17.014  68.763  1.00  0.00    -0.258 C  
HETATM   43  O   UNL     1     -10.420  18.418  65.786  1.00  0.00    -0.594 OA 
ENDBRANCH  30  32
ENDBRANCH  29  30
ENDBRANCH  28  29
ENDBRANCH  27  28
ENDBRANCH  25  27
ENDBRANCH   7  25
TORSDOF 9
ENDMDL
MODEL      129
REMARK 921   NORMALIZED FREE ENERGY PREDICTED BY IDOCK:   -5.74 KCAL/MOL
REMARK 922        TOTAL FREE ENERGY PREDICTED BY IDOCK:   -9.26 KCAL/MOL
REMARK 923 INTER-LIGAND FREE ENERGY PREDICTED BY IDOCK:   -8.67 KCAL/MOL
REMARK 924 INTRA-LIGAND FREE ENERGY PREDICTED BY IDOCK:   -0.59 KCAL/MOL
REMARK 927      BINDING AFFINITY PREDICTED BY RF-SCORE:    0.00 PKD
ROOT
HETATM    1  C   UNL     1     -10.099  13.129  64.945  1.00  0.00    -0.236 C  
HETATM    2  C   UNL     1     -10.910  12.881  66.234  1.00  0.00    -0.275 C  
HETATM    3  S   UNL     1     -10.564  14.308  67.369  1.00  0.00    -0.278 SA 
HETATM    4  C   UNL     1     -12.384  12.875  65.812  1.00  0.00    -0.437 C  
HETATM    5  C   UNL     1      -9.231  13.416  68.304  1.00  0.00    -0.198 C  
HETATM    6  C   UNL     1      -7.766  13.573  67.805  1.00  0.00    -0.163 C  
HETATM    7  C   UNL     1     -10.432  11.633  67.023  1.00  0.00    -0.224 C  
HETATM    8  C   UNL     1      -8.016  12.203  67.121  1.00  0.00    -0.170 C  
HETATM    9  O   UNL     1      -7.505  11.557  66.235  1.00  0.00    -0.034 OA 
HETATM   10  N   UNL     1      -9.222  12.052  67.742  1.00  0.00    -0.183 N  
ENDROOT
BRANCH   6  11
HETATM   11  N   UNL     1      -7.475  14.734  66.921  1.00  0.00    -0.199 N  
HETATM   12  C   UNL     1      -7.081  15.948  67.443  1.00  0.00    -0.197 C  
HETATM   13  O   UNL     1      -6.790  16.086  68.630  1.00  0.00    -0.122 OA 
HETATM   14  H   UNL     1      -7.569  14.630  65.911  1.00  0.00     0.000 HD 
BRANCH  12  15
HETATM   15  C   UNL     1      -7.065  17.122  66.438  1.00  0.00    -0.275 C  
HETATM   16  H2  UNL     1      -4.976  17.144  66.294  1.00  0.00     0.000 HD 
HETATM   17  N   UNL     1      -5.740  17.798  66.461  1.00  0.00    -0.162 NA 
HETATM   18  H1  UNL     1      -5.730  18.573  65.798  1.00  0.00     0.000 HD 
BRANCH  15  19
HETATM   19  C   UNL     1      -8.208  18.102  66.637  1.00  0.00    -0.283 A  
HETATM   20  C   UNL     1      -9.538  17.779  66.319  1.00  0.00    -0.256 A  
HETATM   21  C   UNL     1      -7.948  19.358  67.212  1.00  0.00    -0.292 A  
HETATM   22  C   UNL     1      -8.994  20.230  67.523  1.00  0.00    -0.435 A  
HETATM   23  C   UNL     1     -10.582  18.647  66.639  1.00  0.00    -0.410 A  
HETATM   24  C   UNL     1     -10.312  19.866  67.254  1.00  0.00    -0.574 A  
ENDBRANCH  15  19
ENDBRANCH  12  15
ENDBRANCH   6  11
BRANCH   7  25
HETATM   25  C   UNL     1     -11.415  11.122  68.100  1.00  0.00    -0.303 C  
HETATM   26  O   UNL     1     -12.375  11.746  68.541  1.00  0.00    -0.348 OA 
BRANCH  25  27
HETATM   27  O   UNL     1     -11.080   9.870  68.528  1.00  0.00    -0.207 OA 
BRANCH  27  28
HETATM   28  C   UNL     1     -11.390   9.603  69.899  1.00  0.00    -0.159 C  
BRANCH  28  29
HETATM   29  O   UNL     1     -10.712   8.437  70.356  1.00  0.00    -0.223 OA 
BRANCH  29  30
HETATM   30  C   UNL     1      -9.390   8.582  70.628  1.00  0.00    -0.174 C  
HETATM   31  O   UNL     1      -8.870   9.620  71.014  1.00  0.00    -0.195 OA 
BRANCH  30  32
HETATM   32  C   UNL     1      -8.623   7.257  70.417  1.00  0.00    -0.144 C  
HETATM   33  N   UNL     1      -9.523   6.280  69.784  1.00  0.00    -0.151 N  
HETATM   34  C   UNL     1     -10.410   5.477  70.668  1.00  0.00    -0.262 C  
HETATM   35  S   UNL     1      -9.646   5.736  72.283  1.00  0.00    -0.146 S  
HETATM   36  C   UNL     1     -10.033   4.255  69.828  1.00  0.00    -0.167 C  
HETATM   37  O   UNL     1     -10.456   6.683  73.030  1.00  0.00    -0.211 OA 
HETATM   38  O   UNL     1      -9.276   4.465  72.872  1.00  0.00    -0.118 OA 
HETATM   39  C   UNL     1      -8.137   6.606  71.733  1.00  0.00    -0.103 C  
HETATM   40  C   UNL     1      -9.060   5.195  69.102  1.00  0.00    -0.102 C  
HETATM   41  C   UNL     1      -7.639   7.572  72.817  1.00  0.00    -0.102 C  
HETATM   42  C   UNL     1      -6.999   5.591  71.493  1.00  0.00    -0.067 C  
HETATM   43  O   UNL     1      -8.090   5.081  68.393  1.00  0.00    -0.086 OA 
ENDBRANCH  30  32
ENDBRANCH  29  30
ENDBRANCH  28  29
ENDBRANCH  27  28
ENDBRANCH  25  27
ENDBRANCH   7  25
TORSDOF 9
ENDMDL
MODEL      130
REMARK 921   NORMALIZED FREE ENERGY PREDICTED BY IDOCK:   -5.74 KCAL/MOL
REMARK 922        TOTAL FREE ENERGY PREDICTED BY IDOCK:   -9.26 KCAL/MOL
REMARK 923 INTER-LIGAND FREE ENERGY PREDICTED BY IDOCK:   -8.70 KCAL/MOL
REMARK 924 INTRA-LIGAND FREE ENERGY PREDICTED BY IDOCK:   -0.56 KCAL/MOL
REMARK 927      BINDING AFFINITY PREDICTED BY RF-SCORE:    0.00 PKD
ROOT
HETATM    1  C   UNL     1      -9.868  10.989  68.833  1.00  0.00    -0.189 C  
HETATM    2  C   UNL     1      -8.413  10.751  68.377  1.00  0.00    -0.137 C  
HETATM    3  S   UNL     1      -8.174  11.724  66.815  1.00  0.00    -0.110 SA 
HETATM    4  C   UNL     1      -7.523  11.306  69.496  1.00  0.00     0.073 C  
HETATM    5  C   UNL     1      -8.521  10.278  65.702  1.00  0.00    -0.160 C  
HETATM    6  C   UNL     1      -9.987  10.059  65.236  1.00  0.00    -0.298 C  
HETATM    7  C   UNL     1      -8.137   9.281  67.966  1.00  0.00    -0.104 C  
HETATM    8  C   UNL     1     -10.032   9.014  66.382  1.00  0.00    -0.300 C  
HETATM    9  O   UNL     1     -10.889   8.437  67.012  1.00  0.00    -0.224 OA 
HETATM   10  N   UNL     1      -8.692   9.132  66.614  1.00  0.00    -0.126 N  
ENDROOT
BRANCH   6  11
HETATM   11  N   UNL     1     -10.909  11.222  65.335  1.00  0.00    -0.231 N  
HETATM   12  C   UNL     1     -11.189  12.008  64.238  1.00  0.00    -0.357 C  
HETATM   13  O   UNL     1     -10.833  11.696  63.103  1.00  0.00    -0.313 OA 
HETATM   14  H   UNL     1     -11.342  11.442  66.232  1.00  0.00     0.000 HD 
BRANCH  12  15
HETATM   15  C   UNL     1     -11.948  13.319  64.544  1.00  0.00    -0.400 C  
HETATM   16  H2  UNL     1     -12.711  13.485  62.601  1.00  0.00     0.000 HD 
HETATM   17  N   UNL     1     -12.218  14.061  63.283  1.00  0.00    -1.099 NA 
HETATM   18  H1  UNL     1     -12.719  14.926  63.485  1.00  0.00     0.000 HD 
BRANCH  15  19
HETATM   19  C   UNL     1     -11.258  14.189  65.579  1.00  0.00    -0.317 A  
HETATM   20  C   UNL     1     -10.176  15.026  65.256  1.00  0.00    -0.409 A  
HETATM   21  C   UNL     1     -11.744  14.211  66.898  1.00  0.00    -0.437 A  
HETATM   22  C   UNL     1     -11.211  15.094  67.840  1.00  0.00    -0.334 A  
HETATM   23  C   UNL     1      -9.651  15.913  66.196  1.00  0.00    -0.365 A  
HETATM   24  C   UNL     1     -10.178  15.958  67.483  1.00  0.00    -0.269 A  
ENDBRANCH  15  19
ENDBRANCH  12  15
ENDBRANCH   6  11
BRANCH   7  25
HETATM   25  C   UNL     1      -6.643   8.899  67.859  1.00  0.00    -0.061 C  
HETATM   26  O   UNL     1      -5.888   9.228  66.948  1.00  0.00    -0.050 OA 
BRANCH  25  27
HETATM   27  O   UNL     1      -6.249   8.125  68.910  1.00  0.00    -0.038 OA 
BRANCH  27  28
HETATM   28  C   UNL     1      -6.855   6.829  68.958  1.00  0.00    -0.069 C  
BRANCH  28  29
HETATM   29  O   UNL     1      -8.011   6.839  69.790  1.00  0.00    -0.119 OA 
BRANCH  29  30
HETATM   30  C   UNL     1      -7.831   7.287  71.059  1.00  0.00    -0.097 C  
HETATM   31  O   UNL     1      -7.648   8.458  71.363  1.00  0.00    -0.079 OA 
BRANCH  30  32
HETATM   32  C   UNL     1      -7.914   6.132  72.082  1.00  0.00    -0.109 C  
HETATM   33  N   UNL     1      -8.296   4.897  71.378  1.00  0.00    -0.114 N  
HETATM   34  C   UNL     1      -9.745   4.640  71.161  1.00  0.00    -0.181 C  
HETATM   35  S   UNL     1     -10.498   5.803  72.319  1.00  0.00    -0.218 S  
HETATM   36  C   UNL     1      -9.485   3.193  71.588  1.00  0.00    -0.214 C  
HETATM   37  O   UNL     1     -11.013   6.934  71.565  1.00  0.00    -0.232 OA 
HETATM   38  O   UNL     1     -11.350   5.098  73.255  1.00  0.00    -0.321 OA 
HETATM   39  C   UNL     1      -8.983   6.350  73.178  1.00  0.00    -0.128 C  
HETATM   40  C   UNL     1      -8.054   3.659  71.892  1.00  0.00    -0.067 C  
HETATM   41  C   UNL     1      -9.136   7.789  73.690  1.00  0.00    -0.345 C  
HETATM   42  C   UNL     1      -8.731   5.467  74.419  1.00  0.00    -0.117 C  
HETATM   43  O   UNL     1      -7.115   3.256  72.534  1.00  0.00    -0.039 OA 
ENDBRANCH  30  32
ENDBRANCH  29  30
ENDBRANCH  28  29
ENDBRANCH  27  28
ENDBRANCH  25  27
ENDBRANCH   7  25
TORSDOF 9
ENDMDL
MODEL      131
REMARK 921   NORMALIZED FREE ENERGY PREDICTED BY IDOCK:   -5.69 KCAL/MOL
REMARK 922        TOTAL FREE ENERGY PREDICTED BY IDOCK:   -9.19 KCAL/MOL
REMARK 923 INTER-LIGAND FREE ENERGY PREDICTED BY IDOCK:   -9.35 KCAL/MOL
REMARK 924 INTRA-LIGAND FREE ENERGY PREDICTED BY IDOCK:    0.15 KCAL/MOL
REMARK 927      BINDING AFFINITY PREDICTED BY RF-SCORE:    0.00 PKD
ROOT
HETATM    1  C   UNL     1     -11.004  12.274  68.787  1.00  0.00    -0.277 C  
HETATM    2  C   UNL     1     -11.103  12.763  67.327  1.00  0.00    -0.276 C  
HETATM    3  S   UNL     1     -11.089  11.251  66.252  1.00  0.00    -0.083 SA 
HETATM    4  C   UNL     1     -12.450  13.489  67.214  1.00  0.00     0.007 C  
HETATM    5  C   UNL     1      -9.264  11.339  65.920  1.00  0.00    -0.212 C  
HETATM    6  C   UNL     1      -8.315  10.561  66.875  1.00  0.00    -0.126 C  
HETATM    7  C   UNL     1      -9.862  13.576  66.871  1.00  0.00    -0.257 C  
HETATM    8  C   UNL     1      -8.121  11.941  67.556  1.00  0.00    -0.156 C  
HETATM    9  O   UNL     1      -7.712  12.346  68.620  1.00  0.00    -0.118 OA 
HETATM   10  N   UNL     1      -8.820  12.583  66.575  1.00  0.00    -0.144 N  
ENDROOT
BRANCH   6  11
HETATM   11  N   UNL     1      -8.921   9.475  67.692  1.00  0.00    -0.118 N  
HETATM   12  C   UNL     1      -8.137   8.599  68.411  1.00  0.00    -0.118 C  
HETATM   13  O   UNL     1      -6.926   8.768  68.549  1.00  0.00    -0.063 OA 
HETATM   14  H   UNL     1      -9.936   9.378  67.720  1.00  0.00     0.000 HD 
BRANCH  12  15
HETATM   15  C   UNL     1      -8.881   7.378  68.997  1.00  0.00    -0.132 C  
HETATM   16  H2  UNL     1      -9.112   6.457  67.131  1.00  0.00     0.000 HD 
HETATM   17  N   UNL     1      -9.682   6.709  67.937  1.00  0.00    -0.122 NA 
HETATM   18  H1  UNL     1     -10.173   5.903  68.324  1.00  0.00     0.000 HD 
BRANCH  15  19
HETATM   19  C   UNL     1      -9.719   7.710  70.219  1.00  0.00    -0.179 A  
HETATM   20  C   UNL     1      -9.353   8.717  71.129  1.00  0.00    -0.274 A  
HETATM   21  C   UNL     1     -10.934   7.035  70.428  1.00  0.00    -0.301 A  
HETATM   22  C   UNL     1     -11.786   7.406  71.471  1.00  0.00    -0.314 A  
HETATM   23  C   UNL     1     -10.209   9.091  72.165  1.00  0.00    -0.155 A  
HETATM   24  C   UNL     1     -11.432   8.446  72.327  1.00  0.00    -0.454 A  
ENDBRANCH  15  19
ENDBRANCH  12  15
ENDBRANCH   6  11
BRANCH   7  25
HETATM   25  C   UNL     1     -10.054  14.394  65.574  1.00  0.00    -0.356 C  
HETATM   26  O   UNL     1     -10.620  13.997  64.559  1.00  0.00    -0.416 OA 
BRANCH  25  27
HETATM   27  O   UNL     1      -9.497  15.635  65.680  1.00  0.00    -0.320 OA 
BRANCH  27  28
HETATM   28  C   UNL     1     -10.174  16.519  66.578  1.00  0.00    -0.300 C  
BRANCH  28  29
HETATM   29  O   UNL     1      -9.427  16.694  67.778  1.00  0.00    -0.224 OA 
BRANCH  29  30
HETATM   30  C   UNL     1      -9.217  17.976  68.171  1.00  0.00    -0.279 C  
HETATM   31  O   UNL     1     -10.064  18.859  68.141  1.00  0.00    -0.351 OA 
BRANCH  30  32
HETATM   32  C   UNL     1      -7.777  18.178  68.691  1.00  0.00    -0.297 C  
HETATM   33  N   UNL     1      -7.516  19.620  68.830  1.00  0.00    -0.344 N  
HETATM   34  C   UNL     1      -7.049  20.360  67.627  1.00  0.00    -0.307 C  
HETATM   35  S   UNL     1      -6.537  19.009  66.544  1.00  0.00    -0.198 S  
HETATM   36  C   UNL     1      -6.023  21.050  68.530  1.00  0.00    -0.315 C  
HETATM   37  O   UNL     1      -7.555  18.828  65.522  1.00  0.00    -0.476 OA 
HETATM   38  O   UNL     1      -5.146  19.166  66.171  1.00  0.00    -0.140 OA 
HETATM   39  C   UNL     1      -6.691  17.633  67.734  1.00  0.00    -0.183 C  
HETATM   40  C   UNL     1      -6.531  20.109  69.633  1.00  0.00    -0.298 C  
HETATM   41  C   UNL     1      -7.028  16.322  67.011  1.00  0.00    -0.250 C  
HETATM   42  C   UNL     1      -5.344  17.404  68.453  1.00  0.00    -0.145 C  
HETATM   43  O   UNL     1      -6.138  19.718  70.705  1.00  0.00    -0.275 OA 
ENDBRANCH  30  32
ENDBRANCH  29  30
ENDBRANCH  28  29
ENDBRANCH  27  28
ENDBRANCH  25  27
ENDBRANCH   7  25
TORSDOF 9
ENDMDL
MODEL      132
REMARK 921   NORMALIZED FREE ENERGY PREDICTED BY IDOCK:   -5.68 KCAL/MOL
REMARK 922        TOTAL FREE ENERGY PREDICTED BY IDOCK:   -9.17 KCAL/MOL
REMARK 923 INTER-LIGAND FREE ENERGY PREDICTED BY IDOCK:   -9.54 KCAL/MOL
REMARK 924 INTRA-LIGAND FREE ENERGY PREDICTED BY IDOCK:    0.36 KCAL/MOL
REMARK 927      BINDING AFFINITY PREDICTED BY RF-SCORE:    0.00 PKD
ROOT
HETATM    1  C   UNL     1     -10.822  10.389  65.362  1.00  0.00     0.213 C  
HETATM    2  C   UNL     1     -10.622  11.903  65.143  1.00  0.00    -0.287 C  
HETATM    3  S   UNL     1      -9.028  12.360  65.976  1.00  0.00     0.227 SA 
HETATM    4  C   UNL     1     -10.511  12.100  63.627  1.00  0.00    -0.495 C  
HETATM    5  C   UNL     1      -9.851  12.924  67.542  1.00  0.00    -0.208 C  
HETATM    6  C   UNL     1     -10.042  11.879  68.678  1.00  0.00    -0.177 C  
HETATM    7  C   UNL     1     -11.695  12.768  65.857  1.00  0.00    -0.414 C  
HETATM    8  C   UNL     1     -11.485  11.765  68.119  1.00  0.00    -0.316 C  
HETATM    9  O   UNL     1     -12.397  10.974  68.199  1.00  0.00    -0.402 OA 
HETATM   10  N   UNL     1     -11.297  12.816  67.270  1.00  0.00    -0.295 N  
ENDROOT
BRANCH   6  11
HETATM   11  N   UNL     1      -9.191  10.660  68.623  1.00  0.00    -0.172 N  
HETATM   12  C   UNL     1      -9.237   9.710  69.622  1.00  0.00    -0.211 C  
HETATM   13  O   UNL     1     -10.089   9.735  70.508  1.00  0.00    -0.270 OA 
HETATM   14  H   UNL     1      -8.561  10.524  67.832  1.00  0.00     0.000 HD 
BRANCH  12  15
HETATM   15  C   UNL     1      -8.123   8.640  69.565  1.00  0.00    -0.110 C  
HETATM   16  H2  UNL     1      -9.192   7.409  68.251  1.00  0.00     0.000 HD 
HETATM   17  N   UNL     1      -8.690   7.334  69.135  1.00  0.00    -0.136 NA 
HETATM   18  H1  UNL     1      -7.955   6.628  69.098  1.00  0.00     0.000 HD 
BRANCH  15  19
HETATM   19  C   UNL     1      -7.334   8.521  70.856  1.00  0.00    -0.068 A  
HETATM   20  C   UNL     1      -7.690   7.620  71.873  1.00  0.00    -0.093 A  
HETATM   21  C   UNL     1      -6.171   9.292  71.028  1.00  0.00    -0.072 A  
HETATM   22  C   UNL     1      -5.356   9.113  72.148  1.00  0.00    -0.070 A  
HETATM   23  C   UNL     1      -6.869   7.436  72.987  1.00  0.00    -0.065 A  
HETATM   24  C   UNL     1      -5.695   8.172  73.117  1.00  0.00    -0.057 A  
ENDBRANCH  15  19
ENDBRANCH  12  15
ENDBRANCH   6  11
BRANCH   7  25
HETATM   25  C   UNL     1     -11.773  14.238  65.384  1.00  0.00    -0.354 C  
HETATM   26  O   UNL     1     -12.331  14.628  64.363  1.00  0.00    -0.553 OA 
BRANCH  25  27
HETATM   27  O   UNL     1     -11.123  15.073  66.245  1.00  0.00    -0.340 OA 
BRANCH  27  28
HETATM   28  C   UNL     1      -9.946  15.685  65.710  1.00  0.00    -0.359 C  
BRANCH  28  29
HETATM   29  O   UNL     1     -10.131  17.088  65.546  1.00  0.00    -0.577 OA 
BRANCH  29  30
HETATM   30  C   UNL     1      -9.958  17.848  66.657  1.00  0.00    -0.355 C  
HETATM   31  O   UNL     1     -10.636  17.759  67.672  1.00  0.00    -0.383 OA 
BRANCH  30  32
HETATM   32  C   UNL     1      -8.774  18.827  66.491  1.00  0.00    -0.312 C  
HETATM   33  N   UNL     1      -7.652  18.116  65.858  1.00  0.00    -0.189 N  
HETATM   34  C   UNL     1      -6.729  17.350  66.740  1.00  0.00    -0.213 C  
HETATM   35  S   UNL     1      -7.138  18.021  68.365  1.00  0.00    -0.256 S  
HETATM   36  C   UNL     1      -5.571  17.944  65.934  1.00  0.00    -0.237 C  
HETATM   37  O   UNL     1      -7.952  17.048  69.074  1.00  0.00    -0.233 OA 
HETATM   38  O   UNL     1      -5.955  18.579  68.989  1.00  0.00    -0.216 OA 
HETATM   39  C   UNL     1      -8.234  19.380  67.831  1.00  0.00    -0.306 C  
HETATM   40  C   UNL     1      -6.646  18.767  65.211  1.00  0.00    -0.209 C  
HETATM   41  C   UNL     1      -9.287  19.685  68.905  1.00  0.00    -0.342 C  
HETATM   42  C   UNL     1      -7.416  20.675  67.637  1.00  0.00    -0.298 C  
HETATM   43  O   UNL     1      -6.682  19.761  64.526  1.00  0.00    -0.326 OA 
ENDBRANCH  30  32
ENDBRANCH  29  30
ENDBRANCH  28  29
ENDBRANCH  27  28
ENDBRANCH  25  27
ENDBRANCH   7  25
TORSDOF 9
ENDMDL
MODEL      133
REMARK 921   NORMALIZED FREE ENERGY PREDICTED BY IDOCK:   -5.67 KCAL/MOL
REMARK 922        TOTAL FREE ENERGY PREDICTED BY IDOCK:   -9.17 KCAL/MOL
REMARK 923 INTER-LIGAND FREE ENERGY PREDICTED BY IDOCK:   -8.21 KCAL/MOL
REMARK 924 INTRA-LIGAND FREE ENERGY PREDICTED BY IDOCK:   -0.96 KCAL/MOL
REMARK 927      BINDING AFFINITY PREDICTED BY RF-SCORE:    0.00 PKD
ROOT
HETATM    1  C   UNL     1     -10.593   9.585  66.128  1.00  0.00     0.078 C  
HETATM    2  C   UNL     1      -9.894   8.713  67.192  1.00  0.00    -0.207 C  
HETATM    3  S   UNL     1     -10.146   9.554  68.826  1.00  0.00    -0.195 SA 
HETATM    4  C   UNL     1     -10.613   7.359  67.168  1.00  0.00    -0.413 C  
HETATM    5  C   UNL     1      -8.505  10.422  68.786  1.00  0.00    -0.132 C  
HETATM    6  C   UNL     1      -8.454  11.846  68.162  1.00  0.00    -0.163 C  
HETATM    7  C   UNL     1      -8.353   8.658  67.017  1.00  0.00    -0.106 C  
HETATM    8  C   UNL     1      -7.941  11.105  66.899  1.00  0.00    -0.151 C  
HETATM    9  O   UNL     1      -7.838  11.350  65.718  1.00  0.00     0.087 OA 
HETATM   10  N   UNL     1      -7.842   9.920  67.568  1.00  0.00    -0.098 N  
ENDROOT
BRANCH   6  11
HETATM   11  N   UNL     1      -9.743  12.579  68.047  1.00  0.00    -0.209 N  
HETATM   12  C   UNL     1      -9.881  13.862  68.532  1.00  0.00    -0.214 C  
HETATM   13  O   UNL     1      -8.918  14.519  68.926  1.00  0.00    -0.178 OA 
HETATM   14  H   UNL     1     -10.540  12.125  67.601  1.00  0.00     0.000 HD 
BRANCH  12  15
HETATM   15  C   UNL     1     -11.330  14.397  68.577  1.00  0.00    -0.282 C  
HETATM   16  H2  UNL     1     -10.829  16.212  67.661  1.00  0.00     0.000 HD 
HETATM   17  N   UNL     1     -11.332  15.882  68.484  1.00  0.00    -0.362 NA 
HETATM   18  H1  UNL     1     -12.288  16.234  68.514  1.00  0.00     0.000 HD 
BRANCH  15  19
HETATM   19  C   UNL     1     -12.120  13.901  69.776  1.00  0.00    -0.404 A  
HETATM   20  C   UNL     1     -12.193  12.539  70.115  1.00  0.00    -0.307 A  
HETATM   21  C   UNL     1     -12.757  14.831  70.615  1.00  0.00    -0.415 A  
HETATM   22  C   UNL     1     -13.384  14.416  71.793  1.00  0.00    -0.446 A  
HETATM   23  C   UNL     1     -12.811  12.128  71.296  1.00  0.00    -0.349 A  
HETATM   24  C   UNL     1     -13.394  13.067  72.142  1.00  0.00    -0.622 A  
ENDBRANCH  15  19
ENDBRANCH  12  15
ENDBRANCH   6  11
BRANCH   7  25
HETATM   25  C   UNL     1      -7.643   7.530  67.800  1.00  0.00    -0.106 C  
HETATM   26  O   UNL     1      -7.868   6.330  67.679  1.00  0.00    -0.103 OA 
BRANCH  25  27
HETATM   27  O   UNL     1      -6.725   8.033  68.675  1.00  0.00    -0.058 OA 
BRANCH  27  28
HETATM   28  C   UNL     1      -6.304   7.118  69.691  1.00  0.00    -0.035 C  
BRANCH  28  29
HETATM   29  O   UNL     1      -6.320   7.740  70.973  1.00  0.00    -0.037 OA 
BRANCH  29  30
HETATM   30  C   UNL     1      -7.523   7.788  71.600  1.00  0.00    -0.075 C  
HETATM   31  O   UNL     1      -7.928   8.741  72.252  1.00  0.00    -0.350 OA 
BRANCH  30  32
HETATM   32  C   UNL     1      -8.333   6.495  71.365  1.00  0.00    -0.125 C  
HETATM   33  N   UNL     1      -9.737   6.851  71.100  1.00  0.00    -0.173 N  
HETATM   34  C   UNL     1     -10.636   7.050  72.269  1.00  0.00    -0.213 C  
HETATM   35  S   UNL     1      -9.681   6.286  73.597  1.00  0.00    -0.190 S  
HETATM   36  C   UNL     1     -11.689   6.236  71.514  1.00  0.00    -0.329 C  
HETATM   37  O   UNL     1      -9.088   7.340  74.403  1.00  0.00    -0.221 OA 
HETATM   38  O   UNL     1     -10.451   5.230  74.223  1.00  0.00    -0.268 OA 
HETATM   39  C   UNL     1      -8.354   5.545  72.586  1.00  0.00    -0.114 C  
HETATM   40  C   UNL     1     -10.596   6.010  70.460  1.00  0.00    -0.266 C  
HETATM   41  C   UNL     1      -7.047   5.451  73.386  1.00  0.00    -0.086 C  
HETATM   42  C   UNL     1      -8.732   4.101  72.192  1.00  0.00    -0.120 C  
HETATM   43  O   UNL     1     -10.396   5.243  69.550  1.00  0.00    -0.253 OA 
ENDBRANCH  30  32
ENDBRANCH  29  30
ENDBRANCH  28  29
ENDBRANCH  27  28
ENDBRANCH  25  27
ENDBRANCH   7  25
TORSDOF 9
ENDMDL
MODEL      134
REMARK 921   NORMALIZED FREE ENERGY PREDICTED BY IDOCK:   -5.66 KCAL/MOL
REMARK 922        TOTAL FREE ENERGY PREDICTED BY IDOCK:   -9.14 KCAL/MOL
REMARK 923 INTER-LIGAND FREE ENERGY PREDICTED BY IDOCK:   -8.50 KCAL/MOL
REMARK 924 INTRA-LIGAND FREE ENERGY PREDICTED BY IDOCK:   -0.64 KCAL/MOL
REMARK 927      BINDING AFFINITY PREDICTED BY RF-SCORE:    0.00 PKD
ROOT
HETATM    1  C   UNL     1     -10.647  10.048  66.253  1.00  0.00    -0.115 C  
HETATM    2  C   UNL     1      -9.811   9.082  67.119  1.00  0.00    -0.203 C  
HETATM    3  S   UNL     1     -10.132   9.535  68.890  1.00  0.00    -0.196 SA 
HETATM    4  C   UNL     1     -10.343   7.676  66.820  1.00  0.00    -0.343 C  
HETATM    5  C   UNL     1      -8.623  10.609  69.030  1.00  0.00    -0.146 C  
HETATM    6  C   UNL     1      -8.779  12.122  68.707  1.00  0.00     0.114 C  
HETATM    7  C   UNL     1      -8.281   9.274  66.941  1.00  0.00    -0.119 C  
HETATM    8  C   UNL     1      -8.203  11.727  67.322  1.00  0.00    -0.163 C  
HETATM    9  O   UNL     1      -8.164  12.216  66.216  1.00  0.00     0.070 OA 
HETATM   10  N   UNL     1      -7.929  10.457  67.738  1.00  0.00    -0.102 N  
ENDROOT
BRANCH   6  11
HETATM   11  N   UNL     1     -10.156  12.682  68.741  1.00  0.00    -0.417 N  
HETATM   12  C   UNL     1     -10.377  14.042  68.703  1.00  0.00    -0.238 C  
HETATM   13  O   UNL     1      -9.473  14.844  68.473  1.00  0.00    -0.197 OA 
HETATM   14  H   UNL     1     -10.953  12.047  68.792  1.00  0.00     0.000 HD 
BRANCH  12  15
HETATM   15  C   UNL     1     -11.827  14.483  69.003  1.00  0.00    -0.318 C  
HETATM   16  H2  UNL     1     -11.987  15.612  67.247  1.00  0.00     0.000 HD 
HETATM   17  N   UNL     1     -12.153  15.722  68.247  1.00  0.00    -0.339 NA 
HETATM   18  H1  UNL     1     -13.110  16.013  68.446  1.00  0.00     0.000 HD 
BRANCH  15  19
HETATM   19  C   UNL     1     -12.119  14.628  70.486  1.00  0.00    -0.388 A  
HETATM   20  C   UNL     1     -11.763  15.777  71.213  1.00  0.00    -0.496 A  
HETATM   21  C   UNL     1     -12.821  13.609  71.154  1.00  0.00    -0.399 A  
HETATM   22  C   UNL     1     -13.215  13.769  72.485  1.00  0.00    -0.599 A  
HETATM   23  C   UNL     1     -12.165  15.938  72.539  1.00  0.00    -0.597 A  
HETATM   24  C   UNL     1     -12.903  14.941  73.171  1.00  0.00    -0.619 A  
ENDBRANCH  15  19
ENDBRANCH  12  15
ENDBRANCH   6  11
BRANCH   7  25
HETATM   25  C   UNL     1      -7.408   8.119  67.481  1.00  0.00    -0.093 C  
HETATM   26  O   UNL     1      -7.461   6.951  67.107  1.00  0.00    -0.090 OA 
BRANCH  25  27
HETATM   27  O   UNL     1      -6.558   8.551  68.457  1.00  0.00    -0.057 OA 
BRANCH  27  28
HETATM   28  C   UNL     1      -5.995   7.511  69.263  1.00  0.00    -0.030 C  
BRANCH  28  29
HETATM   29  O   UNL     1      -6.312   7.706  70.637  1.00  0.00    -0.037 OA 
BRANCH  29  30
HETATM   30  C   UNL     1      -6.904   6.660  71.269  1.00  0.00    -0.062 C  
HETATM   31  O   UNL     1      -6.300   5.723  71.774  1.00  0.00    -0.044 OA 
BRANCH  30  32
HETATM   32  C   UNL     1      -8.440   6.814  71.298  1.00  0.00    -0.124 C  
HETATM   33  N   UNL     1      -8.878   6.979  72.693  1.00  0.00    -0.123 N  
HETATM   34  C   UNL     1      -9.116   5.750  73.497  1.00  0.00    -0.131 C  
HETATM   35  S   UNL     1      -9.202   4.485  72.211  1.00  0.00    -0.128 S  
HETATM   36  C   UNL     1     -10.396   6.411  74.011  1.00  0.00    -0.340 C  
HETATM   37  O   UNL     1      -7.954   3.742  72.211  1.00  0.00    -0.067 OA 
HETATM   38  O   UNL     1     -10.471   3.788  72.280  1.00  0.00    -0.131 OA 
HETATM   39  C   UNL     1      -9.198   5.581  70.751  1.00  0.00    -0.150 C  
HETATM   40  C   UNL     1     -10.075   7.540  73.021  1.00  0.00    -0.288 C  
HETATM   41  C   UNL     1      -8.558   4.880  69.545  1.00  0.00    -0.101 C  
HETATM   42  C   UNL     1     -10.646   5.924  70.342  1.00  0.00    -0.353 C  
HETATM   43  O   UNL     1     -10.673   8.452  72.502  1.00  0.00    -0.338 OA 
ENDBRANCH  30  32
ENDBRANCH  29  30
ENDBRANCH  28  29
ENDBRANCH  27  28
ENDBRANCH  25  27
ENDBRANCH   7  25
TORSDOF 9
ENDMDL
MODEL      135
REMARK 921   NORMALIZED FREE ENERGY PREDICTED BY IDOCK:   -5.66 KCAL/MOL
REMARK 922        TOTAL FREE ENERGY PREDICTED BY IDOCK:   -9.14 KCAL/MOL
REMARK 923 INTER-LIGAND FREE ENERGY PREDICTED BY IDOCK:   -8.41 KCAL/MOL
REMARK 924 INTRA-LIGAND FREE ENERGY PREDICTED BY IDOCK:   -0.73 KCAL/MOL
REMARK 927      BINDING AFFINITY PREDICTED BY RF-SCORE:    0.00 PKD
ROOT
HETATM    1  C   UNL     1      -9.107  10.789  66.403  1.00  0.00    -0.188 C  
HETATM    2  C   UNL     1      -8.900  10.589  67.918  1.00  0.00    -0.133 C  
HETATM    3  S   UNL     1      -9.346  12.193  68.737  1.00  0.00     0.185 SA 
HETATM    4  C   UNL     1      -9.878   9.484  68.336  1.00  0.00    -0.175 C  
HETATM    5  C   UNL     1      -7.592  12.800  68.807  1.00  0.00    -0.025 C  
HETATM    6  C   UNL     1      -7.073  13.654  67.616  1.00  0.00    -0.170 C  
HETATM    7  C   UNL     1      -7.416  10.354  68.305  1.00  0.00    -0.090 C  
HETATM    8  C   UNL     1      -6.449  12.319  67.131  1.00  0.00    -0.117 C  
HETATM    9  O   UNL     1      -6.011  11.880  66.092  1.00  0.00    -0.018 OA 
HETATM   10  N   UNL     1      -6.783  11.680  68.290  1.00  0.00    -0.062 N  
ENDROOT
BRANCH   6  11
HETATM   11  N   UNL     1      -8.097  14.287  66.742  1.00  0.00    -0.350 N  
HETATM   12  C   UNL     1      -8.356  15.639  66.807  1.00  0.00    -0.278 C  
HETATM   13  O   UNL     1      -7.651  16.409  67.458  1.00  0.00    -0.131 OA 
HETATM   14  H   UNL     1      -8.617  13.709  66.081  1.00  0.00     0.000 HD 
BRANCH  12  15
HETATM   15  C   UNL     1      -9.611  16.107  66.036  1.00  0.00    -0.346 C  
HETATM   16  H2  UNL     1      -9.545  18.040  66.839  1.00  0.00     0.000 HD 
HETATM   17  N   UNL     1     -10.218  17.285  66.712  1.00  0.00    -0.311 NA 
HETATM   18  H1  UNL     1     -11.046  17.594  66.204  1.00  0.00     0.000 HD 
BRANCH  15  19
HETATM   19  C   UNL     1     -10.624  15.001  65.802  1.00  0.00    -0.351 A  
HETATM   20  C   UNL     1     -10.656  14.252  64.613  1.00  0.00    -0.364 A  
HETATM   21  C   UNL     1     -11.529  14.665  66.823  1.00  0.00    -0.371 A  
HETATM   22  C   UNL     1     -12.387  13.571  66.686  1.00  0.00    -0.351 A  
HETATM   23  C   UNL     1     -11.507  13.154  64.481  1.00  0.00    -0.390 A  
HETATM   24  C   UNL     1     -12.362  12.805  65.522  1.00  0.00    -0.495 A  
ENDBRANCH  15  19
ENDBRANCH  12  15
ENDBRANCH   6  11
BRANCH   7  25
HETATM   25  C   UNL     1      -7.189   9.788  69.725  1.00  0.00    -0.105 C  
HETATM   26  O   UNL     1      -6.766  10.425  70.686  1.00  0.00    -0.313 OA 
BRANCH  25  27
HETATM   27  O   UNL     1      -7.509   8.464  69.791  1.00  0.00    -0.069 OA 
BRANCH  27  28
HETATM   28  C   UNL     1      -6.527   7.643  70.431  1.00  0.00    -0.038 C  
BRANCH  28  29
HETATM   29  O   UNL     1      -6.988   7.200  71.704  1.00  0.00    -0.065 OA 
BRANCH  29  30
HETATM   30  C   UNL     1      -8.272   7.509  72.017  1.00  0.00    -0.102 C  
HETATM   31  O   UNL     1      -8.607   8.444  72.731  1.00  0.00    -0.236 OA 
BRANCH  30  32
HETATM   32  C   UNL     1      -9.266   6.544  71.334  1.00  0.00    -0.148 C  
HETATM   33  N   UNL     1     -10.594   7.179  71.288  1.00  0.00    -0.214 N  
HETATM   34  C   UNL     1     -11.473   7.037  72.480  1.00  0.00    -0.237 C  
HETATM   35  S   UNL     1     -10.670   5.683  73.365  1.00  0.00    -0.280 S  
HETATM   36  C   UNL     1     -12.624   6.746  71.515  1.00  0.00    -0.371 C  
HETATM   37  O   UNL     1      -9.938   6.239  74.491  1.00  0.00    -0.283 OA 
HETATM   38  O   UNL     1     -11.603   4.593  73.565  1.00  0.00    -0.285 OA 
HETATM   39  C   UNL     1      -9.453   5.208  72.090  1.00  0.00    -0.140 C  
HETATM   40  C   UNL     1     -11.559   6.790  70.410  1.00  0.00    -0.367 C  
HETATM   41  C   UNL     1      -8.191   4.618  72.734  1.00  0.00    -0.100 C  
HETATM   42  C   UNL     1     -10.041   4.105  71.184  1.00  0.00    -0.145 C  
HETATM   43  O   UNL     1     -11.462   6.419  69.265  1.00  0.00    -0.381 OA 
ENDBRANCH  30  32
ENDBRANCH  29  30
ENDBRANCH  28  29
ENDBRANCH  27  28
ENDBRANCH  25  27
ENDBRANCH   7  25
TORSDOF 9
ENDMDL
MODEL      136
REMARK 921   NORMALIZED FREE ENERGY PREDICTED BY IDOCK:   -5.64 KCAL/MOL
REMARK 922        TOTAL FREE ENERGY PREDICTED BY IDOCK:   -9.11 KCAL/MOL
REMARK 923 INTER-LIGAND FREE ENERGY PREDICTED BY IDOCK:   -8.79 KCAL/MOL
REMARK 924 INTRA-LIGAND FREE ENERGY PREDICTED BY IDOCK:   -0.31 KCAL/MOL
REMARK 927      BINDING AFFINITY PREDICTED BY RF-SCORE:    0.00 PKD
ROOT
HETATM    1  C   UNL     1     -12.028  12.113  65.914  1.00  0.00    -0.252 C  
HETATM    2  C   UNL     1     -11.315  13.355  66.489  1.00  0.00    -0.320 C  
HETATM    3  S   UNL     1      -9.507  12.946  66.571  1.00  0.00    -0.226 SA 
HETATM    4  C   UNL     1     -11.564  14.488  65.486  1.00  0.00    -0.350 C  
HETATM    5  C   UNL     1      -9.566  12.433  68.355  1.00  0.00    -0.180 C  
HETATM    6  C   UNL     1      -9.829  10.933  68.669  1.00  0.00    -0.190 C  
HETATM    7  C   UNL     1     -11.712  13.659  67.958  1.00  0.00    -0.352 C  
HETATM    8  C   UNL     1     -11.293  11.397  68.894  1.00  0.00    -0.270 C  
HETATM    9  O   UNL     1     -12.382  10.872  68.948  1.00  0.00    -0.486 OA 
HETATM   10  N   UNL     1     -10.949  12.712  68.784  1.00  0.00    -0.246 N  
ENDROOT
BRANCH   6  11
HETATM   11  N   UNL     1      -9.582   9.960  67.572  1.00  0.00    -0.154 N  
HETATM   12  C   UNL     1      -8.665   8.940  67.714  1.00  0.00    -0.125 C  
HETATM   13  O   UNL     1      -8.135   8.684  68.794  1.00  0.00    -0.112 OA 
HETATM   14  H   UNL     1     -10.101  10.048  66.698  1.00  0.00     0.000 HD 
BRANCH  12  15
HETATM   15  C   UNL     1      -8.327   8.173  66.415  1.00  0.00    -0.115 C  
HETATM   16  H2  UNL     1      -8.235   6.317  67.380  1.00  0.00     0.000 HD 
HETATM   17  N   UNL     1      -7.672   6.878  66.741  1.00  0.00    -0.100 NA 
HETATM   18  H1  UNL     1      -7.449   6.372  65.885  1.00  0.00     0.000 HD 
BRANCH  15  19
HETATM   19  C   UNL     1      -7.514   8.989  65.426  1.00  0.00    -0.089 A  
HETATM   20  C   UNL     1      -6.370   9.710  65.808  1.00  0.00    -0.075 A  
HETATM   21  C   UNL     1      -7.874   8.984  64.067  1.00  0.00    -0.133 A  
HETATM   22  C   UNL     1      -7.074   9.621  63.115  1.00  0.00    -0.107 A  
HETATM   23  C   UNL     1      -5.568  10.338  64.855  1.00  0.00    -0.126 A  
HETATM   24  C   UNL     1      -5.911  10.281  63.507  1.00  0.00    -0.142 A  
ENDBRANCH  15  19
ENDBRANCH  12  15
ENDBRANCH   6  11
BRANCH   7  25
HETATM   25  C   UNL     1     -11.331  15.070  68.462  1.00  0.00    -0.303 C  
HETATM   26  O   UNL     1     -11.503  16.116  67.845  1.00  0.00    -0.248 OA 
BRANCH  25  27
HETATM   27  O   UNL     1     -10.754  15.019  69.697  1.00  0.00    -0.252 OA 
BRANCH  27  28
HETATM   28  C   UNL     1      -9.777  16.035  69.943  1.00  0.00     0.066 C  
BRANCH  28  29
HETATM   29  O   UNL     1      -8.798  16.059  68.908  1.00  0.00    -0.205 OA 
BRANCH  29  30
HETATM   30  C   UNL     1      -7.694  16.813  69.145  1.00  0.00    -0.165 C  
HETATM   31  O   UNL     1      -6.627  16.373  69.550  1.00  0.00    -0.205 OA 
BRANCH  30  32
HETATM   32  C   UNL     1      -7.945  18.300  68.811  1.00  0.00    -0.250 C  
HETATM   33  N   UNL     1      -9.147  18.405  67.968  1.00  0.00    -0.287 N  
HETATM   34  C   UNL     1      -8.982  18.236  66.499  1.00  0.00    -0.274 C  
HETATM   35  S   UNL     1      -7.197  18.428  66.309  1.00  0.00    -0.270 S  
HETATM   36  C   UNL     1      -9.907  19.442  66.322  1.00  0.00    -0.477 C  
HETATM   37  O   UNL     1      -6.611  17.114  66.105  1.00  0.00    -0.202 OA 
HETATM   38  O   UNL     1      -6.905  19.511  65.391  1.00  0.00    -0.274 OA 
HETATM   39  C   UNL     1      -6.798  18.958  68.010  1.00  0.00    -0.233 C  
HETATM   40  C   UNL     1      -9.860  19.560  67.852  1.00  0.00    -0.379 C  
HETATM   41  C   UNL     1      -5.376  18.528  68.396  1.00  0.00    -0.173 C  
HETATM   42  C   UNL     1      -6.831  20.499  68.105  1.00  0.00    -0.280 C  
HETATM   43  O   UNL     1     -10.105  20.405  68.677  1.00  0.00    -0.233 OA 
ENDBRANCH  30  32
ENDBRANCH  29  30
ENDBRANCH  28  29
ENDBRANCH  27  28
ENDBRANCH  25  27
ENDBRANCH   7  25
TORSDOF 9
ENDMDL
MODEL      137
REMARK 921   NORMALIZED FREE ENERGY PREDICTED BY IDOCK:   -5.62 KCAL/MOL
REMARK 922        TOTAL FREE ENERGY PREDICTED BY IDOCK:   -9.08 KCAL/MOL
REMARK 923 INTER-LIGAND FREE ENERGY PREDICTED BY IDOCK:   -8.10 KCAL/MOL
REMARK 924 INTRA-LIGAND FREE ENERGY PREDICTED BY IDOCK:   -0.98 KCAL/MOL
REMARK 927      BINDING AFFINITY PREDICTED BY RF-SCORE:    0.00 PKD
ROOT
HETATM    1  C   UNL     1      -9.310   9.873  65.916  1.00  0.00    -0.245 C  
HETATM    2  C   UNL     1      -8.858   8.818  66.947  1.00  0.00    -0.127 C  
HETATM    3  S   UNL     1      -9.445   9.404  68.607  1.00  0.00    -0.147 SA 
HETATM    4  C   UNL     1      -9.566   7.515  66.557  1.00  0.00    -0.239 C  
HETATM    5  C   UNL     1      -7.826  10.201  69.048  1.00  0.00    -0.107 C  
HETATM    6  C   UNL     1      -7.634  11.701  68.686  1.00  0.00    -0.133 C  
HETATM    7  C   UNL     1      -7.315   8.728  67.090  1.00  0.00    -0.080 C  
HETATM    8  C   UNL     1      -6.870  11.145  67.455  1.00  0.00    -0.089 C  
HETATM    9  O   UNL     1      -6.518  11.566  66.377  1.00  0.00    -0.090 OA 
HETATM   10  N   UNL     1      -6.923   9.867  67.931  1.00  0.00    -0.080 N  
ENDROOT
BRANCH   6  11
HETATM   11  N   UNL     1      -8.864  12.495  68.425  1.00  0.00    -0.305 N  
HETATM   12  C   UNL     1      -8.848  13.873  68.467  1.00  0.00    -0.137 C  
HETATM   13  O   UNL     1      -7.800  14.511  68.555  1.00  0.00    -0.123 OA 
HETATM   14  H   UNL     1      -9.737  12.012  68.210  1.00  0.00     0.000 HD 
BRANCH  12  15
HETATM   15  C   UNL     1     -10.237  14.549  68.434  1.00  0.00    -0.239 C  
HETATM   16  H2  UNL     1     -10.711  13.972  70.390  1.00  0.00     0.000 HD 
HETATM   17  N   UNL     1     -11.127  13.943  69.460  1.00  0.00    -0.416 NA 
HETATM   18  H1  UNL     1     -12.043  14.389  69.437  1.00  0.00     0.000 HD 
BRANCH  15  19
HETATM   19  C   UNL     1     -10.875  14.552  67.056  1.00  0.00    -0.297 A  
HETATM   20  C   UNL     1     -11.965  13.726  66.732  1.00  0.00    -0.465 A  
HETATM   21  C   UNL     1     -10.405  15.447  66.079  1.00  0.00    -0.339 A  
HETATM   22  C   UNL     1     -11.053  15.560  64.846  1.00  0.00    -0.428 A  
HETATM   23  C   UNL     1     -12.615  13.847  65.504  1.00  0.00    -0.560 A  
HETATM   24  C   UNL     1     -12.168  14.774  64.567  1.00  0.00    -0.443 A  
ENDBRANCH  15  19
ENDBRANCH  12  15
ENDBRANCH   6  11
BRANCH   7  25
HETATM   25  C   UNL     1      -6.796   7.464  67.813  1.00  0.00    -0.074 C  
HETATM   26  O   UNL     1      -7.124   6.311  67.552  1.00  0.00    -0.069 OA 
BRANCH  25  27
HETATM   27  O   UNL     1      -5.919   7.784  68.807  1.00  0.00    -0.033 OA 
BRANCH  27  28
HETATM   28  C   UNL     1      -5.977   6.929  69.953  1.00  0.00    -0.023 C  
BRANCH  28  29
HETATM   29  O   UNL     1      -6.976   7.372  70.867  1.00  0.00    -0.057 OA 
BRANCH  29  30
HETATM   30  C   UNL     1      -7.321   6.498  71.847  1.00  0.00    -0.091 C  
HETATM   31  O   UNL     1      -6.880   6.524  72.988  1.00  0.00    -0.072 OA 
BRANCH  30  32
HETATM   32  C   UNL     1      -8.369   5.478  71.348  1.00  0.00    -0.126 C  
HETATM   33  N   UNL     1      -9.325   6.167  70.467  1.00  0.00    -0.160 N  
HETATM   34  C   UNL     1     -10.484   6.853  71.101  1.00  0.00    -0.212 C  
HETATM   35  S   UNL     1     -10.474   6.130  72.755  1.00  0.00    -0.229 S  
HETATM   36  C   UNL     1     -11.361   6.245  70.003  1.00  0.00    -0.486 C  
HETATM   37  O   UNL     1      -9.924   7.106  73.681  1.00  0.00    -0.258 OA 
HETATM   38  O   UNL     1     -11.747   5.495  73.032  1.00  0.00    -0.242 OA 
HETATM   39  C   UNL     1      -9.207   4.844  72.483  1.00  0.00    -0.132 C  
HETATM   40  C   UNL     1     -10.093   5.501  69.560  1.00  0.00    -0.234 C  
HETATM   41  C   UNL     1      -8.453   4.538  73.785  1.00  0.00    -0.104 C  
HETATM   42  C   UNL     1      -9.878   3.525  72.043  1.00  0.00    -0.238 C  
HETATM   43  O   UNL     1      -9.830   4.541  68.878  1.00  0.00    -0.168 OA 
ENDBRANCH  30  32
ENDBRANCH  29  30
ENDBRANCH  28  29
ENDBRANCH  27  28
ENDBRANCH  25  27
ENDBRANCH   7  25
TORSDOF 9
ENDMDL
MODEL      138
REMARK 921   NORMALIZED FREE ENERGY PREDICTED BY IDOCK:   -5.57 KCAL/MOL
REMARK 922        TOTAL FREE ENERGY PREDICTED BY IDOCK:   -9.01 KCAL/MOL
REMARK 923 INTER-LIGAND FREE ENERGY PREDICTED BY IDOCK:   -8.19 KCAL/MOL
REMARK 924 INTRA-LIGAND FREE ENERGY PREDICTED BY IDOCK:   -0.82 KCAL/MOL
REMARK 927      BINDING AFFINITY PREDICTED BY RF-SCORE:    0.00 PKD
ROOT
HETATM    1  C   UNL     1      -8.390   9.110  69.577  1.00  0.00    -0.126 C  
HETATM    2  C   UNL     1      -9.793   9.687  69.295  1.00  0.00    -0.189 C  
HETATM    3  S   UNL     1     -10.881   8.255  68.839  1.00  0.00     0.131 SA 
HETATM    4  C   UNL     1     -10.263  10.319  70.612  1.00  0.00     0.276 C  
HETATM    5  C   UNL     1     -10.662   8.498  67.010  1.00  0.00    -0.120 C  
HETATM    6  C   UNL     1      -9.505   7.728  66.311  1.00  0.00    -0.133 C  
HETATM    7  C   UNL     1      -9.832  10.616  68.053  1.00  0.00    -0.160 C  
HETATM    8  C   UNL     1      -8.739   9.071  66.444  1.00  0.00    -0.132 C  
HETATM    9  O   UNL     1      -7.585   9.432  66.396  1.00  0.00    -0.096 OA 
HETATM   10  N   UNL     1      -9.853   9.724  66.886  1.00  0.00    -0.190 N  
ENDROOT
BRANCH   6  11
HETATM   11  N   UNL     1      -8.948   6.550  67.027  1.00  0.00    -0.118 N  
HETATM   12  C   UNL     1      -9.640   5.359  67.091  1.00  0.00    -0.137 C  
HETATM   13  O   UNL     1     -10.658   5.159  66.429  1.00  0.00    -0.293 OA 
HETATM   14  H   UNL     1      -8.037   6.623  67.480  1.00  0.00     0.000 HD 
BRANCH  12  15
HETATM   15  C   UNL     1      -9.067   4.316  68.076  1.00  0.00    -0.131 C  
HETATM   16  H2  UNL     1      -9.555   2.693  66.846  1.00  0.00     0.000 HD 
HETATM   17  N   UNL     1      -9.670   2.981  67.817  1.00  0.00    -0.262 NA 
HETATM   18  H1  UNL     1      -9.292   2.293  68.467  1.00  0.00     0.000 HD 
BRANCH  15  19
HETATM   19  C   UNL     1      -9.195   4.726  69.532  1.00  0.00    -0.177 A  
HETATM   20  C   UNL     1     -10.439   4.979  70.134  1.00  0.00    -0.235 A  
HETATM   21  C   UNL     1      -8.042   4.803  70.332  1.00  0.00    -0.083 A  
HETATM   22  C   UNL     1      -8.139   5.053  71.703  1.00  0.00    -0.114 A  
HETATM   23  C   UNL     1     -10.536   5.220  71.505  1.00  0.00    -0.279 A  
HETATM   24  C   UNL     1      -9.388   5.243  72.292  1.00  0.00    -0.160 A  
ENDBRANCH  15  19
ENDBRANCH  12  15
ENDBRANCH   6  11
BRANCH   7  25
HETATM   25  C   UNL     1     -11.092  11.504  67.936  1.00  0.00    -0.256 C  
HETATM   26  O   UNL     1     -12.251  11.108  68.023  1.00  0.00    -0.584 OA 
BRANCH  25  27
HETATM   27  O   UNL     1     -10.764  12.807  67.706  1.00  0.00    -0.214 OA 
BRANCH  27  28
HETATM   28  C   UNL     1     -11.519  13.439  66.667  1.00  0.00    -0.344 C  
BRANCH  28  29
HETATM   29  O   UNL     1     -11.606  14.844  66.885  1.00  0.00    -0.345 OA 
BRANCH  29  30
HETATM   30  C   UNL     1     -10.610  15.596  66.352  1.00  0.00    -0.308 C  
HETATM   31  O   UNL     1      -9.865  15.225  65.454  1.00  0.00    -0.332 OA 
BRANCH  30  32
HETATM   32  C   UNL     1     -10.550  16.996  67.002  1.00  0.00    -0.226 C  
HETATM   33  N   UNL     1      -9.810  17.905  66.112  1.00  0.00    -0.286 N  
HETATM   34  C   UNL     1      -8.327  17.931  66.222  1.00  0.00    -0.196 C  
HETATM   35  S   UNL     1      -8.065  17.112  67.810  1.00  0.00    -0.196 S  
HETATM   36  C   UNL     1      -8.413  19.458  66.151  1.00  0.00    -0.303 C  
HETATM   37  O   UNL     1      -7.606  15.757  67.559  1.00  0.00    -0.139 OA 
HETATM   38  O   UNL     1      -7.329  17.982  68.706  1.00  0.00    -0.270 OA 
HETATM   39  C   UNL     1      -9.804  17.019  68.357  1.00  0.00    -0.283 C  
HETATM   40  C   UNL     1      -9.936  19.259  66.184  1.00  0.00    -0.397 C  
HETATM   41  C   UNL     1     -10.025  15.802  69.266  1.00  0.00    -0.262 C  
HETATM   42  C   UNL     1     -10.163  18.264  69.196  1.00  0.00    -0.104 C  
HETATM   43  O   UNL     1     -10.906  19.937  66.420  1.00  0.00    -0.417 OA 
ENDBRANCH  30  32
ENDBRANCH  29  30
ENDBRANCH  28  29
ENDBRANCH  27  28
ENDBRANCH  25  27
ENDBRANCH   7  25
TORSDOF 9
ENDMDL
MODEL      139
REMARK 921   NORMALIZED FREE ENERGY PREDICTED BY IDOCK:   -5.57 KCAL/MOL
REMARK 922        TOTAL FREE ENERGY PREDICTED BY IDOCK:   -9.00 KCAL/MOL
REMARK 923 INTER-LIGAND FREE ENERGY PREDICTED BY IDOCK:   -8.18 KCAL/MOL
REMARK 924 INTRA-LIGAND FREE ENERGY PREDICTED BY IDOCK:   -0.83 KCAL/MOL
REMARK 927      BINDING AFFINITY PREDICTED BY RF-SCORE:    0.00 PKD
ROOT
HETATM    1  C   UNL     1      -8.218  16.500  66.560  1.00  0.00    -0.335 C  
HETATM    2  C   UNL     1      -7.362  15.689  67.556  1.00  0.00    -0.185 C  
HETATM    3  S   UNL     1      -7.875  13.915  67.384  1.00  0.00    -0.125 SA 
HETATM    4  C   UNL     1      -5.906  15.872  67.109  1.00  0.00     0.096 C  
HETATM    5  C   UNL     1      -9.066  13.981  68.808  1.00  0.00    -0.033 C  
HETATM    6  C   UNL     1     -10.545  14.346  68.500  1.00  0.00    -0.255 C  
HETATM    7  C   UNL     1      -7.659  16.038  69.038  1.00  0.00    -0.209 C  
HETATM    8  C   UNL     1     -10.127  15.768  68.959  1.00  0.00    -0.225 C  
HETATM    9  O   UNL     1     -10.562  16.891  68.844  1.00  0.00    -0.326 OA 
HETATM   10  N   UNL     1      -8.903  15.333  69.375  1.00  0.00    -0.240 N  
ENDROOT
BRANCH   6  11
HETATM   11  N   UNL     1     -11.000  14.189  67.093  1.00  0.00    -0.294 N  
HETATM   12  C   UNL     1     -11.613  13.030  66.665  1.00  0.00    -0.359 C  
HETATM   13  O   UNL     1     -11.962  12.148  67.448  1.00  0.00    -0.563 OA 
HETATM   14  H   UNL     1     -10.856  14.952  66.431  1.00  0.00     0.000 HD 
BRANCH  12  15
HETATM   15  C   UNL     1     -11.795  12.908  65.135  1.00  0.00    -0.380 C  
HETATM   16  H2  UNL     1     -13.830  13.394  65.206  1.00  0.00     0.000 HD 
HETATM   17  N   UNL     1     -13.227  12.676  64.806  1.00  0.00    -0.780 NA 
HETATM   18  H1  UNL     1     -13.347  12.595  63.797  1.00  0.00     0.000 HD 
BRANCH  15  19
HETATM   19  C   UNL     1     -10.890  11.867  64.501  1.00  0.00    -0.368 A  
HETATM   20  C   UNL     1     -10.361  12.020  63.208  1.00  0.00    -0.398 A  
HETATM   21  C   UNL     1     -10.514  10.734  65.243  1.00  0.00    -0.282 A  
HETATM   22  C   UNL     1      -9.583   9.824  64.735  1.00  0.00    -0.284 A  
HETATM   23  C   UNL     1      -9.425  11.115  62.705  1.00  0.00    -0.357 A  
HETATM   24  C   UNL     1      -9.026  10.025  63.474  1.00  0.00    -0.279 A  
ENDBRANCH  15  19
ENDBRANCH  12  15
ENDBRANCH   6  11
BRANCH   7  25
HETATM   25  C   UNL     1      -6.601  15.547  70.053  1.00  0.00    -0.079 C  
HETATM   26  O   UNL     1      -5.568  16.142  70.347  1.00  0.00    -0.175 OA 
BRANCH  25  27
HETATM   27  O   UNL     1      -6.946  14.341  70.588  1.00  0.00     0.204 OA 
BRANCH  27  28
HETATM   28  C   UNL     1      -5.859  13.425  70.747  1.00  0.00    -0.148 C  
BRANCH  28  29
HETATM   29  O   UNL     1      -5.949  12.362  69.803  1.00  0.00    -0.111 OA 
BRANCH  29  30
HETATM   30  C   UNL     1      -6.219  11.132  70.311  1.00  0.00    -0.134 C  
HETATM   31  O   UNL     1      -5.701  10.666  71.317  1.00  0.00    -0.289 OA 
BRANCH  30  32
HETATM   32  C   UNL     1      -7.290  10.399  69.473  1.00  0.00    -0.144 C  
HETATM   33  N   UNL     1      -8.316   9.856  70.378  1.00  0.00    -0.074 N  
HETATM   34  C   UNL     1      -8.067   8.522  70.989  1.00  0.00    -0.130 C  
HETATM   35  S   UNL     1      -6.731   7.890  69.952  1.00  0.00    -0.037 S  
HETATM   36  C   UNL     1      -9.522   8.174  70.665  1.00  0.00    -0.174 C  
HETATM   37  O   UNL     1      -5.484   7.998  70.691  1.00  0.00    -0.026 OA 
HETATM   38  O   UNL     1      -7.119   6.631  69.350  1.00  0.00    -0.074 OA 
HETATM   39  C   UNL     1      -6.737   9.195  68.676  1.00  0.00    -0.058 C  
HETATM   40  C   UNL     1      -9.569   9.533  69.951  1.00  0.00    -0.223 C  
HETATM   41  C   UNL     1      -5.337   9.374  68.073  1.00  0.00    -0.037 C  
HETATM   42  C   UNL     1      -7.668   8.792  67.511  1.00  0.00    -0.101 C  
HETATM   43  O   UNL     1     -10.272  10.073  69.133  1.00  0.00    -0.186 OA 
ENDBRANCH  30  32
ENDBRANCH  29  30
ENDBRANCH  28  29
ENDBRANCH  27  28
ENDBRANCH  25  27
ENDBRANCH   7  25
TORSDOF 9
ENDMDL
MODEL      140
REMARK 921   NORMALIZED FREE ENERGY PREDICTED BY IDOCK:   -5.57 KCAL/MOL
REMARK 922        TOTAL FREE ENERGY PREDICTED BY IDOCK:   -9.00 KCAL/MOL
REMARK 923 INTER-LIGAND FREE ENERGY PREDICTED BY IDOCK:   -8.03 KCAL/MOL
REMARK 924 INTRA-LIGAND FREE ENERGY PREDICTED BY IDOCK:   -0.97 KCAL/MOL
REMARK 927      BINDING AFFINITY PREDICTED BY RF-SCORE:    0.00 PKD
ROOT
HETATM    1  C   UNL     1      -9.382  11.186  66.003  1.00  0.00    -0.228 C  
HETATM    2  C   UNL     1      -9.209  10.003  66.978  1.00  0.00    -0.146 C  
HETATM    3  S   UNL     1      -9.593  10.647  68.675  1.00  0.00    -0.186 SA 
HETATM    4  C   UNL     1     -10.244   8.953  66.556  1.00  0.00    -0.319 C  
HETATM    5  C   UNL     1      -7.814  10.966  69.103  1.00  0.00    -0.119 C  
HETATM    6  C   UNL     1      -7.237  12.377  68.796  1.00  0.00    -0.094 C  
HETATM    7  C   UNL     1      -7.744   9.502  67.074  1.00  0.00    -0.091 C  
HETATM    8  C   UNL     1      -6.668  11.696  67.523  1.00  0.00    -0.096 C  
HETATM    9  O   UNL     1      -6.234  12.058  66.453  1.00  0.00    -0.049 OA 
HETATM   10  N   UNL     1      -7.050  10.457  67.949  1.00  0.00    -0.082 N  
ENDROOT
BRANCH   6  11
HETATM   11  N   UNL     1      -8.216  13.479  68.601  1.00  0.00    -0.308 N  
HETATM   12  C   UNL     1      -8.053  14.698  69.224  1.00  0.00    -0.030 C  
HETATM   13  O   UNL     1      -7.021  14.991  69.827  1.00  0.00    -0.176 OA 
HETATM   14  H   UNL     1      -9.023  13.331  67.996  1.00  0.00     0.000 HD 
BRANCH  12  15
HETATM   15  C   UNL     1      -9.268  15.649  69.139  1.00  0.00    -0.254 C  
HETATM   16  H2  UNL     1     -10.652  14.082  69.017  1.00  0.00     0.000 HD 
HETATM   17  N   UNL     1     -10.427  14.946  68.525  1.00  0.00    -0.236 NA 
HETATM   18  H1  UNL     1     -11.228  15.574  68.469  1.00  0.00     0.000 HD 
BRANCH  15  19
HETATM   19  C   UNL     1      -8.961  16.961  68.438  1.00  0.00    -0.244 A  
HETATM   20  C   UNL     1      -8.044  17.048  67.377  1.00  0.00    -0.193 A  
HETATM   21  C   UNL     1      -9.655  18.123  68.815  1.00  0.00    -0.304 A  
HETATM   22  C   UNL     1      -9.487  19.316  68.107  1.00  0.00    -0.410 A  
HETATM   23  C   UNL     1      -7.884  18.237  66.665  1.00  0.00    -0.275 A  
HETATM   24  C   UNL     1      -8.616  19.367  67.020  1.00  0.00    -0.318 A  
ENDBRANCH  15  19
ENDBRANCH  12  15
ENDBRANCH   6  11
BRANCH   7  25
HETATM   25  C   UNL     1      -7.567   8.114  67.731  1.00  0.00    -0.098 C  
HETATM   26  O   UNL     1      -8.195   7.102  67.436  1.00  0.00    -0.114 OA 
BRANCH  25  27
HETATM   27  O   UNL     1      -6.618   8.144  68.711  1.00  0.00    -0.051 OA 
BRANCH  27  28
HETATM   28  C   UNL     1      -6.898   7.310  69.839  1.00  0.00    -0.056 C  
BRANCH  28  29
HETATM   29  O   UNL     1      -7.082   8.091  71.015  1.00  0.00    -0.047 OA 
BRANCH  29  30
HETATM   30  C   UNL     1      -8.329   8.083  71.551  1.00  0.00    -0.116 C  
HETATM   31  O   UNL     1      -8.736   8.890  72.376  1.00  0.00    -0.400 OA 
BRANCH  30  32
HETATM   32  C   UNL     1      -9.186   6.939  70.966  1.00  0.00    -0.156 C  
HETATM   33  N   UNL     1     -10.550   7.438  70.727  1.00  0.00    -0.221 N  
HETATM   34  C   UNL     1     -11.512   7.405  71.862  1.00  0.00    -0.266 C  
HETATM   35  S   UNL     1     -10.683   6.284  73.009  1.00  0.00    -0.260 S  
HETATM   36  C   UNL     1     -12.554   6.866  70.879  1.00  0.00    -0.257 C  
HETATM   37  O   UNL     1     -10.091   7.071  74.077  1.00  0.00    -0.328 OA 
HETATM   38  O   UNL     1     -11.542   5.159  73.317  1.00  0.00    -0.297 OA 
HETATM   39  C   UNL     1      -9.332   5.726  71.915  1.00  0.00    -0.151 C  
HETATM   40  C   UNL     1     -11.407   6.833  69.858  1.00  0.00    -0.320 C  
HETATM   41  C   UNL     1      -8.085   5.358  72.731  1.00  0.00    -0.109 C  
HETATM   42  C   UNL     1      -9.755   4.447  71.161  1.00  0.00    -0.256 C  
HETATM   43  O   UNL     1     -11.188   6.298  68.799  1.00  0.00    -0.363 OA 
ENDBRANCH  30  32
ENDBRANCH  29  30
ENDBRANCH  28  29
ENDBRANCH  27  28
ENDBRANCH  25  27
ENDBRANCH   7  25
TORSDOF 9
ENDMDL
MODEL      141
REMARK 921   NORMALIZED FREE ENERGY PREDICTED BY IDOCK:   -5.56 KCAL/MOL
REMARK 922        TOTAL FREE ENERGY PREDICTED BY IDOCK:   -8.99 KCAL/MOL
REMARK 923 INTER-LIGAND FREE ENERGY PREDICTED BY IDOCK:   -8.40 KCAL/MOL
REMARK 924 INTRA-LIGAND FREE ENERGY PREDICTED BY IDOCK:   -0.59 KCAL/MOL
REMARK 927      BINDING AFFINITY PREDICTED BY RF-SCORE:    0.00 PKD
ROOT
HETATM    1  C   UNL     1     -10.041  13.707  64.800  1.00  0.00    -0.268 C  
HETATM    2  C   UNL     1     -10.391  12.210  64.934  1.00  0.00    -0.289 C  
HETATM    3  S   UNL     1     -11.542  12.055  66.381  1.00  0.00    -0.232 SA 
HETATM    4  C   UNL     1     -11.108  11.825  63.634  1.00  0.00    -0.518 C  
HETATM    5  C   UNL     1     -10.193  11.617  67.580  1.00  0.00    -0.195 C  
HETATM    6  C   UNL     1      -9.511  12.777  68.359  1.00  0.00    -0.162 C  
HETATM    7  C   UNL     1      -9.169  11.331  65.314  1.00  0.00    -0.172 C  
HETATM    8  C   UNL     1      -8.406  12.648  67.277  1.00  0.00    -0.189 C  
HETATM    9  O   UNL     1      -7.498  13.332  66.864  1.00  0.00     0.111 OA 
HETATM   10  N   UNL     1      -8.973  11.520  66.757  1.00  0.00    -0.175 N  
ENDROOT
BRANCH   6  11
HETATM   11  N   UNL     1     -10.249  14.066  68.432  1.00  0.00    -0.234 N  
HETATM   12  C   UNL     1      -9.738  15.144  69.124  1.00  0.00    -0.232 C  
HETATM   13  O   UNL     1      -8.590  15.151  69.567  1.00  0.00    -0.215 OA 
HETATM   14  H   UNL     1     -11.149  14.155  67.961  1.00  0.00     0.000 HD 
BRANCH  12  15
HETATM   15  C   UNL     1     -10.720  16.319  69.331  1.00  0.00    -0.318 C  
HETATM   16  H2  UNL     1     -12.331  15.064  69.791  1.00  0.00     0.000 HD 
HETATM   17  N   UNL     1     -12.122  15.848  69.175  1.00  0.00    -0.495 NA 
HETATM   18  H1  UNL     1     -12.770  16.624  69.311  1.00  0.00     0.000 HD 
BRANCH  15  19
HETATM   19  C   UNL     1     -10.421  17.519  68.449  1.00  0.00    -0.372 A  
HETATM   20  C   UNL     1     -10.175  18.797  68.979  1.00  0.00    -0.181 A  
HETATM   21  C   UNL     1     -10.327  17.347  67.058  1.00  0.00    -0.318 A  
HETATM   22  C   UNL     1      -9.929  18.403  66.233  1.00  0.00    -0.378 A  
HETATM   23  C   UNL     1      -9.770  19.848  68.156  1.00  0.00    -0.497 A  
HETATM   24  C   UNL     1      -9.633  19.647  66.785  1.00  0.00    -0.474 A  
ENDBRANCH  15  19
ENDBRANCH  12  15
ENDBRANCH   6  11
BRANCH   7  25
HETATM   25  C   UNL     1      -9.363   9.812  65.103  1.00  0.00    -0.260 C  
HETATM   26  O   UNL     1      -9.435   9.248  64.016  1.00  0.00     0.138 OA 
BRANCH  25  27
HETATM   27  O   UNL     1      -9.460   9.153  66.293  1.00  0.00    -0.196 OA 
BRANCH  27  28
HETATM   28  C   UNL     1      -8.558   8.053  66.443  1.00  0.00    -0.145 C  
BRANCH  28  29
HETATM   29  O   UNL     1      -8.951   7.216  67.526  1.00  0.00    -0.122 OA 
BRANCH  29  30
HETATM   30  C   UNL     1      -7.951   6.569  68.177  1.00  0.00    -0.110 C  
HETATM   31  O   UNL     1      -6.850   6.333  67.698  1.00  0.00    -0.064 OA 
BRANCH  30  32
HETATM   32  C   UNL     1      -8.368   6.189  69.615  1.00  0.00    -0.124 C  
HETATM   33  N   UNL     1      -9.690   6.770  69.899  1.00  0.00    -0.159 N  
HETATM   34  C   UNL     1      -9.741   8.173  70.392  1.00  0.00    -0.178 C  
HETATM   35  S   UNL     1      -8.028   8.446  70.892  1.00  0.00    -0.119 S  
HETATM   36  C   UNL     1     -10.775   7.706  71.419  1.00  0.00    -0.247 C  
HETATM   37  O   UNL     1      -7.378   9.265  69.883  1.00  0.00    -0.059 OA 
HETATM   38  O   UNL     1      -7.968   8.822  72.290  1.00  0.00    -0.350 OA 
HETATM   39  C   UNL     1      -7.414   6.737  70.702  1.00  0.00    -0.083 C  
HETATM   40  C   UNL     1     -10.501   6.293  70.884  1.00  0.00    -0.223 C  
HETATM   41  C   UNL     1      -5.920   6.730  70.351  1.00  0.00    -0.024 C  
HETATM   42  C   UNL     1      -7.554   5.973  72.037  1.00  0.00    -0.097 C  
HETATM   43  O   UNL     1     -10.682   5.160  71.258  1.00  0.00    -0.179 OA 
ENDBRANCH  30  32
ENDBRANCH  29  30
ENDBRANCH  28  29
ENDBRANCH  27  28
ENDBRANCH  25  27
ENDBRANCH   7  25
TORSDOF 9
ENDMDL
MODEL      142
REMARK 921   NORMALIZED FREE ENERGY PREDICTED BY IDOCK:   -5.54 KCAL/MOL
REMARK 922        TOTAL FREE ENERGY PREDICTED BY IDOCK:   -8.97 KCAL/MOL
REMARK 923 INTER-LIGAND FREE ENERGY PREDICTED BY IDOCK:   -8.41 KCAL/MOL
REMARK 924 INTRA-LIGAND FREE ENERGY PREDICTED BY IDOCK:   -0.56 KCAL/MOL
REMARK 927      BINDING AFFINITY PREDICTED BY RF-SCORE:    0.00 PKD
ROOT
HETATM    1  C   UNL     1      -9.874  12.962  64.805  1.00  0.00    -0.045 C  
HETATM    2  C   UNL     1     -10.734  12.615  66.037  1.00  0.00    -0.269 C  
HETATM    3  S   UNL     1     -10.594  14.047  67.209  1.00  0.00    -0.274 SA 
HETATM    4  C   UNL     1     -12.173  12.479  65.525  1.00  0.00    -0.442 C  
HETATM    5  C   UNL     1      -9.242  13.266  68.215  1.00  0.00    -0.197 C  
HETATM    6  C   UNL     1      -7.771  13.569  67.810  1.00  0.00    -0.163 C  
HETATM    7  C   UNL     1     -10.189  11.403  66.839  1.00  0.00    -0.219 C  
HETATM    8  C   UNL     1      -7.849  12.194  67.095  1.00  0.00    -0.160 C  
HETATM    9  O   UNL     1      -7.225  11.616  66.234  1.00  0.00     0.047 OA 
HETATM   10  N   UNL     1      -9.070  11.920  67.638  1.00  0.00    -0.174 N  
ENDROOT
BRANCH   6  11
HETATM   11  N   UNL     1      -7.538  14.768  66.961  1.00  0.00    -0.299 N  
HETATM   12  C   UNL     1      -7.138  15.967  67.512  1.00  0.00    -0.171 C  
HETATM   13  O   UNL     1      -6.796  16.063  68.690  1.00  0.00    -0.122 OA 
HETATM   14  H   UNL     1      -7.676  14.703  65.952  1.00  0.00     0.000 HD 
BRANCH  12  15
HETATM   15  C   UNL     1      -7.186  17.180  66.555  1.00  0.00    -0.273 C  
HETATM   16  H2  UNL     1      -5.105  17.416  66.539  1.00  0.00     0.000 HD 
HETATM   17  N   UNL     1      -5.940  17.983  66.683  1.00  0.00    -0.150 NA 
HETATM   18  H1  UNL     1      -5.972  18.783  66.052  1.00  0.00     0.000 HD 
BRANCH  15  19
HETATM   19  C   UNL     1      -8.432  18.032  66.721  1.00  0.00    -0.274 A  
HETATM   20  C   UNL     1      -9.583  17.558  67.374  1.00  0.00    -0.265 A  
HETATM   21  C   UNL     1      -8.427  19.359  66.261  1.00  0.00    -0.346 A  
HETATM   22  C   UNL     1      -9.510  20.205  66.511  1.00  0.00    -0.497 A  
HETATM   23  C   UNL     1     -10.660  18.407  67.631  1.00  0.00    -0.437 A  
HETATM   24  C   UNL     1     -10.618  19.734  67.213  1.00  0.00    -0.565 A  
ENDBRANCH  15  19
ENDBRANCH  12  15
ENDBRANCH   6  11
BRANCH   7  25
HETATM   25  C   UNL     1     -11.183  10.782  67.846  1.00  0.00    -0.318 C  
HETATM   26  O   UNL     1     -12.275  11.254  68.151  1.00  0.00    -0.622 OA 
BRANCH  25  27
HETATM   27  O   UNL     1     -10.693   9.628  68.383  1.00  0.00    -0.226 OA 
BRANCH  27  28
HETATM   28  C   UNL     1     -10.597   8.535  67.465  1.00  0.00    -0.214 C  
BRANCH  28  29
HETATM   29  O   UNL     1      -9.274   8.008  67.440  1.00  0.00    -0.131 OA 
BRANCH  29  30
HETATM   30  C   UNL     1      -9.024   6.976  68.285  1.00  0.00    -0.128 C  
HETATM   31  O   UNL     1      -9.505   6.863  69.405  1.00  0.00    -0.149 OA 
BRANCH  30  32
HETATM   32  C   UNL     1      -8.074   5.940  67.645  1.00  0.00    -0.102 C  
HETATM   33  N   UNL     1      -7.752   6.370  66.275  1.00  0.00    -0.097 N  
HETATM   34  C   UNL     1      -8.693   5.987  65.187  1.00  0.00    -0.009 C  
HETATM   35  S   UNL     1      -9.667   4.694  65.987  1.00  0.00    -0.222 S  
HETATM   36  C   UNL     1      -7.470   5.617  64.346  1.00  0.00    -0.073 C  
HETATM   37  O   UNL     1     -10.962   5.247  66.345  1.00  0.00    -0.235 OA 
HETATM   38  O   UNL     1      -9.581   3.462  65.230  1.00  0.00    -0.161 OA 
HETATM   39  C   UNL     1      -8.690   4.527  67.520  1.00  0.00    -0.104 C  
HETATM   40  C   UNL     1      -6.651   5.923  65.609  1.00  0.00    -0.044 C  
HETATM   41  C   UNL     1      -9.579   4.076  68.688  1.00  0.00    -0.190 C  
HETATM   42  C   UNL     1      -7.611   3.436  67.344  1.00  0.00    -0.077 C  
HETATM   43  O   UNL     1      -5.543   5.678  66.020  1.00  0.00    -0.013 OA 
ENDBRANCH  30  32
ENDBRANCH  29  30
ENDBRANCH  28  29
ENDBRANCH  27  28
ENDBRANCH  25  27
ENDBRANCH   7  25
TORSDOF 9
ENDMDL
MODEL      143
REMARK 921   NORMALIZED FREE ENERGY PREDICTED BY IDOCK:   -5.54 KCAL/MOL
REMARK 922        TOTAL FREE ENERGY PREDICTED BY IDOCK:   -8.96 KCAL/MOL
REMARK 923 INTER-LIGAND FREE ENERGY PREDICTED BY IDOCK:   -9.34 KCAL/MOL
REMARK 924 INTRA-LIGAND FREE ENERGY PREDICTED BY IDOCK:    0.38 KCAL/MOL
REMARK 927      BINDING AFFINITY PREDICTED BY RF-SCORE:    0.00 PKD
ROOT
HETATM    1  C   UNL     1     -12.911  12.382  65.095  1.00  0.00     0.152 C  
HETATM    2  C   UNL     1     -11.736  13.287  64.670  1.00  0.00    -0.364 C  
HETATM    3  S   UNL     1     -10.229  12.208  64.590  1.00  0.00    -0.273 SA 
HETATM    4  C   UNL     1     -12.093  13.816  63.275  1.00  0.00     0.046 C  
HETATM    5  C   UNL     1      -9.656  12.650  66.300  1.00  0.00    -0.244 C  
HETATM    6  C   UNL     1     -10.128  11.751  67.478  1.00  0.00    -0.192 C  
HETATM    7  C   UNL     1     -11.386  14.367  65.729  1.00  0.00    -0.330 C  
HETATM    8  C   UNL     1     -11.192  12.859  67.694  1.00  0.00    -0.278 C  
HETATM    9  O   UNL     1     -12.250  12.960  68.273  1.00  0.00    -0.206 OA 
HETATM   10  N   UNL     1     -10.610  13.673  66.766  1.00  0.00    -0.272 N  
ENDROOT
BRANCH   6  11
HETATM   11  N   UNL     1     -10.620  10.390  67.132  1.00  0.00    -0.256 N  
HETATM   12  C   UNL     1     -10.266   9.290  67.884  1.00  0.00    -0.214 C  
HETATM   13  O   UNL     1      -9.675   9.395  68.958  1.00  0.00    -0.159 OA 
HETATM   14  H   UNL     1     -11.230  10.268  66.324  1.00  0.00     0.000 HD 
BRANCH  12  15
HETATM   15  C   UNL     1     -10.633   7.923  67.265  1.00  0.00    -0.295 C  
HETATM   16  H2  UNL     1     -12.213   7.594  68.599  1.00  0.00     0.000 HD 
HETATM   17  N   UNL     1     -11.393   7.103  68.247  1.00  0.00    -0.378 NA 
HETATM   18  H1  UNL     1     -11.635   6.201  67.838  1.00  0.00     0.000 HD 
BRANCH  15  19
HETATM   19  C   UNL     1      -9.439   7.174  66.701  1.00  0.00    -0.219 A  
HETATM   20  C   UNL     1      -9.255   5.795  66.900  1.00  0.00    -0.124 A  
HETATM   21  C   UNL     1      -8.507   7.861  65.904  1.00  0.00    -0.147 A  
HETATM   22  C   UNL     1      -7.469   7.175  65.269  1.00  0.00    -0.092 A  
HETATM   23  C   UNL     1      -8.223   5.111  66.257  1.00  0.00    -0.109 A  
HETATM   24  C   UNL     1      -7.339   5.798  65.430  1.00  0.00    -0.076 A  
ENDBRANCH  15  19
ENDBRANCH  12  15
ENDBRANCH   6  11
BRANCH   7  25
HETATM   25  C   UNL     1     -10.487  15.517  65.220  1.00  0.00    -0.411 C  
HETATM   26  O   UNL     1     -10.878  16.508  64.610  1.00  0.00    -0.741 OA 
BRANCH  25  27
HETATM   27  O   UNL     1      -9.175  15.295  65.521  1.00  0.00    -0.140 OA 
BRANCH  27  28
HETATM   28  C   UNL     1      -8.500  16.412  66.106  1.00  0.00    -0.294 C  
BRANCH  28  29
HETATM   29  O   UNL     1      -8.537  16.340  67.528  1.00  0.00    -0.173 OA 
BRANCH  29  30
HETATM   30  C   UNL     1      -7.457  16.841  68.182  1.00  0.00    -0.171 C  
HETATM   31  O   UNL     1      -6.379  16.270  68.279  1.00  0.00    -0.117 OA 
BRANCH  30  32
HETATM   32  C   UNL     1      -7.751  18.239  68.767  1.00  0.00    -0.269 C  
HETATM   33  N   UNL     1      -8.940  18.796  68.101  1.00  0.00    -0.299 N  
HETATM   34  C   UNL     1      -8.743  19.516  66.814  1.00  0.00    -0.320 C  
HETATM   35  S   UNL     1      -6.962  19.812  66.832  1.00  0.00    -0.214 S  
HETATM   36  C   UNL     1      -9.704  20.584  67.339  1.00  0.00    -0.587 C  
HETATM   37  O   UNL     1      -6.329  18.873  65.922  1.00  0.00    -0.188 OA 
HETATM   38  O   UNL     1      -6.690  21.232  66.725  1.00  0.00    -0.377 OA 
HETATM   39  C   UNL     1      -6.611  19.260  68.536  1.00  0.00    -0.257 C  
HETATM   40  C   UNL     1      -9.688  19.791  68.653  1.00  0.00    -0.357 C  
HETATM   41  C   UNL     1      -5.183  18.709  68.648  1.00  0.00    -0.185 C  
HETATM   42  C   UNL     1      -6.698  20.456  69.509  1.00  0.00    -0.058 C  
HETATM   43  O   UNL     1      -9.977  19.994  69.808  1.00  0.00    -0.155 OA 
ENDBRANCH  30  32
ENDBRANCH  29  30
ENDBRANCH  28  29
ENDBRANCH  27  28
ENDBRANCH  25  27
ENDBRANCH   7  25
TORSDOF 9
ENDMDL
MODEL      144
REMARK 921   NORMALIZED FREE ENERGY PREDICTED BY IDOCK:   -5.53 KCAL/MOL
REMARK 922        TOTAL FREE ENERGY PREDICTED BY IDOCK:   -8.95 KCAL/MOL
REMARK 923 INTER-LIGAND FREE ENERGY PREDICTED BY IDOCK:   -8.24 KCAL/MOL
REMARK 924 INTRA-LIGAND FREE ENERGY PREDICTED BY IDOCK:   -0.71 KCAL/MOL
REMARK 927      BINDING AFFINITY PREDICTED BY RF-SCORE:    0.00 PKD
ROOT
HETATM    1  C   UNL     1      -7.638   7.274  70.286  1.00  0.00    -0.089 C  
HETATM    2  C   UNL     1      -8.258   8.671  70.077  1.00  0.00    -0.122 C  
HETATM    3  S   UNL     1      -9.691   8.803  71.247  1.00  0.00    -0.292 SA 
HETATM    4  C   UNL     1      -7.165   9.679  70.451  1.00  0.00    -0.147 C  
HETATM    5  C   UNL     1     -10.950   8.302  69.976  1.00  0.00    -0.197 C  
HETATM    6  C   UNL     1     -11.299   6.792  69.859  1.00  0.00    -0.320 C  
HETATM    7  C   UNL     1      -8.887   8.853  68.670  1.00  0.00    -0.137 C  
HETATM    8  C   UNL     1     -10.304   6.813  68.669  1.00  0.00    -0.186 C  
HETATM    9  O   UNL     1      -9.678   5.996  68.033  1.00  0.00    -0.115 OA 
HETATM   10  N   UNL     1     -10.187   8.171  68.721  1.00  0.00    -0.204 N  
ENDROOT
BRANCH   6  11
HETATM   11  N   UNL     1     -10.957   5.928  71.020  1.00  0.00    -0.280 N  
HETATM   12  C   UNL     1     -11.761   5.883  72.140  1.00  0.00    -0.227 C  
HETATM   13  O   UNL     1     -12.870   6.415  72.169  1.00  0.00    -0.208 OA 
HETATM   14  H   UNL     1     -10.112   5.357  70.988  1.00  0.00     0.000 HD 
BRANCH  12  15
HETATM   15  C   UNL     1     -11.154   5.151  73.358  1.00  0.00    -0.320 C  
HETATM   16  H2  UNL     1     -11.471   6.765  74.653  1.00  0.00     0.000 HD 
HETATM   17  N   UNL     1     -10.716   6.136  74.382  1.00  0.00    -0.348 NA 
HETATM   18  H1  UNL     1     -10.315   5.653  75.185  1.00  0.00     0.000 HD 
BRANCH  15  19
HETATM   19  C   UNL     1     -10.044   4.182  72.989  1.00  0.00    -0.212 A  
HETATM   20  C   UNL     1      -8.690   4.461  73.240  1.00  0.00    -0.100 A  
HETATM   21  C   UNL     1     -10.374   2.936  72.429  1.00  0.00    -0.155 A  
HETATM   22  C   UNL     1      -9.387   1.974  72.197  1.00  0.00    -0.150 A  
HETATM   23  C   UNL     1      -7.707   3.497  73.015  1.00  0.00    -0.065 A  
HETATM   24  C   UNL     1      -8.057   2.249  72.508  1.00  0.00    -0.054 A  
ENDBRANCH  15  19
ENDBRANCH  12  15
ENDBRANCH   6  11
BRANCH   7  25
HETATM   25  C   UNL     1      -9.186  10.316  68.269  1.00  0.00    -0.139 C  
HETATM   26  O   UNL     1      -9.761  11.142  68.971  1.00  0.00    -0.181 OA 
BRANCH  25  27
HETATM   27  O   UNL     1      -8.740  10.589  67.009  1.00  0.00    -0.130 OA 
BRANCH  27  28
HETATM   28  C   UNL     1      -7.794  11.660  66.929  1.00  0.00    -0.156 C  
BRANCH  28  29
HETATM   29  O   UNL     1      -8.441  12.886  66.602  1.00  0.00    -0.078 OA 
BRANCH  29  30
HETATM   30  C   UNL     1      -8.194  13.933  67.430  1.00  0.00    -0.187 C  
HETATM   31  O   UNL     1      -7.716  13.833  68.552  1.00  0.00    -0.131 OA 
BRANCH  30  32
HETATM   32  C   UNL     1      -8.567  15.276  66.766  1.00  0.00    -0.265 C  
HETATM   33  N   UNL     1      -7.837  16.362  67.440  1.00  0.00    -0.145 N  
HETATM   34  C   UNL     1      -8.441  16.948  68.667  1.00  0.00    -0.260 C  
HETATM   35  S   UNL     1     -10.140  16.349  68.558  1.00  0.00    -0.262 S  
HETATM   36  C   UNL     1      -8.075  18.326  68.110  1.00  0.00    -0.297 C  
HETATM   37  O   UNL     1     -10.306  15.257  69.502  1.00  0.00    -0.236 OA 
HETATM   38  O   UNL     1     -11.065  17.465  68.559  1.00  0.00    -0.184 OA 
HETATM   39  C   UNL     1     -10.069  15.630  66.881  1.00  0.00    -0.263 C  
HETATM   40  C   UNL     1      -7.621  17.572  66.852  1.00  0.00    -0.213 C  
HETATM   41  C   UNL     1     -11.047  14.455  66.749  1.00  0.00    -0.323 C  
HETATM   42  C   UNL     1     -10.500  16.681  65.836  1.00  0.00    -0.324 C  
HETATM   43  O   UNL     1      -7.388  17.843  65.700  1.00  0.00    -0.533 OA 
ENDBRANCH  30  32
ENDBRANCH  29  30
ENDBRANCH  28  29
ENDBRANCH  27  28
ENDBRANCH  25  27
ENDBRANCH   7  25
TORSDOF 9
ENDMDL
MODEL      145
REMARK 921   NORMALIZED FREE ENERGY PREDICTED BY IDOCK:   -5.51 KCAL/MOL
REMARK 922        TOTAL FREE ENERGY PREDICTED BY IDOCK:   -8.91 KCAL/MOL
REMARK 923 INTER-LIGAND FREE ENERGY PREDICTED BY IDOCK:   -8.22 KCAL/MOL
REMARK 924 INTRA-LIGAND FREE ENERGY PREDICTED BY IDOCK:   -0.69 KCAL/MOL
REMARK 927      BINDING AFFINITY PREDICTED BY RF-SCORE:    0.00 PKD
ROOT
HETATM    1  C   UNL     1     -11.596  16.244  67.867  1.00  0.00     0.059 C  
HETATM    2  C   UNL     1     -11.221  15.006  68.708  1.00  0.00    -0.277 C  
HETATM    3  S   UNL     1      -9.428  15.182  69.151  1.00  0.00    -0.207 SA 
HETATM    4  C   UNL     1     -12.094  15.070  69.967  1.00  0.00    -0.382 C  
HETATM    5  C   UNL     1      -8.837  14.124  67.743  1.00  0.00    -0.185 C  
HETATM    6  C   UNL     1      -8.484  14.832  66.404  1.00  0.00     0.202 C  
HETATM    7  C   UNL     1     -11.295  13.679  67.906  1.00  0.00    -0.295 C  
HETATM    8  C   UNL     1      -9.903  14.380  65.971  1.00  0.00    -0.319 C  
HETATM    9  O   UNL     1     -10.695  14.681  65.107  1.00  0.00    -0.358 OA 
HETATM   10  N   UNL     1     -10.068  13.630  67.099  1.00  0.00    -0.242 N  
ENDROOT
BRANCH   6  11
HETATM   11  N   UNL     1      -8.221  16.294  66.463  1.00  0.00    -0.284 N  
HETATM   12  C   UNL     1      -7.012  16.786  66.908  1.00  0.00    -0.222 C  
HETATM   13  O   UNL     1      -6.045  16.054  67.116  1.00  0.00    -0.290 OA 
HETATM   14  H   UNL     1      -8.948  16.946  66.168  1.00  0.00     0.000 HD 
BRANCH  12  15
HETATM   15  C   UNL     1      -6.973  18.311  67.158  1.00  0.00    -0.194 C  
HETATM   16  H2  UNL     1      -5.130  18.234  68.148  1.00  0.00     0.000 HD 
HETATM   17  N   UNL     1      -6.062  18.621  68.292  1.00  0.00    -0.204 NA 
HETATM   18  H1  UNL     1      -6.036  19.627  68.457  1.00  0.00     0.000 HD 
BRANCH  15  19
HETATM   19  C   UNL     1      -8.348  18.927  67.346  1.00  0.00    -0.294 A  
HETATM   20  C   UNL     1      -8.982  18.977  68.600  1.00  0.00    -0.402 A  
HETATM   21  C   UNL     1      -8.994  19.523  66.250  1.00  0.00    -0.400 A  
HETATM   22  C   UNL     1     -10.200  20.208  66.418  1.00  0.00    -0.552 A  
HETATM   23  C   UNL     1     -10.182  19.670  68.767  1.00  0.00    -0.460 A  
HETATM   24  C   UNL     1     -10.783  20.297  67.680  1.00  0.00    -0.101 A  
ENDBRANCH  15  19
ENDBRANCH  12  15
ENDBRANCH   6  11
BRANCH   7  25
HETATM   25  C   UNL     1     -11.295  12.393  68.763  1.00  0.00    -0.293 C  
HETATM   26  O   UNL     1     -10.699  12.247  69.826  1.00  0.00     0.250 OA 
BRANCH  25  27
HETATM   27  O   UNL     1     -12.040  11.408  68.184  1.00  0.00    -0.623 OA 
BRANCH  27  28
HETATM   28  C   UNL     1     -11.538  10.939  66.929  1.00  0.00     0.424 C  
BRANCH  28  29
HETATM   29  O   UNL     1     -11.012   9.621  67.053  1.00  0.00    -0.148 OA 
BRANCH  29  30
HETATM   30  C   UNL     1      -9.672   9.527  67.254  1.00  0.00    -0.167 C  
HETATM   31  O   UNL     1      -8.908  10.482  67.292  1.00  0.00    -0.135 OA 
BRANCH  30  32
HETATM   32  C   UNL     1      -9.234   8.061  67.458  1.00  0.00    -0.137 C  
HETATM   33  N   UNL     1     -10.327   7.322  68.113  1.00  0.00    -0.187 N  
HETATM   34  C   UNL     1     -10.406   7.371  69.598  1.00  0.00    -0.223 C  
HETATM   35  S   UNL     1      -8.765   7.988  70.030  1.00  0.00    -0.136 S  
HETATM   36  C   UNL     1     -10.676   5.865  69.568  1.00  0.00    -0.414 C  
HETATM   37  O   UNL     1      -8.882   9.390  70.395  1.00  0.00    -0.217 OA 
HETATM   38  O   UNL     1      -8.097   7.054  70.914  1.00  0.00    -0.106 OA 
HETATM   39  C   UNL     1      -7.998   7.904  68.376  1.00  0.00    -0.122 C  
HETATM   40  C   UNL     1     -10.427   5.965  68.056  1.00  0.00    -0.234 C  
HETATM   41  C   UNL     1      -6.910   8.976  68.224  1.00  0.00    -0.065 C  
HETATM   42  C   UNL     1      -7.301   6.540  68.184  1.00  0.00    -0.090 C  
HETATM   43  O   UNL     1     -10.168   5.206  67.155  1.00  0.00    -0.196 OA 
ENDBRANCH  30  32
ENDBRANCH  29  30
ENDBRANCH  28  29
ENDBRANCH  27  28
ENDBRANCH  25  27
ENDBRANCH   7  25
TORSDOF 9
ENDMDL
MODEL      146
REMARK 921   NORMALIZED FREE ENERGY PREDICTED BY IDOCK:   -5.50 KCAL/MOL
REMARK 922        TOTAL FREE ENERGY PREDICTED BY IDOCK:   -8.90 KCAL/MOL
REMARK 923 INTER-LIGAND FREE ENERGY PREDICTED BY IDOCK:   -7.92 KCAL/MOL
REMARK 924 INTRA-LIGAND FREE ENERGY PREDICTED BY IDOCK:   -0.98 KCAL/MOL
REMARK 927      BINDING AFFINITY PREDICTED BY RF-SCORE:    0.00 PKD
ROOT
HETATM    1  C   UNL     1     -10.661   5.868  67.927  1.00  0.00    -0.336 C  
HETATM    2  C   UNL     1     -10.024   7.273  67.891  1.00  0.00    -0.158 C  
HETATM    3  S   UNL     1      -8.502   7.199  68.949  1.00  0.00    -0.125 SA 
HETATM    4  C   UNL     1      -9.648   7.529  66.427  1.00  0.00    -0.194 C  
HETATM    5  C   UNL     1      -9.354   7.871  70.457  1.00  0.00    -0.162 C  
HETATM    6  C   UNL     1      -9.985   6.851  71.448  1.00  0.00    -0.181 C  
HETATM    7  C   UNL     1     -10.909   8.360  68.557  1.00  0.00     0.081 C  
HETATM    8  C   UNL     1     -11.308   7.192  70.713  1.00  0.00    -0.289 C  
HETATM    9  O   UNL     1     -12.404   6.692  70.601  1.00  0.00    -0.340 OA 
HETATM   10  N   UNL     1     -10.719   8.199  70.005  1.00  0.00    -0.243 N  
ENDROOT
BRANCH   6  11
HETATM   11  N   UNL     1      -9.502   5.447  71.369  1.00  0.00    -0.147 N  
HETATM   12  C   UNL     1      -8.414   5.022  72.101  1.00  0.00    -0.125 C  
HETATM   13  O   UNL     1      -7.898   5.724  72.971  1.00  0.00    -0.102 OA 
HETATM   14  H   UNL     1      -9.985   4.784  70.761  1.00  0.00     0.000 HD 
BRANCH  12  15
HETATM   15  C   UNL     1      -7.872   3.624  71.727  1.00  0.00    -0.062 C  
HETATM   16  H2  UNL     1      -6.389   3.658  73.205  1.00  0.00     0.000 HD 
HETATM   17  N   UNL     1      -6.472   3.472  72.206  1.00  0.00    -0.014 NA 
HETATM   18  H1  UNL     1      -6.115   2.550  71.959  1.00  0.00     0.000 HD 
BRANCH  15  19
HETATM   19  C   UNL     1      -8.007   3.300  70.250  1.00  0.00    -0.053 A  
HETATM   20  C   UNL     1      -9.057   2.514  69.747  1.00  0.00    -0.183 A  
HETATM   21  C   UNL     1      -7.088   3.845  69.337  1.00  0.00    -0.046 A  
HETATM   22  C   UNL     1      -7.258   3.669  67.961  1.00  0.00    -0.051 A  
HETATM   23  C   UNL     1      -9.231   2.347  68.372  1.00  0.00    -0.253 A  
HETATM   24  C   UNL     1      -8.341   2.936  67.480  1.00  0.00    -0.093 A  
ENDBRANCH  15  19
ENDBRANCH  12  15
ENDBRANCH   6  11
BRANCH   7  25
HETATM   25  C   UNL     1     -10.512   9.818  68.234  1.00  0.00    -0.216 C  
HETATM   26  O   UNL     1      -9.406  10.186  67.849  1.00  0.00    -0.140 OA 
BRANCH  25  27
HETATM   27  O   UNL     1     -11.553  10.676  68.441  1.00  0.00    -0.349 OA 
BRANCH  27  28
HETATM   28  C   UNL     1     -11.416  11.515  69.591  1.00  0.00    -0.301 C  
BRANCH  28  29
HETATM   29  O   UNL     1     -12.052  12.772  69.382  1.00  0.00    -0.273 OA 
BRANCH  29  30
HETATM   30  C   UNL     1     -11.231  13.829  69.155  1.00  0.00    -0.262 C  
HETATM   31  O   UNL     1     -11.219  14.855  69.822  1.00  0.00    -0.259 OA 
BRANCH  30  32
HETATM   32  C   UNL     1     -10.287  13.563  67.962  1.00  0.00    -0.241 C  
HETATM   33  N   UNL     1      -8.994  14.218  68.220  1.00  0.00    -0.182 N  
HETATM   34  C   UNL     1      -8.854  15.651  67.845  1.00  0.00    -0.171 C  
HETATM   35  S   UNL     1     -10.273  15.882  66.754  1.00  0.00    -0.288 S  
HETATM   36  C   UNL     1      -7.485  15.297  67.260  1.00  0.00    -0.236 C  
HETATM   37  O   UNL     1     -11.302  16.604  67.482  1.00  0.00    -0.035 OA 
HETATM   38  O   UNL     1      -9.834  16.347  65.453  1.00  0.00    -0.515 OA 
HETATM   39  C   UNL     1     -10.802  14.140  66.622  1.00  0.00    -0.299 C  
HETATM   40  C   UNL     1      -7.846  13.842  67.590  1.00  0.00    -0.178 C  
HETATM   41  C   UNL     1     -12.316  14.046  66.389  1.00  0.00    -0.468 C  
HETATM   42  C   UNL     1     -10.128  13.472  65.404  1.00  0.00    -0.279 C  
HETATM   43  O   UNL     1      -7.467  12.745  67.260  1.00  0.00    -0.149 OA 
ENDBRANCH  30  32
ENDBRANCH  29  30
ENDBRANCH  28  29
ENDBRANCH  27  28
ENDBRANCH  25  27
ENDBRANCH   7  25
TORSDOF 9
ENDMDL
MODEL      147
REMARK 921   NORMALIZED FREE ENERGY PREDICTED BY IDOCK:   -5.49 KCAL/MOL
REMARK 922        TOTAL FREE ENERGY PREDICTED BY IDOCK:   -8.88 KCAL/MOL
REMARK 923 INTER-LIGAND FREE ENERGY PREDICTED BY IDOCK:   -7.55 KCAL/MOL
REMARK 924 INTRA-LIGAND FREE ENERGY PREDICTED BY IDOCK:   -1.33 KCAL/MOL
REMARK 927      BINDING AFFINITY PREDICTED BY RF-SCORE:    0.00 PKD
ROOT
HETATM    1  C   UNL     1     -10.742   9.971  65.789  1.00  0.00     0.204 C  
HETATM    2  C   UNL     1      -9.815  11.203  65.846  1.00  0.00    -0.232 C  
HETATM    3  S   UNL     1      -8.375  10.742  66.922  1.00  0.00    -0.137 SA 
HETATM    4  C   UNL     1      -9.351  11.451  64.406  1.00  0.00    -0.085 C  
HETATM    5  C   UNL     1      -9.103  11.500  68.454  1.00  0.00    -0.185 C  
HETATM    6  C   UNL     1      -9.967  10.589  69.372  1.00  0.00    -0.196 C  
HETATM    7  C   UNL     1     -10.461  12.419  66.563  1.00  0.00    -0.230 C  
HETATM    8  C   UNL     1     -11.165  11.250  68.639  1.00  0.00    -0.250 C  
HETATM    9  O   UNL     1     -12.339  11.007  68.480  1.00  0.00    -0.536 OA 
HETATM   10  N   UNL     1     -10.352  12.141  68.001  1.00  0.00    -0.199 N  
ENDROOT
BRANCH   6  11
HETATM   11  N   UNL     1      -9.798   9.119  69.217  1.00  0.00    -0.170 N  
HETATM   12  C   UNL     1      -8.854   8.428  69.946  1.00  0.00    -0.137 C  
HETATM   13  O   UNL     1      -8.229   8.950  70.868  1.00  0.00    -0.142 OA 
HETATM   14  H   UNL     1     -10.392   8.614  68.559  1.00  0.00     0.000 HD 
BRANCH  12  15
HETATM   15  C   UNL     1      -8.616   6.968  69.498  1.00  0.00    -0.134 C  
HETATM   16  H2  UNL     1      -7.548   6.472  71.229  1.00  0.00     0.000 HD 
HETATM   17  N   UNL     1      -7.447   6.395  70.218  1.00  0.00    -0.092 NA 
HETATM   18  H1  UNL     1      -7.290   5.432  69.922  1.00  0.00     0.000 HD 
BRANCH  15  19
HETATM   19  C   UNL     1      -8.491   6.811  67.993  1.00  0.00    -0.120 A  
HETATM   20  C   UNL     1      -9.552   6.349  67.195  1.00  0.00    -0.157 A  
HETATM   21  C   UNL     1      -7.297   7.191  67.356  1.00  0.00    -0.092 A  
HETATM   22  C   UNL     1      -7.196   7.177  65.963  1.00  0.00    -0.074 A  
HETATM   23  C   UNL     1      -9.452   6.344  65.804  1.00  0.00     0.163 A  
HETATM   24  C   UNL     1      -8.280   6.772  65.187  1.00  0.00    -0.114 A  
ENDBRANCH  15  19
ENDBRANCH  12  15
ENDBRANCH   6  11
BRANCH   7  25
HETATM   25  C   UNL     1      -9.749  13.771  66.332  1.00  0.00    -0.294 C  
HETATM   26  O   UNL     1      -8.572  14.007  66.586  1.00  0.00    -0.119 OA 
BRANCH  25  27
HETATM   27  O   UNL     1     -10.602  14.702  65.814  1.00  0.00    -0.292 OA 
BRANCH  27  28
HETATM   28  C   UNL     1     -11.174  15.590  66.778  1.00  0.00    -0.139 C  
BRANCH  28  29
HETATM   29  O   UNL     1     -10.565  16.876  66.710  1.00  0.00    -0.290 OA 
BRANCH  29  30
HETATM   30  C   UNL     1      -9.695  17.180  67.707  1.00  0.00    -0.271 C  
HETATM   31  O   UNL     1      -9.973  17.169  68.899  1.00  0.00    -0.286 OA 
BRANCH  30  32
HETATM   32  C   UNL     1      -8.294  17.516  67.150  1.00  0.00    -0.216 C  
HETATM   33  N   UNL     1      -7.281  17.154  68.154  1.00  0.00    -0.187 N  
HETATM   34  C   UNL     1      -6.960  18.154  69.209  1.00  0.00    -0.152 C  
HETATM   35  S   UNL     1      -7.669  19.660  68.511  1.00  0.00    -0.305 S  
HETATM   36  C   UNL     1      -5.483  17.823  68.981  1.00  0.00    -0.183 C  
HETATM   37  O   UNL     1      -8.914  19.947  69.203  1.00  0.00    -0.117 OA 
HETATM   38  O   UNL     1      -6.649  20.681  68.384  1.00  0.00    -0.288 OA 
HETATM   39  C   UNL     1      -8.089  19.020  66.853  1.00  0.00    -0.265 C  
HETATM   40  C   UNL     1      -5.976  16.936  67.830  1.00  0.00    -0.132 C  
HETATM   41  C   UNL     1      -9.301  19.762  66.273  1.00  0.00    -0.472 C  
HETATM   42  C   UNL     1      -6.917  19.265  65.878  1.00  0.00    -0.300 C  
HETATM   43  O   UNL     1      -5.497  16.419  66.849  1.00  0.00    -0.329 OA 
ENDBRANCH  30  32
ENDBRANCH  29  30
ENDBRANCH  28  29
ENDBRANCH  27  28
ENDBRANCH  25  27
ENDBRANCH   7  25
TORSDOF 9
ENDMDL
MODEL      148
REMARK 921   NORMALIZED FREE ENERGY PREDICTED BY IDOCK:   -5.48 KCAL/MOL
REMARK 922        TOTAL FREE ENERGY PREDICTED BY IDOCK:   -8.87 KCAL/MOL
REMARK 923 INTER-LIGAND FREE ENERGY PREDICTED BY IDOCK:   -8.16 KCAL/MOL
REMARK 924 INTRA-LIGAND FREE ENERGY PREDICTED BY IDOCK:   -0.71 KCAL/MOL
REMARK 927      BINDING AFFINITY PREDICTED BY RF-SCORE:    0.00 PKD
ROOT
HETATM    1  C   UNL     1     -10.343   8.325  72.425  1.00  0.00    -0.402 C  
HETATM    2  C   UNL     1     -11.407   8.815  71.421  1.00  0.00    -0.294 C  
HETATM    3  S   UNL     1     -11.550   7.509  70.111  1.00  0.00     0.065 SA 
HETATM    4  C   UNL     1     -12.716   8.926  72.212  1.00  0.00    -0.464 C  
HETATM    5  C   UNL     1     -10.382   8.360  68.944  1.00  0.00    -0.215 C  
HETATM    6  C   UNL     1      -8.875   7.987  69.027  1.00  0.00    -0.145 C  
HETATM    7  C   UNL     1     -10.977  10.092  70.651  1.00  0.00    -0.322 C  
HETATM    8  C   UNL     1      -8.760   9.283  69.874  1.00  0.00    -0.180 C  
HETATM    9  O   UNL     1      -7.963   9.757  70.650  1.00  0.00    -0.272 OA 
HETATM   10  N   UNL     1     -10.051   9.636  69.605  1.00  0.00    -0.209 N  
ENDROOT
BRANCH   6  11
HETATM   11  N   UNL     1      -8.533   6.703  69.695  1.00  0.00    -0.131 N  
HETATM   12  C   UNL     1      -7.230   6.257  69.761  1.00  0.00    -0.074 C  
HETATM   13  O   UNL     1      -6.279   6.963  69.427  1.00  0.00    -0.032 OA 
HETATM   14  H   UNL     1      -9.276   6.142  70.112  1.00  0.00     0.000 HD 
BRANCH  12  15
HETATM   15  C   UNL     1      -7.057   4.800  70.248  1.00  0.00    -0.049 C  
HETATM   16  H2  UNL     1      -5.823   5.343  71.850  1.00  0.00     0.000 HD 
HETATM   17  N   UNL     1      -5.827   4.680  71.076  1.00  0.00    -0.016 NA 
HETATM   18  H1  UNL     1      -5.713   3.719  71.397  1.00  0.00     0.000 HD 
BRANCH  15  19
HETATM   19  C   UNL     1      -7.089   3.780  69.124  1.00  0.00    -0.046 A  
HETATM   20  C   UNL     1      -8.286   3.385  68.502  1.00  0.00    -0.085 A  
HETATM   21  C   UNL     1      -5.881   3.247  68.640  1.00  0.00    -0.023 A  
HETATM   22  C   UNL     1      -5.868   2.404  67.526  1.00  0.00    -0.019 A  
HETATM   23  C   UNL     1      -8.270   2.550  67.384  1.00  0.00    -0.080 A  
HETATM   24  C   UNL     1      -7.061   2.072  66.888  1.00  0.00    -0.051 A  
ENDBRANCH  15  19
ENDBRANCH  12  15
ENDBRANCH   6  11
BRANCH   7  25
HETATM   25  C   UNL     1     -12.118  10.833  69.919  1.00  0.00    -0.337 C  
HETATM   26  O   UNL     1     -12.326  10.802  68.710  1.00  0.00    -0.435 OA 
BRANCH  25  27
HETATM   27  O   UNL     1     -12.882  11.556  70.788  1.00  0.00    -0.245 OA 
BRANCH  27  28
HETATM   28  C   UNL     1     -12.457  12.909  70.974  1.00  0.00    -0.283 C  
BRANCH  28  29
HETATM   29  O   UNL     1     -12.286  13.564  69.720  1.00  0.00    -0.313 OA 
BRANCH  29  30
HETATM   30  C   UNL     1     -11.152  14.297  69.578  1.00  0.00    -0.204 C  
HETATM   31  O   UNL     1     -10.855  15.259  70.273  1.00  0.00    -0.280 OA 
BRANCH  30  32
HETATM   32  C   UNL     1     -10.264  13.745  68.441  1.00  0.00    -0.248 C  
HETATM   33  N   UNL     1      -8.912  14.314  68.571  1.00  0.00    -0.191 N  
HETATM   34  C   UNL     1      -8.655  15.643  67.954  1.00  0.00    -0.162 C  
HETATM   35  S   UNL     1     -10.074  15.812  66.850  1.00  0.00    -0.273 S  
HETATM   36  C   UNL     1      -7.337  15.071  67.428  1.00  0.00    -0.231 C  
HETATM   37  O   UNL     1     -11.017  16.739  67.450  1.00  0.00    -0.232 OA 
HETATM   38  O   UNL     1      -9.625  16.004  65.485  1.00  0.00    -0.418 OA 
HETATM   39  C   UNL     1     -10.758  14.128  67.026  1.00  0.00    -0.285 C  
HETATM   40  C   UNL     1      -7.818  13.732  68.007  1.00  0.00    -0.152 C  
HETATM   41  C   UNL     1     -12.279  14.134  66.825  1.00  0.00    -0.429 C  
HETATM   42  C   UNL     1     -10.174  13.203  65.937  1.00  0.00    -0.294 C  
HETATM   43  O   UNL     1      -7.544  12.565  67.869  1.00  0.00    -0.109 OA 
ENDBRANCH  30  32
ENDBRANCH  29  30
ENDBRANCH  28  29
ENDBRANCH  27  28
ENDBRANCH  25  27
ENDBRANCH   7  25
TORSDOF 9
ENDMDL
MODEL      149
REMARK 921   NORMALIZED FREE ENERGY PREDICTED BY IDOCK:   -5.47 KCAL/MOL
REMARK 922        TOTAL FREE ENERGY PREDICTED BY IDOCK:   -8.85 KCAL/MOL
REMARK 923 INTER-LIGAND FREE ENERGY PREDICTED BY IDOCK:   -7.96 KCAL/MOL
REMARK 924 INTRA-LIGAND FREE ENERGY PREDICTED BY IDOCK:   -0.89 KCAL/MOL
REMARK 927      BINDING AFFINITY PREDICTED BY RF-SCORE:    0.00 PKD
ROOT
HETATM    1  C   UNL     1      -9.548  10.582  69.265  1.00  0.00    -0.199 C  
HETATM    2  C   UNL     1     -10.614  10.996  68.229  1.00  0.00    -0.187 C  
HETATM    3  S   UNL     1     -10.650   9.667  66.935  1.00  0.00    -0.121 SA 
HETATM    4  C   UNL     1     -11.946  11.043  68.988  1.00  0.00    -0.364 C  
HETATM    5  C   UNL     1      -9.505  10.569  65.784  1.00  0.00    -0.201 C  
HETATM    6  C   UNL     1      -7.981  10.284  65.907  1.00  0.00    -0.137 C  
HETATM    7  C   UNL     1     -10.238  12.285  67.451  1.00  0.00    -0.203 C  
HETATM    8  C   UNL     1      -7.961  11.595  66.737  1.00  0.00    -0.140 C  
HETATM    9  O   UNL     1      -7.211  12.123  67.525  1.00  0.00    -0.111 OA 
HETATM   10  N   UNL     1      -9.263  11.870  66.434  1.00  0.00    -0.214 N  
ENDROOT
BRANCH   6  11
HETATM   11  N   UNL     1      -7.583   9.030  66.601  1.00  0.00    -0.089 N  
HETATM   12  C   UNL     1      -6.638   8.184  66.061  1.00  0.00    -0.046 C  
HETATM   13  O   UNL     1      -5.964   8.497  65.081  1.00  0.00    -0.048 OA 
HETATM   14  H   UNL     1      -8.017   8.791  67.493  1.00  0.00     0.000 HD 
BRANCH  12  15
HETATM   15  C   UNL     1      -6.515   6.807  66.753  1.00  0.00    -0.043 C  
HETATM   16  H2  UNL     1      -5.003   6.147  65.463  1.00  0.00     0.000 HD 
HETATM   17  N   UNL     1      -5.898   5.821  65.825  1.00  0.00    -0.020 NA 
HETATM   18  H1  UNL     1      -5.817   4.913  66.282  1.00  0.00     0.000 HD 
BRANCH  15  19
HETATM   19  C   UNL     1      -7.825   6.302  67.332  1.00  0.00    -0.101 A  
HETATM   20  C   UNL     1      -8.721   5.517  66.587  1.00  0.00    -0.116 A  
HETATM   21  C   UNL     1      -8.137   6.575  68.674  1.00  0.00    -0.118 A  
HETATM   22  C   UNL     1      -9.272   6.019  69.270  1.00  0.00    -0.133 A  
HETATM   23  C   UNL     1      -9.849   4.955  67.186  1.00  0.00    -0.215 A  
HETATM   24  C   UNL     1     -10.117   5.194  68.531  1.00  0.00    -0.214 A  
ENDBRANCH  15  19
ENDBRANCH  12  15
ENDBRANCH   6  11
BRANCH   7  25
HETATM   25  C   UNL     1     -11.402  12.950  66.682  1.00  0.00    -0.317 C  
HETATM   26  O   UNL     1     -12.276  12.354  66.060  1.00  0.00    -0.636 OA 
BRANCH  25  27
HETATM   27  O   UNL     1     -11.340  14.311  66.762  1.00  0.00    -0.324 OA 
BRANCH  27  28
HETATM   28  C   UNL     1     -11.318  14.831  68.095  1.00  0.00    -0.307 C  
BRANCH  28  29
HETATM   29  O   UNL     1     -11.441  16.250  68.089  1.00  0.00    -0.309 OA 
BRANCH  29  30
HETATM   30  C   UNL     1     -10.486  16.937  68.767  1.00  0.00    -0.343 C  
HETATM   31  O   UNL     1     -10.659  17.481  69.849  1.00  0.00     0.107 OA 
BRANCH  30  32
HETATM   32  C   UNL     1      -9.139  16.922  68.012  1.00  0.00    -0.234 C  
HETATM   33  N   UNL     1      -8.061  17.274  68.951  1.00  0.00    -0.232 N  
HETATM   34  C   UNL     1      -7.775  18.717  69.172  1.00  0.00    -0.109 C  
HETATM   35  S   UNL     1      -8.625  19.475  67.771  1.00  0.00    -0.322 S  
HETATM   36  C   UNL     1      -6.288  18.371  69.072  1.00  0.00    -0.248 C  
HETATM   37  O   UNL     1      -9.859  20.075  68.249  1.00  0.00    -0.381 OA 
HETATM   38  O   UNL     1      -7.692  20.253  66.980  1.00  0.00    -0.295 OA 
HETATM   39  C   UNL     1      -9.061  17.954  66.861  1.00  0.00    -0.260 C  
HETATM   40  C   UNL     1      -6.757  16.953  68.720  1.00  0.00    -0.190 C  
HETATM   41  C   UNL     1     -10.349  18.153  66.050  1.00  0.00    -0.360 C  
HETATM   42  C   UNL     1      -7.951  17.608  65.845  1.00  0.00    -0.078 C  
HETATM   43  O   UNL     1      -6.280  15.970  68.207  1.00  0.00    -0.104 OA 
ENDBRANCH  30  32
ENDBRANCH  29  30
ENDBRANCH  28  29
ENDBRANCH  27  28
ENDBRANCH  25  27
ENDBRANCH   7  25
TORSDOF 9
ENDMDL
MODEL      150
REMARK 921   NORMALIZED FREE ENERGY PREDICTED BY IDOCK:   -5.45 KCAL/MOL
REMARK 922        TOTAL FREE ENERGY PREDICTED BY IDOCK:   -8.82 KCAL/MOL
REMARK 923 INTER-LIGAND FREE ENERGY PREDICTED BY IDOCK:   -7.58 KCAL/MOL
REMARK 924 INTRA-LIGAND FREE ENERGY PREDICTED BY IDOCK:   -1.24 KCAL/MOL
REMARK 927      BINDING AFFINITY PREDICTED BY RF-SCORE:    0.00 PKD
ROOT
HETATM    1  C   UNL     1     -11.117   7.085  69.611  1.00  0.00    -0.254 C  
HETATM    2  C   UNL     1     -10.190   6.859  70.823  1.00  0.00    -0.195 C  
HETATM    3  S   UNL     1     -10.234   8.417  71.831  1.00  0.00    -0.298 SA 
HETATM    4  C   UNL     1     -10.799   5.693  71.611  1.00  0.00    -0.301 C  
HETATM    5  C   UNL     1      -8.692   9.115  71.067  1.00  0.00    -0.189 C  
HETATM    6  C   UNL     1      -8.851  10.025  69.816  1.00  0.00    -0.183 C  
HETATM    7  C   UNL     1      -8.698   6.695  70.427  1.00  0.00    -0.151 C  
HETATM    8  C   UNL     1      -8.497   8.737  69.026  1.00  0.00    -0.130 C  
HETATM    9  O   UNL     1      -8.607   8.348  67.886  1.00  0.00    -0.130 OA 
HETATM   10  N   UNL     1      -8.200   8.054  70.169  1.00  0.00    -0.118 N  
ENDROOT
BRANCH   6  11
HETATM   11  N   UNL     1     -10.193  10.623  69.582  1.00  0.00    -0.407 N  
HETATM   12  C   UNL     1     -10.404  11.531  68.567  1.00  0.00    -0.210 C  
HETATM   13  O   UNL     1      -9.551  11.765  67.711  1.00  0.00    -0.175 OA 
HETATM   14  H   UNL     1     -10.972  10.355  70.184  1.00  0.00     0.000 HD 
BRANCH  12  15
HETATM   15  C   UNL     1     -11.768  12.256  68.605  1.00  0.00    -0.328 C  
HETATM   16  H2  UNL     1     -12.217  11.796  66.612  1.00  0.00     0.000 HD 
HETATM   17  N   UNL     1     -12.199  12.610  67.226  1.00  0.00    -0.386 NA 
HETATM   18  H1  UNL     1     -13.099  13.089  67.251  1.00  0.00     0.000 HD 
BRANCH  15  19
HETATM   19  C   UNL     1     -11.788  13.458  69.533  1.00  0.00    -0.391 A  
HETATM   20  C   UNL     1     -12.536  13.475  70.723  1.00  0.00    -0.428 A  
HETATM   21  C   UNL     1     -10.990  14.575  69.233  1.00  0.00    -0.282 A  
HETATM   22  C   UNL     1     -10.890  15.642  70.130  1.00  0.00    -0.356 A  
HETATM   23  C   UNL     1     -12.428  14.537  71.621  1.00  0.00    -0.422 A  
HETATM   24  C   UNL     1     -11.594  15.614  71.332  1.00  0.00    -0.499 A  
ENDBRANCH  15  19
ENDBRANCH  12  15
ENDBRANCH   6  11
BRANCH   7  25
HETATM   25  C   UNL     1      -7.787   6.108  71.528  1.00  0.00    -0.102 C  
HETATM   26  O   UNL     1      -7.496   6.664  72.583  1.00  0.00    -0.091 OA 
BRANCH  25  27
HETATM   27  O   UNL     1      -7.320   4.873  71.183  1.00  0.00    -0.064 OA 
BRANCH  27  28
HETATM   28  C   UNL     1      -6.396   4.868  70.091  1.00  0.00    -0.026 C  
BRANCH  28  29
HETATM   29  O   UNL     1      -6.856   4.025  69.040  1.00  0.00    -0.044 OA 
BRANCH  29  30
HETATM   30  C   UNL     1      -6.927   4.588  67.807  1.00  0.00    -0.060 C  
HETATM   31  O   UNL     1      -6.754   5.778  67.576  1.00  0.00    -0.055 OA 
BRANCH  30  32
HETATM   32  C   UNL     1      -7.227   3.532  66.720  1.00  0.00    -0.067 C  
HETATM   33  N   UNL     1      -6.876   4.088  65.403  1.00  0.00    -0.055 N  
HETATM   34  C   UNL     1      -7.897   4.912  64.702  1.00  0.00    -0.090 C  
HETATM   35  S   UNL     1      -9.396   4.490  65.617  1.00  0.00    -0.175 S  
HETATM   36  C   UNL     1      -7.538   4.151  63.423  1.00  0.00    -0.062 C  
HETATM   37  O   UNL     1      -9.720   5.594  66.504  1.00  0.00    -0.148 OA 
HETATM   38  O   UNL     1     -10.397   3.955  64.716  1.00  0.00    -0.213 OA 
HETATM   39  C   UNL     1      -8.720   3.135  66.637  1.00  0.00    -0.128 C  
HETATM   40  C   UNL     1      -6.629   3.299  64.320  1.00  0.00    -0.035 C  
HETATM   41  C   UNL     1      -9.464   3.036  67.975  1.00  0.00    -0.217 C  
HETATM   42  C   UNL     1      -8.921   1.782  65.921  1.00  0.00    -0.098 C  
HETATM   43  O   UNL     1      -6.080   2.227  64.251  1.00  0.00    -0.013 OA 
ENDBRANCH  30  32
ENDBRANCH  29  30
ENDBRANCH  28  29
ENDBRANCH  27  28
ENDBRANCH  25  27
ENDBRANCH   7  25
TORSDOF 9
ENDMDL
MODEL      151
REMARK 921   NORMALIZED FREE ENERGY PREDICTED BY IDOCK:   -5.44 KCAL/MOL
REMARK 922        TOTAL FREE ENERGY PREDICTED BY IDOCK:   -8.81 KCAL/MOL
REMARK 923 INTER-LIGAND FREE ENERGY PREDICTED BY IDOCK:   -7.34 KCAL/MOL
REMARK 924 INTRA-LIGAND FREE ENERGY PREDICTED BY IDOCK:   -1.47 KCAL/MOL
REMARK 927      BINDING AFFINITY PREDICTED BY RF-SCORE:    0.00 PKD
ROOT
HETATM    1  C   UNL     1      -9.359  13.984  66.772  1.00  0.00    -0.289 C  
HETATM    2  C   UNL     1     -10.213  13.115  65.825  1.00  0.00    -0.289 C  
HETATM    3  S   UNL     1     -11.851  12.863  66.660  1.00  0.00    -0.366 SA 
HETATM    4  C   UNL     1     -10.386  13.935  64.541  1.00  0.00    -0.260 C  
HETATM    5  C   UNL     1     -11.382  11.217  67.381  1.00  0.00    -0.255 C  
HETATM    6  C   UNL     1     -10.755  11.201  68.804  1.00  0.00    -0.199 C  
HETATM    7  C   UNL     1      -9.648  11.682  65.637  1.00  0.00    -0.229 C  
HETATM    8  C   UNL     1      -9.408  11.098  68.040  1.00  0.00    -0.166 C  
HETATM    9  O   UNL     1      -8.239  11.281  68.292  1.00  0.00    -0.128 OA 
HETATM   10  N   UNL     1     -10.039  10.936  66.841  1.00  0.00    -0.205 N  
ENDROOT
BRANCH   6  11
HETATM   11  N   UNL     1     -10.970  12.405  69.650  1.00  0.00    -0.455 N  
HETATM   12  C   UNL     1     -12.063  12.507  70.484  1.00  0.00    -0.274 C  
HETATM   13  O   UNL     1     -12.813  11.555  70.697  1.00  0.00    -0.193 OA 
HETATM   14  H   UNL     1     -10.297  13.171  69.612  1.00  0.00     0.000 HD 
BRANCH  12  15
HETATM   15  C   UNL     1     -12.293  13.905  71.100  1.00  0.00    -0.359 C  
HETATM   16  H2  UNL     1     -14.111  13.360  71.985  1.00  0.00     0.000 HD 
HETATM   17  N   UNL     1     -13.738  14.103  71.395  1.00  0.00    -0.315 NA 
HETATM   18  H1  UNL     1     -13.890  15.026  71.802  1.00  0.00     0.000 HD 
BRANCH  15  19
HETATM   19  C   UNL     1     -11.724  15.036  70.262  1.00  0.00    -0.338 A  
HETATM   20  C   UNL     1     -10.498  15.652  70.567  1.00  0.00    -0.125 A  
HETATM   21  C   UNL     1     -12.408  15.452  69.107  1.00  0.00    -0.087 A  
HETATM   22  C   UNL     1     -11.847  16.401  68.249  1.00  0.00     0.284 A  
HETATM   23  C   UNL     1      -9.935  16.593  69.704  1.00  0.00    -0.005 A  
HETATM   24  C   UNL     1     -10.602  16.956  68.538  1.00  0.00    -0.367 A  
ENDBRANCH  15  19
ENDBRANCH  12  15
ENDBRANCH   6  11
BRANCH   7  25
HETATM   25  C   UNL     1     -10.232  10.899  64.439  1.00  0.00    -0.358 C  
HETATM   26  O   UNL     1     -11.223  11.223  63.792  1.00  0.00    -0.359 OA 
BRANCH  25  27
HETATM   27  O   UNL     1      -9.510   9.770  64.183  1.00  0.00    -0.253 OA 
BRANCH  27  28
HETATM   28  C   UNL     1      -8.095   9.918  64.333  1.00  0.00    -0.157 C  
BRANCH  28  29
HETATM   29  O   UNL     1      -7.553   8.856  65.112  1.00  0.00    -0.094 OA 
BRANCH  29  30
HETATM   30  C   UNL     1      -7.831   7.597  64.685  1.00  0.00    -0.126 C  
HETATM   31  O   UNL     1      -7.474   7.134  63.610  1.00  0.00    -0.085 OA 
BRANCH  30  32
HETATM   32  C   UNL     1      -8.633   6.808  65.742  1.00  0.00    -0.137 C  
HETATM   33  N   UNL     1      -8.796   7.645  66.942  1.00  0.00    -0.127 N  
HETATM   34  C   UNL     1      -7.701   7.633  67.951  1.00  0.00    -0.115 C  
HETATM   35  S   UNL     1      -6.774   6.162  67.464  1.00  0.00    -0.059 S  
HETATM   36  C   UNL     1      -8.784   7.536  69.028  1.00  0.00    -0.136 C  
HETATM   37  O   UNL     1      -5.568   6.586  66.774  1.00  0.00    -0.013 OA 
HETATM   38  O   UNL     1      -6.695   5.231  68.572  1.00  0.00    -0.050 OA 
HETATM   39  C   UNL     1      -7.933   5.511  66.213  1.00  0.00    -0.105 C  
HETATM   40  C   UNL     1      -9.775   7.421  67.862  1.00  0.00    -0.143 C  
HETATM   41  C   UNL     1      -7.181   4.724  65.131  1.00  0.00    -0.064 C  
HETATM   42  C   UNL     1      -8.920   4.523  66.869  1.00  0.00    -0.117 C  
HETATM   43  O   UNL     1     -10.913   7.049  67.707  1.00  0.00    -0.218 OA 
ENDBRANCH  30  32
ENDBRANCH  29  30
ENDBRANCH  28  29
ENDBRANCH  27  28
ENDBRANCH  25  27
ENDBRANCH   7  25
TORSDOF 9
ENDMDL
MODEL      152
REMARK 921   NORMALIZED FREE ENERGY PREDICTED BY IDOCK:   -5.43 KCAL/MOL
REMARK 922        TOTAL FREE ENERGY PREDICTED BY IDOCK:   -8.79 KCAL/MOL
REMARK 923 INTER-LIGAND FREE ENERGY PREDICTED BY IDOCK:   -8.61 KCAL/MOL
REMARK 924 INTRA-LIGAND FREE ENERGY PREDICTED BY IDOCK:   -0.18 KCAL/MOL
REMARK 927      BINDING AFFINITY PREDICTED BY RF-SCORE:    0.00 PKD
ROOT
HETATM    1  C   UNL     1     -10.927   7.436  72.499  1.00  0.00    -0.341 C  
HETATM    2  C   UNL     1     -10.976   7.410  70.957  1.00  0.00    -0.251 C  
HETATM    3  S   UNL     1     -10.222   5.800  70.423  1.00  0.00    -0.243 SA 
HETATM    4  C   UNL     1     -12.462   7.457  70.580  1.00  0.00    -0.032 C  
HETATM    5  C   UNL     1      -8.539   6.530  70.133  1.00  0.00    -0.140 C  
HETATM    6  C   UNL     1      -7.527   6.510  71.313  1.00  0.00    -0.089 C  
HETATM    7  C   UNL     1     -10.081   8.494  70.301  1.00  0.00    -0.186 C  
HETATM    8  C   UNL     1      -7.980   7.979  71.522  1.00  0.00    -0.105 C  
HETATM    9  O   UNL     1      -7.926   8.797  72.412  1.00  0.00    -0.362 OA 
HETATM   10  N   UNL     1      -8.708   7.976  70.368  1.00  0.00    -0.135 N  
ENDROOT
BRANCH   6  11
HETATM   11  N   UNL     1      -7.796   5.549  72.417  1.00  0.00    -0.102 N  
HETATM   12  C   UNL     1      -6.984   5.493  73.529  1.00  0.00    -0.085 C  
HETATM   13  O   UNL     1      -6.110   6.332  73.743  1.00  0.00    -0.061 OA 
HETATM   14  H   UNL     1      -8.596   4.920  72.349  1.00  0.00     0.000 HD 
BRANCH  12  15
HETATM   15  C   UNL     1      -7.227   4.285  74.462  1.00  0.00    -0.071 C  
HETATM   16  H2  UNL     1      -5.208   3.729  74.486  1.00  0.00     0.000 HD 
HETATM   17  N   UNL     1      -6.120   3.301  74.326  1.00  0.00    -0.015 NA 
HETATM   18  H1  UNL     1      -6.280   2.505  74.941  1.00  0.00     0.000 HD 
BRANCH  15  19
HETATM   19  C   UNL     1      -8.589   3.640  74.273  1.00  0.00    -0.088 A  
HETATM   20  C   UNL     1      -9.787   4.353  74.443  1.00  0.00    -0.184 A  
HETATM   21  C   UNL     1      -8.665   2.300  73.857  1.00  0.00    -0.063 A  
HETATM   22  C   UNL     1      -9.898   1.717  73.552  1.00  0.00    -0.118 A  
HETATM   23  C   UNL     1     -11.017   3.772  74.130  1.00  0.00    -0.150 A  
HETATM   24  C   UNL     1     -11.071   2.459  73.671  1.00  0.00    -0.312 A  
ENDBRANCH  15  19
ENDBRANCH  12  15
ENDBRANCH   6  11
BRANCH   7  25
HETATM   25  C   UNL     1     -10.364   8.762  68.805  1.00  0.00    -0.213 C  
HETATM   26  O   UNL     1     -10.694   7.915  67.981  1.00  0.00    -0.161 OA 
BRANCH  25  27
HETATM   27  O   UNL     1     -10.189  10.078  68.493  1.00  0.00    -0.162 OA 
BRANCH  27  28
HETATM   28  C   UNL     1     -11.122  10.969  69.112  1.00  0.00    -0.243 C  
BRANCH  28  29
HETATM   29  O   UNL     1     -12.094  11.420  68.175  1.00  0.00    -0.623 OA 
BRANCH  29  30
HETATM   30  C   UNL     1     -11.751  12.499  67.427  1.00  0.00    -0.366 C  
HETATM   31  O   UNL     1     -12.200  12.746  66.316  1.00  0.00    -0.515 OA 
BRANCH  30  32
HETATM   32  C   UNL     1     -10.737  13.398  68.168  1.00  0.00    -0.253 C  
HETATM   33  N   UNL     1     -11.328  14.733  68.355  1.00  0.00    -0.285 N  
HETATM   34  C   UNL     1     -11.193  15.715  67.245  1.00  0.00    -0.184 C  
HETATM   35  S   UNL     1      -9.891  14.959  66.248  1.00  0.00    -0.312 S  
HETATM   36  C   UNL     1     -10.839  16.763  68.303  1.00  0.00    -0.366 C  
HETATM   37  O   UNL     1     -10.501  14.351  65.078  1.00  0.00    -0.388 OA 
HETATM   38  O   UNL     1      -8.778  15.876  66.101  1.00  0.00    -0.327 OA 
HETATM   39  C   UNL     1      -9.417  13.617  67.391  1.00  0.00    -0.225 C  
HETATM   40  C   UNL     1     -10.885  15.602  69.306  1.00  0.00    -0.250 C  
HETATM   41  C   UNL     1      -8.885  12.403  66.616  1.00  0.00    -0.156 C  
HETATM   42  C   UNL     1      -8.271  14.086  68.313  1.00  0.00    -0.153 C  
HETATM   43  O   UNL     1     -10.485  15.389  70.425  1.00  0.00    -0.294 OA 
ENDBRANCH  30  32
ENDBRANCH  29  30
ENDBRANCH  28  29
ENDBRANCH  27  28
ENDBRANCH  25  27
ENDBRANCH   7  25
TORSDOF 9
ENDMDL
MODEL      153
REMARK 921   NORMALIZED FREE ENERGY PREDICTED BY IDOCK:   -5.42 KCAL/MOL
REMARK 922        TOTAL FREE ENERGY PREDICTED BY IDOCK:   -8.77 KCAL/MOL
REMARK 923 INTER-LIGAND FREE ENERGY PREDICTED BY IDOCK:   -8.40 KCAL/MOL
REMARK 924 INTRA-LIGAND FREE ENERGY PREDICTED BY IDOCK:   -0.37 KCAL/MOL
REMARK 927      BINDING AFFINITY PREDICTED BY RF-SCORE:    0.00 PKD
ROOT
HETATM    1  C   UNL     1     -10.035  12.837  64.775  1.00  0.00    -0.158 C  
HETATM    2  C   UNL     1     -10.982  12.628  65.975  1.00  0.00    -0.282 C  
HETATM    3  S   UNL     1     -10.979  14.211  66.943  1.00  0.00    -0.306 SA 
HETATM    4  C   UNL     1     -12.371  12.368  65.378  1.00  0.00    -0.308 C  
HETATM    5  C   UNL     1      -9.691  13.630  68.148  1.00  0.00    -0.229 C  
HETATM    6  C   UNL     1      -8.201  13.932  67.818  1.00  0.00    -0.173 C  
HETATM    7  C   UNL     1     -10.470  11.559  66.976  1.00  0.00    -0.228 C  
HETATM    8  C   UNL     1      -8.182  12.470  67.298  1.00  0.00    -0.184 C  
HETATM    9  O   UNL     1      -7.474  11.804  66.576  1.00  0.00    -0.048 OA 
HETATM   10  N   UNL     1      -9.435  12.225  67.779  1.00  0.00    -0.191 N  
ENDROOT
BRANCH   6  11
HETATM   11  N   UNL     1      -7.934  15.012  66.831  1.00  0.00    -0.322 N  
HETATM   12  C   UNL     1      -7.440  16.236  67.227  1.00  0.00    -0.178 C  
HETATM   13  O   UNL     1      -7.041  16.440  68.373  1.00  0.00    -0.146 OA 
HETATM   14  H   UNL     1      -8.120  14.843  65.842  1.00  0.00     0.000 HD 
BRANCH  12  15
HETATM   15  C   UNL     1      -7.457  17.336  66.141  1.00  0.00    -0.286 C  
HETATM   16  H2  UNL     1      -5.464  17.005  65.589  1.00  0.00     0.000 HD 
HETATM   17  N   UNL     1      -6.070  17.784  65.845  1.00  0.00    -0.210 NA 
HETATM   18  H1  UNL     1      -6.081  18.510  65.129  1.00  0.00     0.000 HD 
BRANCH  15  19
HETATM   19  C   UNL     1      -8.373  18.500  66.475  1.00  0.00    -0.297 A  
HETATM   20  C   UNL     1      -9.772  18.402  66.389  1.00  0.00    -0.343 A  
HETATM   21  C   UNL     1      -7.817  19.704  66.941  1.00  0.00    -0.300 A  
HETATM   22  C   UNL     1      -8.638  20.747  67.375  1.00  0.00    -0.218 A  
HETATM   23  C   UNL     1     -10.590  19.442  66.832  1.00  0.00    -0.581 A  
HETATM   24  C   UNL     1     -10.024  20.608  67.338  1.00  0.00    -0.457 A  
ENDBRANCH  15  19
ENDBRANCH  12  15
ENDBRANCH   6  11
BRANCH   7  25
HETATM   25  C   UNL     1     -11.525  11.044  67.982  1.00  0.00    -0.290 C  
HETATM   26  O   UNL     1     -12.367  11.735  68.547  1.00  0.00    -0.348 OA 
BRANCH  25  27
HETATM   27  O   UNL     1     -11.403   9.701  68.188  1.00  0.00    -0.038 OA 
BRANCH  27  28
HETATM   28  C   UNL     1     -10.172   9.135  67.728  1.00  0.00    -0.224 C  
BRANCH  28  29
HETATM   29  O   UNL     1      -9.939   7.867  68.332  1.00  0.00    -0.169 OA 
BRANCH  29  30
HETATM   30  C   UNL     1     -10.413   6.786  67.661  1.00  0.00    -0.229 C  
HETATM   31  O   UNL     1     -11.274   6.832  66.793  1.00  0.00    -0.312 OA 
BRANCH  30  32
HETATM   32  C   UNL     1      -9.706   5.489  68.110  1.00  0.00    -0.132 C  
HETATM   33  N   UNL     1      -8.489   5.841  68.859  1.00  0.00    -0.104 N  
HETATM   34  C   UNL     1      -7.246   6.098  68.083  1.00  0.00    -0.084 C  
HETATM   35  S   UNL     1      -7.666   5.389  66.477  1.00  0.00    -0.100 S  
HETATM   36  C   UNL     1      -6.501   5.257  69.123  1.00  0.00    -0.042 C  
HETATM   37  O   UNL     1      -7.966   6.474  65.558  1.00  0.00    -0.104 OA 
HETATM   38  O   UNL     1      -6.705   4.366  66.115  1.00  0.00    -0.047 OA 
HETATM   39  C   UNL     1      -9.245   4.595  66.935  1.00  0.00    -0.127 C  
HETATM   40  C   UNL     1      -7.887   4.978  69.723  1.00  0.00    -0.071 C  
HETATM   41  C   UNL     1     -10.193   4.529  65.729  1.00  0.00    -0.289 C  
HETATM   42  C   UNL     1      -8.996   3.137  67.377  1.00  0.00    -0.184 C  
HETATM   43  O   UNL     1      -8.373   4.170  70.476  1.00  0.00    -0.065 OA 
ENDBRANCH  30  32
ENDBRANCH  29  30
ENDBRANCH  28  29
ENDBRANCH  27  28
ENDBRANCH  25  27
ENDBRANCH   7  25
TORSDOF 9
ENDMDL
MODEL      154
REMARK 921   NORMALIZED FREE ENERGY PREDICTED BY IDOCK:   -5.39 KCAL/MOL
REMARK 922        TOTAL FREE ENERGY PREDICTED BY IDOCK:   -8.74 KCAL/MOL
REMARK 923 INTER-LIGAND FREE ENERGY PREDICTED BY IDOCK:   -9.65 KCAL/MOL
REMARK 924 INTRA-LIGAND FREE ENERGY PREDICTED BY IDOCK:    0.91 KCAL/MOL
REMARK 927      BINDING AFFINITY PREDICTED BY RF-SCORE:    0.00 PKD
ROOT
HETATM    1  C   UNL     1      -8.217  14.308  68.085  1.00  0.00    -0.146 C  
HETATM    2  C   UNL     1      -9.003  13.218  67.326  1.00  0.00    -0.217 C  
HETATM    3  S   UNL     1      -9.923  14.073  65.960  1.00  0.00    -0.305 SA 
HETATM    4  C   UNL     1      -7.951  12.263  66.748  1.00  0.00     0.010 C  
HETATM    5  C   UNL     1     -11.501  14.216  66.930  1.00  0.00    -0.357 C  
HETATM    6  C   UNL     1     -11.722  15.507  67.768  1.00  0.00    -0.088 C  
HETATM    7  C   UNL     1     -10.111  12.555  68.186  1.00  0.00    -0.225 C  
HETATM    8  C   UNL     1     -11.229  14.636  68.954  1.00  0.00    -0.267 C  
HETATM    9  O   UNL     1     -10.799  14.832  70.067  1.00  0.00    -0.208 OA 
HETATM   10  N   UNL     1     -11.233  13.503  68.194  1.00  0.00    -0.259 N  
ENDROOT
BRANCH   6  11
HETATM   11  N   UNL     1     -10.902  16.695  67.406  1.00  0.00    -0.244 N  
HETATM   12  C   UNL     1     -10.505  17.606  68.361  1.00  0.00    -0.359 C  
HETATM   13  O   UNL     1     -10.659  17.402  69.564  1.00  0.00    -0.218 OA 
HETATM   14  H   UNL     1     -10.629  16.838  66.434  1.00  0.00     0.000 HD 
BRANCH  12  15
HETATM   15  C   UNL     1      -9.888  18.911  67.809  1.00  0.00    -0.337 C  
HETATM   16  H2  UNL     1     -11.734  19.893  67.699  1.00  0.00     0.000 HD 
HETATM   17  N   UNL     1     -10.926  19.711  67.105  1.00  0.00    -0.410 NA 
HETATM   18  H1  UNL     1     -10.518  20.572  66.741  1.00  0.00     0.000 HD 
BRANCH  15  19
HETATM   19  C   UNL     1      -8.662  18.680  66.942  1.00  0.00    -0.288 A  
HETATM   20  C   UNL     1      -8.113  19.691  66.135  1.00  0.00    -0.356 A  
HETATM   21  C   UNL     1      -8.012  17.435  66.983  1.00  0.00    -0.241 A  
HETATM   22  C   UNL     1      -6.813  17.234  66.296  1.00  0.00    -0.283 A  
HETATM   23  C   UNL     1      -6.910  19.491  65.457  1.00  0.00    -0.312 A  
HETATM   24  C   UNL     1      -6.253  18.267  65.549  1.00  0.00    -0.282 A  
ENDBRANCH  15  19
ENDBRANCH  12  15
ENDBRANCH   6  11
BRANCH   7  25
HETATM   25  C   UNL     1     -10.674  11.230  67.624  1.00  0.00    -0.226 C  
HETATM   26  O   UNL     1     -11.529  11.135  66.748  1.00  0.00    -0.380 OA 
BRANCH  25  27
HETATM   27  O   UNL     1     -10.110  10.149  68.235  1.00  0.00    -0.148 OA 
BRANCH  27  28
HETATM   28  C   UNL     1     -10.399   8.893  67.615  1.00  0.00    -0.251 C  
BRANCH  28  29
HETATM   29  O   UNL     1      -9.829   7.818  68.355  1.00  0.00    -0.160 OA 
BRANCH  29  30
HETATM   30  C   UNL     1     -10.644   6.761  68.601  1.00  0.00    -0.227 C  
HETATM   31  O   UNL     1     -11.129   6.042  67.737  1.00  0.00    -0.300 OA 
BRANCH  30  32
HETATM   32  C   UNL     1     -10.863   6.559  70.116  1.00  0.00    -0.282 C  
HETATM   33  N   UNL     1     -10.428   7.772  70.828  1.00  0.00    -0.208 N  
HETATM   34  C   UNL     1      -8.987   7.890  71.182  1.00  0.00    -0.138 C  
HETATM   35  S   UNL     1      -8.420   6.188  70.972  1.00  0.00    -0.128 S  
HETATM   36  C   UNL     1      -9.433   8.386  72.559  1.00  0.00    -0.360 C  
HETATM   37  O   UNL     1      -7.677   6.100  69.727  1.00  0.00    -0.093 OA 
HETATM   38  O   UNL     1      -7.841   5.699  72.207  1.00  0.00    -0.101 OA 
HETATM   39  C   UNL     1     -10.042   5.391  70.712  1.00  0.00    -0.220 C  
HETATM   40  C   UNL     1     -10.860   8.077  72.083  1.00  0.00    -0.279 C  
HETATM   41  C   UNL     1      -9.902   4.147  69.823  1.00  0.00    -0.220 C  
HETATM   42  C   UNL     1     -10.616   4.905  72.060  1.00  0.00    -0.210 C  
HETATM   43  O   UNL     1     -11.941   7.908  72.593  1.00  0.00    -0.327 OA 
ENDBRANCH  30  32
ENDBRANCH  29  30
ENDBRANCH  28  29
ENDBRANCH  27  28
ENDBRANCH  25  27
ENDBRANCH   7  25
TORSDOF 9
ENDMDL
MODEL      155
REMARK 921   NORMALIZED FREE ENERGY PREDICTED BY IDOCK:   -5.38 KCAL/MOL
REMARK 922        TOTAL FREE ENERGY PREDICTED BY IDOCK:   -8.72 KCAL/MOL
REMARK 923 INTER-LIGAND FREE ENERGY PREDICTED BY IDOCK:   -8.01 KCAL/MOL
REMARK 924 INTRA-LIGAND FREE ENERGY PREDICTED BY IDOCK:   -0.71 KCAL/MOL
REMARK 927      BINDING AFFINITY PREDICTED BY RF-SCORE:    0.00 PKD
ROOT
HETATM    1  C   UNL     1      -8.102   7.517  65.987  1.00  0.00    -0.123 C  
HETATM    2  C   UNL     1      -7.714   7.896  67.431  1.00  0.00    -0.109 C  
HETATM    3  S   UNL     1      -7.324   6.312  68.315  1.00  0.00    -0.088 SA 
HETATM    4  C   UNL     1      -6.458   8.769  67.316  1.00  0.00    -0.058 C  
HETATM    5  C   UNL     1      -9.021   6.150  69.054  1.00  0.00    -0.125 C  
HETATM    6  C   UNL     1     -10.084   5.341  68.258  1.00  0.00    -0.155 C  
HETATM    7  C   UNL     1      -8.889   8.512  68.236  1.00  0.00    -0.142 C  
HETATM    8  C   UNL     1     -10.569   6.738  67.788  1.00  0.00    -0.249 C  
HETATM    9  O   UNL     1     -11.254   7.173  66.890  1.00  0.00    -0.243 OA 
HETATM   10  N   UNL     1      -9.728   7.380  68.650  1.00  0.00    -0.150 N  
ENDROOT
BRANCH   6  11
HETATM   11  N   UNL     1      -9.579   4.407  67.216  1.00  0.00    -0.178 N  
HETATM   12  C   UNL     1      -9.263   3.100  67.521  1.00  0.00    -0.193 C  
HETATM   13  O   UNL     1      -9.535   2.599  68.611  1.00  0.00    -0.189 OA 
HETATM   14  H   UNL     1      -9.466   4.739  66.258  1.00  0.00     0.000 HD 
BRANCH  12  15
HETATM   15  C   UNL     1      -8.514   2.328  66.411  1.00  0.00    -0.101 C  
HETATM   16  H2  UNL     1      -6.870   1.901  67.636  1.00  0.00     0.000 HD 
HETATM   17  N   UNL     1      -7.058   2.285  66.710  1.00  0.00    -0.051 NA 
HETATM   18  H1  UNL     1      -6.564   1.776  65.978  1.00  0.00     0.000 HD 
BRANCH  15  19
HETATM   19  C   UNL     1      -8.794   2.854  65.015  1.00  0.00    -0.127 A  
HETATM   20  C   UNL     1      -9.736   2.255  64.162  1.00  0.00    -0.127 A  
HETATM   21  C   UNL     1      -8.135   4.013  64.569  1.00  0.00    -0.087 A  
HETATM   22  C   UNL     1      -8.464   4.593  63.341  1.00  0.00    -0.117 A  
HETATM   23  C   UNL     1     -10.069   2.841  62.939  1.00  0.00    -0.106 A  
HETATM   24  C   UNL     1      -9.444   4.017  62.536  1.00  0.00    -0.118 A  
ENDBRANCH  15  19
ENDBRANCH  12  15
ENDBRANCH   6  11
BRANCH   7  25
HETATM   25  C   UNL     1      -8.482   9.241  69.536  1.00  0.00    -0.144 C  
HETATM   26  O   UNL     1      -7.481   9.000  70.204  1.00  0.00    -0.057 OA 
BRANCH  25  27
HETATM   27  O   UNL     1      -9.392  10.199  69.876  1.00  0.00    -0.199 OA 
BRANCH  27  28
HETATM   28  C   UNL     1      -9.994  10.872  68.766  1.00  0.00    -0.195 C  
BRANCH  28  29
HETATM   29  O   UNL     1      -9.211  11.991  68.364  1.00  0.00    -0.189 OA 
BRANCH  29  30
HETATM   30  C   UNL     1      -9.065  12.170  67.026  1.00  0.00    -0.198 C  
HETATM   31  O   UNL     1      -8.707  11.299  66.244  1.00  0.00    -0.179 OA 
BRANCH  30  32
HETATM   32  C   UNL     1      -9.436  13.609  66.606  1.00  0.00    -0.277 C  
HETATM   33  N   UNL     1     -10.135  14.267  67.722  1.00  0.00    -0.229 N  
HETATM   34  C   UNL     1     -11.603  14.060  67.841  1.00  0.00    -0.343 C  
HETATM   35  S   UNL     1     -12.013  13.410  66.208  1.00  0.00    -0.415 S  
HETATM   36  C   UNL     1     -11.726  15.560  68.123  1.00  0.00    -0.241 C  
HETATM   37  O   UNL     1     -12.223  11.976  66.322  1.00  0.00    -0.548 OA 
HETATM   38  O   UNL     1     -13.010  14.247  65.571  1.00  0.00    -0.607 OA 
HETATM   39  C   UNL     1     -10.399  13.673  65.397  1.00  0.00    -0.332 C  
HETATM   40  C   UNL     1     -10.220  15.622  67.832  1.00  0.00    -0.239 C  
HETATM   41  C   UNL     1     -10.165  12.630  64.295  1.00  0.00    -0.358 C  
HETATM   42  C   UNL     1     -10.373  15.054  64.706  1.00  0.00    -0.201 C  
HETATM   43  O   UNL     1      -9.412  16.475  67.555  1.00  0.00    -0.222 OA 
ENDBRANCH  30  32
ENDBRANCH  29  30
ENDBRANCH  28  29
ENDBRANCH  27  28
ENDBRANCH  25  27
ENDBRANCH   7  25
TORSDOF 9
ENDMDL
MODEL      156
REMARK 921   NORMALIZED FREE ENERGY PREDICTED BY IDOCK:   -5.37 KCAL/MOL
REMARK 922        TOTAL FREE ENERGY PREDICTED BY IDOCK:   -8.70 KCAL/MOL
REMARK 923 INTER-LIGAND FREE ENERGY PREDICTED BY IDOCK:   -8.63 KCAL/MOL
REMARK 924 INTRA-LIGAND FREE ENERGY PREDICTED BY IDOCK:   -0.06 KCAL/MOL
REMARK 927      BINDING AFFINITY PREDICTED BY RF-SCORE:    0.00 PKD
ROOT
HETATM    1  C   UNL     1     -10.749   8.485  67.015  1.00  0.00    -0.190 C  
HETATM    2  C   UNL     1      -9.395   9.223  67.062  1.00  0.00    -0.144 C  
HETATM    3  S   UNL     1      -8.786   9.115  68.811  1.00  0.00    -0.133 SA 
HETATM    4  C   UNL     1      -8.461   8.455  66.120  1.00  0.00    -0.139 C  
HETATM    5  C   UNL     1      -9.455  10.780  69.290  1.00  0.00    -0.082 C  
HETATM    6  C   UNL     1     -10.889  10.840  69.887  1.00  0.00    -0.202 C  
HETATM    7  C   UNL     1      -9.522  10.746  66.788  1.00  0.00    -0.173 C  
HETATM    8  C   UNL     1     -11.305  11.238  68.446  1.00  0.00    -0.281 C  
HETATM    9  O   UNL     1     -12.331  11.268  67.805  1.00  0.00    -0.262 OA 
HETATM   10  N   UNL     1     -10.006  11.340  68.042  1.00  0.00    -0.174 N  
ENDROOT
BRANCH   6  11
HETATM   11  N   UNL     1     -11.446   9.574  70.435  1.00  0.00    -0.307 N  
HETATM   12  C   UNL     1     -12.665   9.549  71.079  1.00  0.00    -0.238 C  
HETATM   13  O   UNL     1     -13.419  10.521  71.089  1.00  0.00    -0.240 OA 
HETATM   14  H   UNL     1     -10.918   8.708  70.330  1.00  0.00     0.000 HD 
BRANCH  12  15
HETATM   15  C   UNL     1     -12.993   8.231  71.816  1.00  0.00    -0.344 C  
HETATM   16  H2  UNL     1     -14.634   9.051  72.827  1.00  0.00     0.000 HD 
HETATM   17  N   UNL     1     -13.794   8.512  73.037  1.00  0.00    -0.771 NA 
HETATM   18  H1  UNL     1     -14.011   7.642  73.523  1.00  0.00     0.000 HD 
BRANCH  15  19
HETATM   19  C   UNL     1     -11.768   7.387  72.120  1.00  0.00    -0.328 A  
HETATM   20  C   UNL     1     -11.344   6.348  71.275  1.00  0.00    -0.361 A  
HETATM   21  C   UNL     1     -10.990   7.683  73.252  1.00  0.00    -0.331 A  
HETATM   22  C   UNL     1      -9.790   7.008  73.490  1.00  0.00    -0.296 A  
HETATM   23  C   UNL     1     -10.141   5.681  71.508  1.00  0.00    -0.253 A  
HETATM   24  C   UNL     1      -9.357   6.021  72.607  1.00  0.00    -0.147 A  
ENDBRANCH  15  19
ENDBRANCH  12  15
ENDBRANCH   6  11
BRANCH   7  25
HETATM   25  C   UNL     1      -8.194  11.465  66.458  1.00  0.00    -0.152 C  
HETATM   26  O   UNL     1      -7.074  10.975  66.562  1.00  0.00    -0.131 OA 
BRANCH  25  27
HETATM   27  O   UNL     1      -8.412  12.746  66.041  1.00  0.00     0.443 OA 
BRANCH  27  28
HETATM   28  C   UNL     1      -8.183  13.747  67.037  1.00  0.00    -0.034 C  
BRANCH  28  29
HETATM   29  O   UNL     1      -8.436  15.048  66.517  1.00  0.00    -0.217 OA 
BRANCH  29  30
HETATM   30  C   UNL     1      -9.572  15.655  66.947  1.00  0.00    -0.230 C  
HETATM   31  O   UNL     1     -10.627  15.076  67.168  1.00  0.00    -0.283 OA 
BRANCH  30  32
HETATM   32  C   UNL     1      -9.359  17.171  67.152  1.00  0.00    -0.245 C  
HETATM   33  N   UNL     1      -8.108  17.572  66.487  1.00  0.00    -0.251 N  
HETATM   34  C   UNL     1      -6.838  17.421  67.247  1.00  0.00    -0.168 C  
HETATM   35  S   UNL     1      -7.446  17.214  68.934  1.00  0.00    -0.212 S  
HETATM   36  C   UNL     1      -6.444  18.809  66.737  1.00  0.00    -0.204 C  
HETATM   37  O   UNL     1      -7.340  15.810  69.293  1.00  0.00    -0.189 OA 
HETATM   38  O   UNL     1      -6.885  18.234  69.797  1.00  0.00    -0.036 OA 
HETATM   39  C   UNL     1      -9.209  17.582  68.635  1.00  0.00    -0.267 C  
HETATM   40  C   UNL     1      -7.852  18.860  66.128  1.00  0.00    -0.250 C  
HETATM   41  C   UNL     1     -10.100  16.830  69.634  1.00  0.00    -0.025 C  
HETATM   42  C   UNL     1      -9.480  19.086  68.852  1.00  0.00    -0.393 C  
HETATM   43  O   UNL     1      -8.598  19.710  65.707  1.00  0.00    -0.395 OA 
ENDBRANCH  30  32
ENDBRANCH  29  30
ENDBRANCH  28  29
ENDBRANCH  27  28
ENDBRANCH  25  27
ENDBRANCH   7  25
TORSDOF 9
ENDMDL
MODEL      157
REMARK 921   NORMALIZED FREE ENERGY PREDICTED BY IDOCK:   -5.37 KCAL/MOL
REMARK 922        TOTAL FREE ENERGY PREDICTED BY IDOCK:   -8.70 KCAL/MOL
REMARK 923 INTER-LIGAND FREE ENERGY PREDICTED BY IDOCK:   -7.81 KCAL/MOL
REMARK 924 INTRA-LIGAND FREE ENERGY PREDICTED BY IDOCK:   -0.89 KCAL/MOL
REMARK 927      BINDING AFFINITY PREDICTED BY RF-SCORE:    0.00 PKD
ROOT
HETATM    1  C   UNL     1      -8.038   8.090  69.653  1.00  0.00    -0.119 C  
HETATM    2  C   UNL     1      -9.007   9.211  69.223  1.00  0.00    -0.145 C  
HETATM    3  S   UNL     1     -10.340   9.291  70.511  1.00  0.00    -0.277 SA 
HETATM    4  C   UNL     1      -8.184  10.505  69.222  1.00  0.00    -0.151 C  
HETATM    5  C   UNL     1     -11.515   8.217  69.556  1.00  0.00     0.442 C  
HETATM    6  C   UNL     1     -11.475   6.685  69.820  1.00  0.00    -0.328 C  
HETATM    7  C   UNL     1      -9.760   8.892  67.904  1.00  0.00    -0.160 C  
HETATM    8  C   UNL     1     -10.605   6.643  68.536  1.00  0.00    -0.233 C  
HETATM    9  O   UNL     1      -9.838   5.863  68.020  1.00  0.00    -0.116 OA 
HETATM   10  N   UNL     1     -10.836   7.962  68.272  1.00  0.00    -0.006 N  
ENDROOT
BRANCH   6  11
HETATM   11  N   UNL     1     -10.842   6.235  71.088  1.00  0.00    -0.254 N  
HETATM   12  C   UNL     1     -11.547   6.222  72.273  1.00  0.00    -0.309 C  
HETATM   13  O   UNL     1     -12.761   6.417  72.314  1.00  0.00    -0.172 OA 
HETATM   14  H   UNL     1      -9.869   5.930  71.082  1.00  0.00     0.000 HD 
BRANCH  12  15
HETATM   15  C   UNL     1     -10.697   5.982  73.542  1.00  0.00    -0.250 C  
HETATM   16  H2  UNL     1      -9.825   7.885  73.478  1.00  0.00     0.000 HD 
HETATM   17  N   UNL     1      -9.536   6.911  73.564  1.00  0.00    -0.162 NA 
HETATM   18  H1  UNL     1      -8.976   6.752  74.401  1.00  0.00     0.000 HD 
BRANCH  15  19
HETATM   19  C   UNL     1     -10.273   4.535  73.720  1.00  0.00    -0.233 A  
HETATM   20  C   UNL     1     -11.121   3.460  73.406  1.00  0.00    -0.288 A  
HETATM   21  C   UNL     1      -8.969   4.247  74.158  1.00  0.00    -0.094 A  
HETATM   22  C   UNL     1      -8.508   2.929  74.210  1.00  0.00    -0.069 A  
HETATM   23  C   UNL     1     -10.657   2.145  73.450  1.00  0.00    -0.233 A  
HETATM   24  C   UNL     1      -9.346   1.880  73.838  1.00  0.00    -0.081 A  
ENDBRANCH  15  19
ENDBRANCH  12  15
ENDBRANCH   6  11
BRANCH   7  25
HETATM   25  C   UNL     1     -10.450  10.102  67.234  1.00  0.00    -0.256 C  
HETATM   26  O   UNL     1     -11.453  10.672  67.655  1.00  0.00    -0.474 OA 
BRANCH  25  27
HETATM   27  O   UNL     1      -9.812  10.466  66.085  1.00  0.00    -0.201 OA 
BRANCH  27  28
HETATM   28  C   UNL     1      -9.329  11.813  66.071  1.00  0.00    -0.220 C  
BRANCH  28  29
HETATM   29  O   UNL     1     -10.210  12.661  65.341  1.00  0.00    -0.281 OA 
BRANCH  29  30
HETATM   30  C   UNL     1     -10.416  13.899  65.860  1.00  0.00    -0.305 C  
HETATM   31  O   UNL     1     -10.813  14.863  65.219  1.00  0.00    -0.334 OA 
BRANCH  30  32
HETATM   32  C   UNL     1     -10.114  13.933  67.374  1.00  0.00    -0.244 C  
HETATM   33  N   UNL     1     -11.361  14.215  68.104  1.00  0.00    -0.275 N  
HETATM   34  C   UNL     1     -11.756  15.639  68.281  1.00  0.00    -0.242 C  
HETATM   35  S   UNL     1     -10.215  16.495  67.890  1.00  0.00    -0.283 S  
HETATM   36  C   UNL     1     -12.096  15.296  69.733  1.00  0.00    -0.357 C  
HETATM   37  O   UNL     1     -10.330  17.063  66.557  1.00  0.00    -0.309 OA 
HETATM   38  O   UNL     1      -9.805  17.322  69.006  1.00  0.00    -0.280 OA 
HETATM   39  C   UNL     1      -9.116  15.041  67.783  1.00  0.00    -0.180 C  
HETATM   40  C   UNL     1     -11.522  13.906  69.421  1.00  0.00    -0.280 C  
HETATM   41  C   UNL     1      -7.963  15.301  66.803  1.00  0.00    -0.104 C  
HETATM   42  C   UNL     1      -8.470  14.764  69.157  1.00  0.00    -0.096 C  
HETATM   43  O   UNL     1     -11.117  12.960  70.050  1.00  0.00     0.147 OA 
ENDBRANCH  30  32
ENDBRANCH  29  30
ENDBRANCH  28  29
ENDBRANCH  27  28
ENDBRANCH  25  27
ENDBRANCH   7  25
TORSDOF 9
ENDMDL
MODEL      158
REMARK 921   NORMALIZED FREE ENERGY PREDICTED BY IDOCK:   -5.36 KCAL/MOL
REMARK 922        TOTAL FREE ENERGY PREDICTED BY IDOCK:   -8.69 KCAL/MOL
REMARK 923 INTER-LIGAND FREE ENERGY PREDICTED BY IDOCK:   -7.89 KCAL/MOL
REMARK 924 INTRA-LIGAND FREE ENERGY PREDICTED BY IDOCK:   -0.80 KCAL/MOL
REMARK 927      BINDING AFFINITY PREDICTED BY RF-SCORE:    0.00 PKD
ROOT
HETATM    1  C   UNL     1     -10.730  10.042  65.819  1.00  0.00     0.204 C  
HETATM    2  C   UNL     1      -9.774  11.240  65.996  1.00  0.00    -0.220 C  
HETATM    3  S   UNL     1      -8.388  10.664  67.086  1.00  0.00    -0.126 SA 
HETATM    4  C   UNL     1      -9.251  11.575  64.594  1.00  0.00     0.045 C  
HETATM    5  C   UNL     1      -9.152  11.333  68.641  1.00  0.00    -0.151 C  
HETATM    6  C   UNL     1     -10.072  10.385  69.462  1.00  0.00    -0.219 C  
HETATM    7  C   UNL     1     -10.415  12.420  66.774  1.00  0.00    -0.221 C  
HETATM    8  C   UNL     1     -11.224  11.129  68.736  1.00  0.00    -0.253 C  
HETATM    9  O   UNL     1     -12.398  10.931  68.520  1.00  0.00    -0.490 OA 
HETATM   10  N   UNL     1     -10.366  12.040  68.192  1.00  0.00    -0.192 N  
ENDROOT
BRANCH   6  11
HETATM   11  N   UNL     1      -9.935   8.926  69.209  1.00  0.00    -0.187 N  
HETATM   12  C   UNL     1      -9.137   8.134  70.007  1.00  0.00    -0.151 C  
HETATM   13  O   UNL     1      -8.639   8.551  71.052  1.00  0.00    -0.129 OA 
HETATM   14  H   UNL     1     -10.441   8.502  68.431  1.00  0.00     0.000 HD 
BRANCH  12  15
HETATM   15  C   UNL     1      -8.888   6.704  69.476  1.00  0.00    -0.139 C  
HETATM   16  H2  UNL     1      -9.999   7.017  67.729  1.00  0.00     0.000 HD 
HETATM   17  N   UNL     1      -9.934   6.335  68.485  1.00  0.00    -0.138 NA 
HETATM   18  H1  UNL     1      -9.769   5.392  68.135  1.00  0.00     0.000 HD 
BRANCH  15  19
HETATM   19  C   UNL     1      -8.755   5.666  70.576  1.00  0.00    -0.140 A  
HETATM   20  C   UNL     1      -7.516   5.110  70.937  1.00  0.00    -0.078 A  
HETATM   21  C   UNL     1      -9.894   5.282  71.304  1.00  0.00    -0.232 A  
HETATM   22  C   UNL     1      -9.783   4.425  72.403  1.00  0.00    -0.210 A  
HETATM   23  C   UNL     1      -7.406   4.262  72.040  1.00  0.00    -0.065 A  
HETATM   24  C   UNL     1      -8.537   3.931  72.781  1.00  0.00    -0.101 A  
ENDBRANCH  15  19
ENDBRANCH  12  15
ENDBRANCH   6  11
BRANCH   7  25
HETATM   25  C   UNL     1      -9.661  13.765  66.666  1.00  0.00    -0.288 C  
HETATM   26  O   UNL     1      -8.524  13.978  67.077  1.00  0.00    -0.207 OA 
BRANCH  25  27
HETATM   27  O   UNL     1     -10.425  14.717  66.057  1.00  0.00    -0.280 OA 
BRANCH  27  28
HETATM   28  C   UNL     1     -11.009  15.673  66.947  1.00  0.00    -0.243 C  
BRANCH  28  29
HETATM   29  O   UNL     1     -10.366  16.938  66.827  1.00  0.00    -0.304 OA 
BRANCH  29  30
HETATM   30  C   UNL     1      -9.428  17.225  67.767  1.00  0.00    -0.255 C  
HETATM   31  O   UNL     1      -9.624  17.195  68.974  1.00  0.00    -0.257 OA 
BRANCH  30  32
HETATM   32  C   UNL     1      -8.068  17.567  67.120  1.00  0.00    -0.210 C  
HETATM   33  N   UNL     1      -6.990  17.214  68.057  1.00  0.00    -0.167 N  
HETATM   34  C   UNL     1      -6.608  18.218  69.087  1.00  0.00    -0.258 C  
HETATM   35  S   UNL     1      -7.370  19.718  68.432  1.00  0.00    -0.296 S  
HETATM   36  C   UNL     1      -5.147  17.896  68.765  1.00  0.00    -0.157 C  
HETATM   37  O   UNL     1      -8.568  20.001  69.203  1.00  0.00     0.024 OA 
HETATM   38  O   UNL     1      -6.365  20.745  68.237  1.00  0.00    -0.313 OA 
HETATM   39  C   UNL     1      -7.891  19.072  66.806  1.00  0.00    -0.251 C  
HETATM   40  C   UNL     1      -5.708  17.002  67.650  1.00  0.00    -0.133 C  
HETATM   41  C   UNL     1      -9.143  19.805  66.304  1.00  0.00    -0.444 C  
HETATM   42  C   UNL     1      -6.786  19.321  65.758  1.00  0.00    -0.306 C  
HETATM   43  O   UNL     1      -5.290  16.486  66.642  1.00  0.00    -0.353 OA 
ENDBRANCH  30  32
ENDBRANCH  29  30
ENDBRANCH  28  29
ENDBRANCH  27  28
ENDBRANCH  25  27
ENDBRANCH   7  25
TORSDOF 9
ENDMDL
MODEL      159
REMARK 921   NORMALIZED FREE ENERGY PREDICTED BY IDOCK:   -5.34 KCAL/MOL
REMARK 922        TOTAL FREE ENERGY PREDICTED BY IDOCK:   -8.66 KCAL/MOL
REMARK 923 INTER-LIGAND FREE ENERGY PREDICTED BY IDOCK:   -7.97 KCAL/MOL
REMARK 924 INTRA-LIGAND FREE ENERGY PREDICTED BY IDOCK:   -0.69 KCAL/MOL
REMARK 927      BINDING AFFINITY PREDICTED BY RF-SCORE:    0.00 PKD
ROOT
HETATM    1  C   UNL     1      -9.323   9.609  65.271  1.00  0.00    -0.322 C  
HETATM    2  C   UNL     1      -9.006   8.915  66.612  1.00  0.00    -0.136 C  
HETATM    3  S   UNL     1      -9.456  10.112  67.956  1.00  0.00    -0.146 SA 
HETATM    4  C   UNL     1      -9.909   7.677  66.671  1.00  0.00    -0.283 C  
HETATM    5  C   UNL     1      -7.726  10.762  68.143  1.00  0.00    -0.102 C  
HETATM    6  C   UNL     1      -7.323  12.002  67.295  1.00  0.00    -0.151 C  
HETATM    7  C   UNL     1      -7.490   8.651  66.818  1.00  0.00    -0.086 C  
HETATM    8  C   UNL     1      -6.683  10.953  66.349  1.00  0.00    -0.134 C  
HETATM    9  O   UNL     1      -6.300  10.923  65.201  1.00  0.00     0.013 OA 
HETATM   10  N   UNL     1      -6.912   9.937  67.230  1.00  0.00    -0.083 N  
ENDROOT
BRANCH   6  11
HETATM   11  N   UNL     1      -8.428  12.833  66.747  1.00  0.00    -0.397 N  
HETATM   12  C   UNL     1      -8.418  14.206  66.869  1.00  0.00    -0.091 C  
HETATM   13  O   UNL     1      -7.434  14.818  67.281  1.00  0.00    -0.197 OA 
HETATM   14  H   UNL     1      -9.207  12.378  66.271  1.00  0.00     0.000 HD 
BRANCH  12  15
HETATM   15  C   UNL     1      -9.740  14.910  66.487  1.00  0.00    -0.276 C  
HETATM   16  H2  UNL     1      -8.877  15.950  64.888  1.00  0.00     0.000 HD 
HETATM   17  N   UNL     1      -9.456  16.143  65.705  1.00  0.00    -0.443 NA 
HETATM   18  H1  UNL     1     -10.328  16.608  65.453  1.00  0.00     0.000 HD 
BRANCH  15  19
HETATM   19  C   UNL     1     -10.643  15.187  67.677  1.00  0.00    -0.263 A  
HETATM   20  C   UNL     1     -11.761  14.388  67.971  1.00  0.00    -0.374 A  
HETATM   21  C   UNL     1     -10.327  16.239  68.553  1.00  0.00    -0.261 A  
HETATM   22  C   UNL     1     -11.065  16.439  69.723  1.00  0.00    -0.305 A  
HETATM   23  C   UNL     1     -12.490  14.583  69.145  1.00  0.00    -0.025 A  
HETATM   24  C   UNL     1     -12.134  15.599  70.027  1.00  0.00    -0.379 A  
ENDBRANCH  15  19
ENDBRANCH  12  15
ENDBRANCH   6  11
BRANCH   7  25
HETATM   25  C   UNL     1      -7.146   7.647  67.942  1.00  0.00    -0.085 C  
HETATM   26  O   UNL     1      -7.509   6.476  67.985  1.00  0.00    -0.090 OA 
BRANCH  25  27
HETATM   27  O   UNL     1      -6.384   8.228  68.913  1.00  0.00    -0.043 OA 
BRANCH  27  28
HETATM   28  C   UNL     1      -6.580   7.694  70.226  1.00  0.00    -0.038 C  
BRANCH  28  29
HETATM   29  O   UNL     1      -7.870   8.033  70.724  1.00  0.00    -0.086 OA 
BRANCH  29  30
HETATM   30  C   UNL     1      -8.194   7.527  71.942  1.00  0.00    -0.106 C  
HETATM   31  O   UNL     1      -7.789   7.971  73.008  1.00  0.00    -0.127 OA 
BRANCH  30  32
HETATM   32  C   UNL     1      -9.164   6.333  71.816  1.00  0.00    -0.144 C  
HETATM   33  N   UNL     1      -9.666   6.268  70.434  1.00  0.00    -0.164 N  
HETATM   34  C   UNL     1     -10.849   7.100  70.085  1.00  0.00    -0.257 C  
HETATM   35  S   UNL     1     -11.487   7.530  71.718  1.00  0.00    -0.271 S  
HETATM   36  C   UNL     1     -11.403   5.884  69.339  1.00  0.00    -0.108 C  
HETATM   37  O   UNL     1     -11.126   8.907  72.007  1.00  0.00    -0.356 OA 
HETATM   38  O   UNL     1     -12.862   7.090  71.849  1.00  0.00    -0.324 OA 
HETATM   39  C   UNL     1     -10.412   6.449  72.723  1.00  0.00    -0.214 C  
HETATM   40  C   UNL     1     -10.189   5.129  69.900  1.00  0.00    -0.291 C  
HETATM   41  C   UNL     1     -10.178   7.055  74.114  1.00  0.00    -0.265 C  
HETATM   42  C   UNL     1     -11.096   5.084  72.948  1.00  0.00    -0.348 C  
HETATM   43  O   UNL     1      -9.868   3.978  70.063  1.00  0.00    -0.210 OA 
ENDBRANCH  30  32
ENDBRANCH  29  30
ENDBRANCH  28  29
ENDBRANCH  27  28
ENDBRANCH  25  27
ENDBRANCH   7  25
TORSDOF 9
ENDMDL
MODEL      160
REMARK 921   NORMALIZED FREE ENERGY PREDICTED BY IDOCK:   -5.34 KCAL/MOL
REMARK 922        TOTAL FREE ENERGY PREDICTED BY IDOCK:   -8.65 KCAL/MOL
REMARK 923 INTER-LIGAND FREE ENERGY PREDICTED BY IDOCK:   -7.91 KCAL/MOL
REMARK 924 INTRA-LIGAND FREE ENERGY PREDICTED BY IDOCK:   -0.74 KCAL/MOL
REMARK 927      BINDING AFFINITY PREDICTED BY RF-SCORE:    0.00 PKD
ROOT
HETATM    1  C   UNL     1      -9.264  10.559  69.096  1.00  0.00    -0.183 C  
HETATM    2  C   UNL     1     -10.456  10.935  68.191  1.00  0.00    -0.182 C  
HETATM    3  S   UNL     1     -10.772   9.478  67.087  1.00  0.00    -0.100 SA 
HETATM    4  C   UNL     1     -11.645  11.164  69.131  1.00  0.00    -0.393 C  
HETATM    5  C   UNL     1      -9.775  10.159  65.675  1.00  0.00    -0.259 C  
HETATM    6  C   UNL     1      -8.270   9.777  65.600  1.00  0.00    -0.130 C  
HETATM    7  C   UNL     1     -10.136  12.099  67.215  1.00  0.00    -0.202 C  
HETATM    8  C   UNL     1      -8.044  11.166  66.254  1.00  0.00    -0.142 C  
HETATM    9  O   UNL     1      -7.149  11.721  66.849  1.00  0.00    -0.140 OA 
HETATM   10  N   UNL     1      -9.360  11.502  66.120  1.00  0.00    -0.211 N  
ENDROOT
BRANCH   6  11
HETATM   11  N   UNL     1      -7.838   8.581  66.372  1.00  0.00    -0.097 N  
HETATM   12  C   UNL     1      -7.841   7.324  65.804  1.00  0.00    -0.108 C  
HETATM   13  O   UNL     1      -8.035   7.151  64.601  1.00  0.00    -0.122 OA 
HETATM   14  H   UNL     1      -7.534   8.691  67.339  1.00  0.00     0.000 HD 
BRANCH  12  15
HETATM   15  C   UNL     1      -7.619   6.155  66.790  1.00  0.00    -0.099 C  
HETATM   16  H2  UNL     1      -6.416   7.292  68.072  1.00  0.00     0.000 HD 
HETATM   17  N   UNL     1      -6.391   6.391  67.596  1.00  0.00    -0.038 NA 
HETATM   18  H1  UNL     1      -6.244   5.620  68.247  1.00  0.00     0.000 HD 
BRANCH  15  19
HETATM   19  C   UNL     1      -7.606   4.793  66.119  1.00  0.00    -0.090 A  
HETATM   20  C   UNL     1      -6.423   4.203  65.642  1.00  0.00    -0.036 A  
HETATM   21  C   UNL     1      -8.802   4.063  66.017  1.00  0.00    -0.120 A  
HETATM   22  C   UNL     1      -8.800   2.757  65.520  1.00  0.00    -0.132 A  
HETATM   23  C   UNL     1      -6.422   2.895  65.155  1.00  0.00    -0.035 A  
HETATM   24  C   UNL     1      -7.608   2.167  65.107  1.00  0.00    -0.068 A  
ENDBRANCH  15  19
ENDBRANCH  12  15
ENDBRANCH   6  11
BRANCH   7  25
HETATM   25  C   UNL     1     -11.368  12.760  66.556  1.00  0.00    -0.322 C  
HETATM   26  O   UNL     1     -12.453  12.942  67.100  1.00  0.00    -0.248 OA 
BRANCH  25  27
HETATM   27  O   UNL     1     -11.111  13.116  65.265  1.00  0.00    -0.279 OA 
BRANCH  27  28
HETATM   28  C   UNL     1     -11.181  14.521  65.007  1.00  0.00    -0.382 C  
BRANCH  28  29
HETATM   29  O   UNL     1     -10.027  15.188  65.508  1.00  0.00    -0.335 OA 
BRANCH  29  30
HETATM   30  C   UNL     1     -10.097  16.542  65.571  1.00  0.00    -0.174 C  
HETATM   31  O   UNL     1     -10.794  17.236  64.842  1.00  0.00    -0.773 OA 
BRANCH  30  32
HETATM   32  C   UNL     1      -9.204  17.101  66.701  1.00  0.00    -0.260 C  
HETATM   33  N   UNL     1      -8.561  15.978  67.401  1.00  0.00    -0.173 N  
HETATM   34  C   UNL     1      -9.318  15.319  68.500  1.00  0.00    -0.200 C  
HETATM   35  S   UNL     1     -10.610  16.535  68.832  1.00  0.00    -0.348 S  
HETATM   36  C   UNL     1      -8.022  15.334  69.314  1.00  0.00    -0.223 C  
HETATM   37  O   UNL     1     -11.853  16.056  68.251  1.00  0.00    -0.250 OA 
HETATM   38  O   UNL     1     -10.562  16.950  70.219  1.00  0.00    -0.024 OA 
HETATM   39  C   UNL     1      -9.988  17.889  67.777  1.00  0.00    -0.331 C  
HETATM   40  C   UNL     1      -7.430  16.132  68.144  1.00  0.00    -0.132 C  
HETATM   41  C   UNL     1     -11.145  18.758  67.265  1.00  0.00    -0.066 C  
HETATM   42  C   UNL     1      -9.070  18.820  68.599  1.00  0.00    -0.366 C  
HETATM   43  O   UNL     1      -6.473  16.844  67.960  1.00  0.00    -0.137 OA 
ENDBRANCH  30  32
ENDBRANCH  29  30
ENDBRANCH  28  29
ENDBRANCH  27  28
ENDBRANCH  25  27
ENDBRANCH   7  25
TORSDOF 9
ENDMDL
MODEL      161
REMARK 921   NORMALIZED FREE ENERGY PREDICTED BY IDOCK:   -5.33 KCAL/MOL
REMARK 922        TOTAL FREE ENERGY PREDICTED BY IDOCK:   -8.64 KCAL/MOL
REMARK 923 INTER-LIGAND FREE ENERGY PREDICTED BY IDOCK:   -7.75 KCAL/MOL
REMARK 924 INTRA-LIGAND FREE ENERGY PREDICTED BY IDOCK:   -0.89 KCAL/MOL
REMARK 927      BINDING AFFINITY PREDICTED BY RF-SCORE:    0.00 PKD
ROOT
HETATM    1  C   UNL     1     -10.394  14.534  65.168  1.00  0.00    -0.438 C  
HETATM    2  C   UNL     1     -10.641  13.066  64.761  1.00  0.00    -0.362 C  
HETATM    3  S   UNL     1     -11.781  12.341  66.033  1.00  0.00    -0.328 SA 
HETATM    4  C   UNL     1     -11.329  13.117  63.391  1.00  0.00    -0.090 C  
HETATM    5  C   UNL     1     -10.408  11.596  67.036  1.00  0.00    -0.217 C  
HETATM    6  C   UNL     1      -9.807  12.449  68.190  1.00  0.00    -0.213 C  
HETATM    7  C   UNL     1      -9.364  12.189  64.840  1.00  0.00     0.264 C  
HETATM    8  C   UNL     1      -8.695  12.778  67.159  1.00  0.00    -0.202 C  
HETATM    9  O   UNL     1      -7.835  13.619  67.034  1.00  0.00    -0.067 OA 
HETATM   10  N   UNL     1      -9.182  11.871  66.263  1.00  0.00    -0.222 N  
ENDROOT
BRANCH   6  11
HETATM   11  N   UNL     1     -10.631  13.582  68.691  1.00  0.00    -0.248 N  
HETATM   12  C   UNL     1     -11.696  13.371  69.540  1.00  0.00    -0.324 C  
HETATM   13  O   UNL     1     -11.915  12.274  70.053  1.00  0.00    -0.327 OA 
HETATM   14  H   UNL     1     -10.403  14.533  68.401  1.00  0.00     0.000 HD 
BRANCH  12  15
HETATM   15  C   UNL     1     -12.609  14.596  69.768  1.00  0.00    -0.121 C  
HETATM   16  H2  UNL     1     -12.313  15.343  67.835  1.00  0.00     0.000 HD 
HETATM   17  N   UNL     1     -12.274  15.673  68.798  1.00  0.00    -0.554 NA 
HETATM   18  H1  UNL     1     -12.876  16.482  68.949  1.00  0.00     0.000 HD 
BRANCH  15  19
HETATM   19  C   UNL     1     -12.600  15.098  71.201  1.00  0.00    -0.433 A  
HETATM   20  C   UNL     1     -13.251  14.412  72.241  1.00  0.00    -0.494 A  
HETATM   21  C   UNL     1     -11.871  16.256  71.523  1.00  0.00    -0.441 A  
HETATM   22  C   UNL     1     -11.740  16.670  72.851  1.00  0.00    -0.173 A  
HETATM   23  C   UNL     1     -13.111  14.822  73.567  1.00  0.00    -0.305 A  
HETATM   24  C   UNL     1     -12.344  15.942  73.873  1.00  0.00    -0.712 A  
ENDBRANCH  15  19
ENDBRANCH  12  15
ENDBRANCH   6  11
BRANCH   7  25
HETATM   25  C   UNL     1      -9.453  10.831  64.107  1.00  0.00    -0.268 C  
HETATM   26  O   UNL     1     -10.275   9.950  64.340  1.00  0.00     0.047 OA 
BRANCH  25  27
HETATM   27  O   UNL     1      -8.483  10.714  63.155  1.00  0.00    -0.169 OA 
BRANCH  27  28
HETATM   28  C   UNL     1      -7.333   9.968  63.563  1.00  0.00    -0.138 C  
BRANCH  28  29
HETATM   29  O   UNL     1      -7.700   8.905  64.436  1.00  0.00    -0.109 OA 
BRANCH  29  30
HETATM   30  C   UNL     1      -6.737   8.471  65.290  1.00  0.00    -0.063 C  
HETATM   31  O   UNL     1      -5.742   7.844  64.954  1.00  0.00    -0.040 OA 
BRANCH  30  32
HETATM   32  C   UNL     1      -7.042   8.895  66.744  1.00  0.00    -0.081 C  
HETATM   33  N   UNL     1      -5.830   8.713  67.559  1.00  0.00    -0.043 N  
HETATM   34  C   UNL     1      -5.579   7.366  68.140  1.00  0.00    -0.026 C  
HETATM   35  S   UNL     1      -7.197   6.586  67.961  1.00  0.00    -0.090 S  
HETATM   36  C   UNL     1      -5.206   8.071  69.446  1.00  0.00    -0.026 C  
HETATM   37  O   UNL     1      -7.140   5.656  66.846  1.00  0.00    -0.067 OA 
HETATM   38  O   UNL     1      -7.688   6.150  69.253  1.00  0.00    -0.095 OA 
HETATM   39  C   UNL     1      -8.146   8.048  67.419  1.00  0.00    -0.122 C  
HETATM   40  C   UNL     1      -5.639   9.364  68.740  1.00  0.00    -0.037 C  
HETATM   41  C   UNL     1      -9.319   7.634  66.520  1.00  0.00    -0.241 C  
HETATM   42  C   UNL     1      -8.761   8.763  68.641  1.00  0.00    -0.134 C  
HETATM   43  O   UNL     1      -5.948  10.484  69.067  1.00  0.00    -0.041 OA 
ENDBRANCH  30  32
ENDBRANCH  29  30
ENDBRANCH  28  29
ENDBRANCH  27  28
ENDBRANCH  25  27
ENDBRANCH   7  25
TORSDOF 9
ENDMDL
MODEL      162
REMARK 921   NORMALIZED FREE ENERGY PREDICTED BY IDOCK:   -5.30 KCAL/MOL
REMARK 922        TOTAL FREE ENERGY PREDICTED BY IDOCK:   -8.59 KCAL/MOL
REMARK 923 INTER-LIGAND FREE ENERGY PREDICTED BY IDOCK:   -8.87 KCAL/MOL
REMARK 924 INTRA-LIGAND FREE ENERGY PREDICTED BY IDOCK:    0.27 KCAL/MOL
REMARK 927      BINDING AFFINITY PREDICTED BY RF-SCORE:    0.00 PKD
ROOT
HETATM    1  C   UNL     1     -11.104  10.779  65.459  1.00  0.00     0.164 C  
HETATM    2  C   UNL     1     -10.239  12.046  65.616  1.00  0.00    -0.252 C  
HETATM    3  S   UNL     1      -8.599  11.496  66.289  1.00  0.00    -0.083 SA 
HETATM    4  C   UNL     1     -10.074  12.624  64.205  1.00  0.00    -0.292 C  
HETATM    5  C   UNL     1      -9.050  11.858  68.054  1.00  0.00    -0.189 C  
HETATM    6  C   UNL     1      -9.678  10.708  68.891  1.00  0.00    -0.202 C  
HETATM    7  C   UNL     1     -10.787  13.029  66.685  1.00  0.00    -0.275 C  
HETATM    8  C   UNL     1     -11.023  11.402  68.547  1.00  0.00    -0.221 C  
HETATM    9  O   UNL     1     -12.194  11.099  68.554  1.00  0.00    -0.600 OA 
HETATM   10  N   UNL     1     -10.389  12.471  67.984  1.00  0.00    -0.216 N  
ENDROOT
BRANCH   6  11
HETATM   11  N   UNL     1      -9.478   9.322  68.392  1.00  0.00    -0.138 N  
HETATM   12  C   UNL     1      -8.331   8.616  68.683  1.00  0.00    -0.122 C  
HETATM   13  O   UNL     1      -7.501   9.023  69.496  1.00  0.00    -0.072 OA 
HETATM   14  H   UNL     1     -10.204   8.885  67.823  1.00  0.00     0.000 HD 
BRANCH  12  15
HETATM   15  C   UNL     1      -8.147   7.301  67.892  1.00  0.00    -0.119 C  
HETATM   16  H2  UNL     1      -8.285   8.250  66.030  1.00  0.00     0.000 HD 
HETATM   17  N   UNL     1      -8.692   7.452  66.516  1.00  0.00    -0.134 NA 
HETATM   18  H1  UNL     1      -8.571   6.584  65.993  1.00  0.00     0.000 HD 
BRANCH  15  19
HETATM   19  C   UNL     1      -8.716   6.085  68.600  1.00  0.00    -0.110 A  
HETATM   20  C   UNL     1      -8.956   4.872  67.932  1.00  0.00    -0.120 A  
HETATM   21  C   UNL     1      -8.962   6.143  69.982  1.00  0.00    -0.148 A  
HETATM   22  C   UNL     1      -9.365   5.004  70.684  1.00  0.00    -0.216 A  
HETATM   23  C   UNL     1      -9.351   3.733  68.636  1.00  0.00    -0.226 A  
HETATM   24  C   UNL     1      -9.541   3.796  70.013  1.00  0.00    -0.259 A  
ENDBRANCH  15  19
ENDBRANCH  12  15
ENDBRANCH   6  11
BRANCH   7  25
HETATM   25  C   UNL     1     -10.193  14.455  66.631  1.00  0.00    -0.277 C  
HETATM   26  O   UNL     1      -9.457  14.886  65.749  1.00  0.00    -0.308 OA 
BRANCH  25  27
HETATM   27  O   UNL     1     -10.579  15.197  67.709  1.00  0.00    -0.254 OA 
BRANCH  27  28
HETATM   28  C   UNL     1      -9.706  15.106  68.839  1.00  0.00    -0.224 C  
BRANCH  28  29
HETATM   29  O   UNL     1      -9.467  16.393  69.401  1.00  0.00    -0.222 OA 
BRANCH  29  30
HETATM   30  C   UNL     1      -8.270  16.962  69.106  1.00  0.00    -0.066 C  
HETATM   31  O   UNL     1      -7.193  16.384  69.165  1.00  0.00    -0.205 OA 
BRANCH  30  32
HETATM   32  C   UNL     1      -8.440  18.430  68.655  1.00  0.00    -0.295 C  
HETATM   33  N   UNL     1      -9.622  18.529  67.783  1.00  0.00    -0.284 N  
HETATM   34  C   UNL     1      -9.442  18.239  66.334  1.00  0.00    -0.286 C  
HETATM   35  S   UNL     1      -7.647  18.328  66.165  1.00  0.00    -0.208 S  
HETATM   36  C   UNL     1     -10.302  19.473  66.048  1.00  0.00    -0.604 C  
HETATM   37  O   UNL     1      -7.125  16.975  66.073  1.00  0.00    -0.200 OA 
HETATM   38  O   UNL     1      -7.286  19.321  65.174  1.00  0.00    -0.359 OA 
HETATM   39  C   UNL     1      -7.248  18.967  67.829  1.00  0.00    -0.232 C  
HETATM   40  C   UNL     1     -10.273  19.705  67.566  1.00  0.00    -0.432 C  
HETATM   41  C   UNL     1      -5.856  18.497  68.274  1.00  0.00    -0.193 C  
HETATM   42  C   UNL     1      -7.205  20.510  67.807  1.00  0.00    -0.321 C  
HETATM   43  O   UNL     1     -10.488  20.623  68.320  1.00  0.00    -0.068 OA 
ENDBRANCH  30  32
ENDBRANCH  29  30
ENDBRANCH  28  29
ENDBRANCH  27  28
ENDBRANCH  25  27
ENDBRANCH   7  25
TORSDOF 9
ENDMDL
MODEL      163
REMARK 921   NORMALIZED FREE ENERGY PREDICTED BY IDOCK:   -5.28 KCAL/MOL
REMARK 922        TOTAL FREE ENERGY PREDICTED BY IDOCK:   -8.57 KCAL/MOL
REMARK 923 INTER-LIGAND FREE ENERGY PREDICTED BY IDOCK:   -8.08 KCAL/MOL
REMARK 924 INTRA-LIGAND FREE ENERGY PREDICTED BY IDOCK:   -0.49 KCAL/MOL
REMARK 927      BINDING AFFINITY PREDICTED BY RF-SCORE:    0.00 PKD
ROOT
HETATM    1  C   UNL     1     -12.066  12.365  65.545  1.00  0.00    -0.417 C  
HETATM    2  C   UNL     1     -11.533  13.536  66.396  1.00  0.00    -0.331 C  
HETATM    3  S   UNL     1      -9.681  13.436  66.347  1.00  0.00    -0.261 SA 
HETATM    4  C   UNL     1     -12.020  14.816  65.705  1.00  0.00    -0.164 C  
HETATM    5  C   UNL     1      -9.554  12.509  67.951  1.00  0.00    -0.206 C  
HETATM    6  C   UNL     1      -9.551  10.955  67.892  1.00  0.00    -0.166 C  
HETATM    7  C   UNL     1     -11.890  13.408  67.900  1.00  0.00    -0.357 C  
HETATM    8  C   UNL     1     -11.055  11.094  68.246  1.00  0.00    -0.251 C  
HETATM    9  O   UNL     1     -12.039  10.392  68.187  1.00  0.00    -0.128 OA 
HETATM   10  N   UNL     1     -10.938  12.437  68.456  1.00  0.00    -0.232 N  
ENDROOT
BRANCH   6  11
HETATM   11  N   UNL     1      -9.212  10.330  66.586  1.00  0.00    -0.153 N  
HETATM   12  C   UNL     1      -7.926   9.923  66.301  1.00  0.00    -0.108 C  
HETATM   13  O   UNL     1      -7.043   9.899  67.157  1.00  0.00    -0.084 OA 
HETATM   14  H   UNL     1      -9.944  10.201  65.887  1.00  0.00     0.000 HD 
BRANCH  12  15
HETATM   15  C   UNL     1      -7.669   9.534  64.827  1.00  0.00    -0.119 C  
HETATM   16  H2  UNL     1      -9.220  10.740  64.102  1.00  0.00     0.000 HD 
HETATM   17  N   UNL     1      -8.890   9.780  64.013  1.00  0.00    -0.216 NA 
HETATM   18  H1  UNL     1      -8.720   9.523  63.040  1.00  0.00     0.000 HD 
BRANCH  15  19
HETATM   19  C   UNL     1      -7.147   8.119  64.658  1.00  0.00    -0.080 A  
HETATM   20  C   UNL     1      -7.971   6.991  64.813  1.00  0.00    -0.122 A  
HETATM   21  C   UNL     1      -5.810   7.917  64.276  1.00  0.00    -0.052 A  
HETATM   22  C   UNL     1      -5.335   6.635  63.990  1.00  0.00    -0.027 A  
HETATM   23  C   UNL     1      -7.497   5.712  64.518  1.00  0.00    -0.072 A  
HETATM   24  C   UNL     1      -6.184   5.535  64.093  1.00  0.00    -0.022 A  
ENDBRANCH  15  19
ENDBRANCH  12  15
ENDBRANCH   6  11
BRANCH   7  25
HETATM   25  C   UNL     1     -11.715  14.701  68.729  1.00  0.00    -0.324 C  
HETATM   26  O   UNL     1     -12.330  15.748  68.551  1.00  0.00     0.052 OA 
BRANCH  25  27
HETATM   27  O   UNL     1     -10.767  14.548  69.698  1.00  0.00    -0.204 OA 
BRANCH  27  28
HETATM   28  C   UNL     1      -9.963  15.707  69.936  1.00  0.00    -0.228 C  
BRANCH  28  29
HETATM   29  O   UNL     1      -9.238  16.072  68.765  1.00  0.00    -0.201 OA 
BRANCH  29  30
HETATM   30  C   UNL     1      -9.152  17.401  68.504  1.00  0.00    -0.273 C  
HETATM   31  O   UNL     1     -10.105  18.117  68.227  1.00  0.00    -0.345 OA 
BRANCH  30  32
HETATM   32  C   UNL     1      -7.698  17.907  68.626  1.00  0.00    -0.289 C  
HETATM   33  N   UNL     1      -7.640  19.310  68.184  1.00  0.00    -0.279 N  
HETATM   34  C   UNL     1      -7.474  19.573  66.729  1.00  0.00    -0.241 C  
HETATM   35  S   UNL     1      -6.930  17.960  66.127  1.00  0.00    -0.315 S  
HETATM   36  C   UNL     1      -6.443  20.639  67.106  1.00  0.00    -0.327 C  
HETATM   37  O   UNL     1      -8.048  17.318  65.457  1.00  0.00    -0.269 OA 
HETATM   38  O   UNL     1      -5.649  18.081  65.461  1.00  0.00    -0.176 OA 
HETATM   39  C   UNL     1      -6.695  17.133  67.737  1.00  0.00    -0.149 C  
HETATM   40  C   UNL     1      -6.633  20.150  68.549  1.00  0.00    -0.302 C  
HETATM   41  C   UNL     1      -6.934  15.622  67.614  1.00  0.00    -0.197 C  
HETATM   42  C   UNL     1      -5.238  17.310  68.216  1.00  0.00    -0.132 C  
HETATM   43  O   UNL     1      -6.031  20.231  69.593  1.00  0.00    -0.310 OA 
ENDBRANCH  30  32
ENDBRANCH  29  30
ENDBRANCH  28  29
ENDBRANCH  27  28
ENDBRANCH  25  27
ENDBRANCH   7  25
TORSDOF 9
ENDMDL
MODEL      164
REMARK 921   NORMALIZED FREE ENERGY PREDICTED BY IDOCK:   -5.28 KCAL/MOL
REMARK 922        TOTAL FREE ENERGY PREDICTED BY IDOCK:   -8.57 KCAL/MOL
REMARK 923 INTER-LIGAND FREE ENERGY PREDICTED BY IDOCK:   -7.88 KCAL/MOL
REMARK 924 INTRA-LIGAND FREE ENERGY PREDICTED BY IDOCK:   -0.69 KCAL/MOL
REMARK 927      BINDING AFFINITY PREDICTED BY RF-SCORE:    0.00 PKD
ROOT
HETATM    1  C   UNL     1      -9.271   8.976  71.320  1.00  0.00    -0.314 C  
HETATM    2  C   UNL     1     -10.300   9.418  70.259  1.00  0.00    -0.245 C  
HETATM    3  S   UNL     1     -10.875   7.880  69.396  1.00  0.00    -0.032 SA 
HETATM    4  C   UNL     1     -11.456  10.062  71.034  1.00  0.00    -0.463 C  
HETATM    5  C   UNL     1      -9.680   8.063  67.986  1.00  0.00    -0.160 C  
HETATM    6  C   UNL     1      -8.295   7.366  68.115  1.00  0.00    -0.124 C  
HETATM    7  C   UNL     1      -9.679  10.287  69.133  1.00  0.00    -0.217 C  
HETATM    8  C   UNL     1      -7.800   8.774  68.539  1.00  0.00    -0.104 C  
HETATM    9  O   UNL     1      -6.837   9.231  69.111  1.00  0.00    -0.049 OA 
HETATM   10  N   UNL     1      -8.999   9.348  68.231  1.00  0.00    -0.128 N  
ENDROOT
BRANCH   6  11
HETATM   11  N   UNL     1      -8.181   6.272  69.115  1.00  0.00    -0.113 N  
HETATM   12  C   UNL     1      -6.997   5.588  69.294  1.00  0.00    -0.063 C  
HETATM   13  O   UNL     1      -5.946   5.952  68.768  1.00  0.00    -0.018 OA 
HETATM   14  H   UNL     1      -8.993   6.022  69.679  1.00  0.00     0.000 HD 
BRANCH  12  15
HETATM   15  C   UNL     1      -7.095   4.320  70.171  1.00  0.00    -0.042 C  
HETATM   16  H2  UNL     1      -7.701   3.105  68.577  1.00  0.00     0.000 HD 
HETATM   17  N   UNL     1      -7.992   3.321  69.530  1.00  0.00    -0.049 NA 
HETATM   18  H1  UNL     1      -8.057   2.484  70.108  1.00  0.00     0.000 HD 
BRANCH  15  19
HETATM   19  C   UNL     1      -7.497   4.607  71.607  1.00  0.00    -0.074 A  
HETATM   20  C   UNL     1      -7.111   5.782  72.274  1.00  0.00    -0.084 A  
HETATM   21  C   UNL     1      -8.333   3.702  72.284  1.00  0.00    -0.085 A  
HETATM   22  C   UNL     1      -8.822   3.999  73.559  1.00  0.00    -0.093 A  
HETATM   23  C   UNL     1      -7.607   6.081  73.543  1.00  0.00    -0.096 A  
HETATM   24  C   UNL     1      -8.474   5.197  74.179  1.00  0.00    -0.108 A  
ENDBRANCH  15  19
ENDBRANCH  12  15
ENDBRANCH   6  11
BRANCH   7  25
HETATM   25  C   UNL     1     -10.697  11.057  68.261  1.00  0.00    -0.196 C  
HETATM   26  O   UNL     1     -11.812  10.651  67.943  1.00  0.00    -0.485 OA 
BRANCH  25  27
HETATM   27  O   UNL     1     -10.201  12.263  67.863  1.00  0.00    -0.191 OA 
BRANCH  27  28
HETATM   28  C   UNL     1     -10.618  12.680  66.560  1.00  0.00    -0.253 C  
BRANCH  28  29
HETATM   29  O   UNL     1      -9.675  13.584  65.990  1.00  0.00    -0.275 OA 
BRANCH  29  30
HETATM   30  C   UNL     1      -9.954  14.906  66.129  1.00  0.00    -0.303 C  
HETATM   31  O   UNL     1     -10.372  15.625  65.232  1.00  0.00    -0.374 OA 
BRANCH  30  32
HETATM   32  C   UNL     1      -9.701  15.385  67.575  1.00  0.00    -0.208 C  
HETATM   33  N   UNL     1     -10.440  16.639  67.799  1.00  0.00    -0.307 N  
HETATM   34  C   UNL     1      -9.783  17.913  67.399  1.00  0.00    -0.288 C  
HETATM   35  S   UNL     1      -8.066  17.392  67.203  1.00  0.00    -0.217 S  
HETATM   36  C   UNL     1     -10.261  18.501  68.728  1.00  0.00    -0.326 C  
HETATM   37  O   UNL     1      -7.776  17.282  65.784  1.00  0.00    -0.470 OA 
HETATM   38  O   UNL     1      -7.205  18.173  68.068  1.00  0.00    -0.218 OA 
HETATM   39  C   UNL     1      -8.216  15.701  67.874  1.00  0.00    -0.148 C  
HETATM   40  C   UNL     1     -10.761  17.084  69.045  1.00  0.00    -0.271 C  
HETATM   41  C   UNL     1      -7.187  14.764  67.227  1.00  0.00    -0.114 C  
HETATM   42  C   UNL     1      -7.916  15.703  69.389  1.00  0.00    -0.226 C  
HETATM   43  O   UNL     1     -11.089  16.467  70.029  1.00  0.00    -0.350 OA 
ENDBRANCH  30  32
ENDBRANCH  29  30
ENDBRANCH  28  29
ENDBRANCH  27  28
ENDBRANCH  25  27
ENDBRANCH   7  25
TORSDOF 9
ENDMDL
MODEL      165
REMARK 921   NORMALIZED FREE ENERGY PREDICTED BY IDOCK:   -5.28 KCAL/MOL
REMARK 922        TOTAL FREE ENERGY PREDICTED BY IDOCK:   -8.57 KCAL/MOL
REMARK 923 INTER-LIGAND FREE ENERGY PREDICTED BY IDOCK:   -7.46 KCAL/MOL
REMARK 924 INTRA-LIGAND FREE ENERGY PREDICTED BY IDOCK:   -1.11 KCAL/MOL
REMARK 927      BINDING AFFINITY PREDICTED BY RF-SCORE:    0.00 PKD
ROOT
HETATM    1  C   UNL     1     -10.527   8.268  68.769  1.00  0.00    -0.200 C  
HETATM    2  C   UNL     1      -9.101   8.685  69.186  1.00  0.00    -0.142 C  
HETATM    3  S   UNL     1      -8.660  10.176  68.174  1.00  0.00    -0.120 SA 
HETATM    4  C   UNL     1      -9.184   9.051  70.673  1.00  0.00    -0.279 C  
HETATM    5  C   UNL     1      -7.754   9.199  66.880  1.00  0.00    -0.098 C  
HETATM    6  C   UNL     1      -8.561   8.709  65.645  1.00  0.00    -0.168 C  
HETATM    7  C   UNL     1      -8.025   7.630  68.812  1.00  0.00    -0.126 C  
HETATM    8  C   UNL     1      -8.632   7.365  66.418  1.00  0.00    -0.134 C  
HETATM    9  O   UNL     1      -9.305   6.361  66.374  1.00  0.00    -0.159 OA 
HETATM   10  N   UNL     1      -7.769   7.810  67.377  1.00  0.00    -0.111 N  
ENDROOT
BRANCH   6  11
HETATM   11  N   UNL     1      -9.847   9.401  65.360  1.00  0.00    -0.445 N  
HETATM   12  C   UNL     1      -9.912  10.446  64.464  1.00  0.00    -0.331 C  
HETATM   13  O   UNL     1      -8.964  10.747  63.739  1.00  0.00    -0.184 OA 
HETATM   14  H   UNL     1     -10.696   9.097  65.837  1.00  0.00     0.000 HD 
BRANCH  12  15
HETATM   15  C   UNL     1     -11.244  11.230  64.463  1.00  0.00    -0.106 C  
HETATM   16  H2  UNL     1     -11.819  10.508  62.583  1.00  0.00     0.000 HD 
HETATM   17  N   UNL     1     -11.737  11.400  63.069  1.00  0.00    -0.866 NA 
HETATM   18  H1  UNL     1     -12.616  11.918  63.069  1.00  0.00     0.000 HD 
BRANCH  15  19
HETATM   19  C   UNL     1     -11.167  12.553  65.205  1.00  0.00    -0.342 A  
HETATM   20  C   UNL     1     -10.308  13.590  64.803  1.00  0.00    -0.405 A  
HETATM   21  C   UNL     1     -12.021  12.781  66.298  1.00  0.00    -0.460 A  
HETATM   22  C   UNL     1     -12.063  14.031  66.921  1.00  0.00    -0.465 A  
HETATM   23  C   UNL     1     -10.358  14.840  65.421  1.00  0.00    -0.410 A  
HETATM   24  C   UNL     1     -11.245  15.065  66.469  1.00  0.00    -0.312 A  
ENDBRANCH  15  19
ENDBRANCH  12  15
ENDBRANCH   6  11
BRANCH   7  25
HETATM   25  C   UNL     1      -6.660   7.808  69.516  1.00  0.00    -0.039 C  
HETATM   26  O   UNL     1      -6.431   8.586  70.437  1.00  0.00    -0.035 OA 
BRANCH  25  27
HETATM   27  O   UNL     1      -5.711   6.991  68.976  1.00  0.00    -0.017 OA 
BRANCH  27  28
HETATM   28  C   UNL     1      -5.429   5.815  69.741  1.00  0.00    -0.005 C  
BRANCH  28  29
HETATM   29  O   UNL     1      -6.425   4.819  69.529  1.00  0.00    -0.033 OA 
BRANCH  29  30
HETATM   30  C   UNL     1      -6.815   4.119  70.625  1.00  0.00    -0.033 C  
HETATM   31  O   UNL     1      -6.361   3.030  70.950  1.00  0.00    -0.022 OA 
BRANCH  30  32
HETATM   32  C   UNL     1      -7.888   4.883  71.430  1.00  0.00    -0.104 C  
HETATM   33  N   UNL     1      -7.754   4.538  72.855  1.00  0.00    -0.086 N  
HETATM   34  C   UNL     1      -8.445   3.313  73.341  1.00  0.00    -0.074 C  
HETATM   35  S   UNL     1      -9.599   2.986  71.991  1.00  0.00    -0.156 S  
HETATM   36  C   UNL     1      -8.895   4.128  74.555  1.00  0.00    -0.100 C  
HETATM   37  O   UNL     1      -9.085   1.879  71.203  1.00  0.00    -0.069 OA 
HETATM   38  O   UNL     1     -10.959   2.961  72.490  1.00  0.00     0.094 OA 
HETATM   39  C   UNL     1      -9.338   4.519  71.033  1.00  0.00    -0.150 C  
HETATM   40  C   UNL     1      -8.249   5.327  73.848  1.00  0.00    -0.111 C  
HETATM   41  C   UNL     1      -9.584   4.276  69.538  1.00  0.00    -0.274 C  
HETATM   42  C   UNL     1     -10.350   5.598  71.475  1.00  0.00    -0.279 C  
HETATM   43  O   UNL     1      -8.305   6.530  73.926  1.00  0.00    -0.110 OA 
ENDBRANCH  30  32
ENDBRANCH  29  30
ENDBRANCH  28  29
ENDBRANCH  27  28
ENDBRANCH  25  27
ENDBRANCH   7  25
TORSDOF 9
ENDMDL
MODEL      166
REMARK 921   NORMALIZED FREE ENERGY PREDICTED BY IDOCK:   -5.27 KCAL/MOL
REMARK 922        TOTAL FREE ENERGY PREDICTED BY IDOCK:   -8.55 KCAL/MOL
REMARK 923 INTER-LIGAND FREE ENERGY PREDICTED BY IDOCK:   -7.37 KCAL/MOL
REMARK 924 INTRA-LIGAND FREE ENERGY PREDICTED BY IDOCK:   -1.19 KCAL/MOL
REMARK 927      BINDING AFFINITY PREDICTED BY RF-SCORE:    0.00 PKD
ROOT
HETATM    1  C   UNL     1      -8.316   6.637  68.402  1.00  0.00    -0.122 C  
HETATM    2  C   UNL     1      -7.433   7.889  68.217  1.00  0.00    -0.104 C  
HETATM    3  S   UNL     1      -6.926   8.443  69.914  1.00  0.00    -0.044 SA 
HETATM    4  C   UNL     1      -6.210   7.430  67.415  1.00  0.00    -0.047 C  
HETATM    5  C   UNL     1      -8.286   9.700  70.057  1.00  0.00    -0.184 C  
HETATM    6  C   UNL     1      -9.626   9.247  70.703  1.00  0.00    -0.273 C  
HETATM    7  C   UNL     1      -8.207   9.099  67.629  1.00  0.00    -0.108 C  
HETATM    8  C   UNL     1     -10.103   9.097  69.234  1.00  0.00    -0.194 C  
HETATM    9  O   UNL     1     -11.003   8.530  68.657  1.00  0.00    -0.010 OA 
HETATM   10  N   UNL     1      -8.965   9.673  68.749  1.00  0.00    -0.131 N  
ENDROOT
BRANCH   6  11
HETATM   11  N   UNL     1      -9.591   8.017  71.539  1.00  0.00    -0.157 N  
HETATM   12  C   UNL     1     -10.658   7.665  72.337  1.00  0.00    -0.260 C  
HETATM   13  O   UNL     1     -11.741   8.246  72.275  1.00  0.00    -0.338 OA 
HETATM   14  H   UNL     1      -8.762   7.422  71.520  1.00  0.00     0.000 HD 
BRANCH  12  15
HETATM   15  C   UNL     1     -10.383   6.518  73.336  1.00  0.00    -0.260 C  
HETATM   16  H2  UNL     1     -10.246   7.806  74.981  1.00  0.00     0.000 HD 
HETATM   17  N   UNL     1      -9.714   7.048  74.554  1.00  0.00    -0.455 NA 
HETATM   18  H1  UNL     1      -9.533   6.291  75.213  1.00  0.00     0.000 HD 
BRANCH  15  19
HETATM   19  C   UNL     1      -9.618   5.357  72.726  1.00  0.00    -0.165 A  
HETATM   20  C   UNL     1      -8.280   5.082  73.059  1.00  0.00    -0.105 A  
HETATM   21  C   UNL     1     -10.275   4.485  71.841  1.00  0.00    -0.241 A  
HETATM   22  C   UNL     1      -9.636   3.338  71.363  1.00  0.00    -0.230 A  
HETATM   23  C   UNL     1      -7.647   3.931  72.588  1.00  0.00    -0.072 A  
HETATM   24  C   UNL     1      -8.330   3.052  71.752  1.00  0.00    -0.073 A  
ENDBRANCH  15  19
ENDBRANCH  12  15
ENDBRANCH   6  11
BRANCH   7  25
HETATM   25  C   UNL     1      -7.322  10.241  67.082  1.00  0.00    -0.091 C  
HETATM   26  O   UNL     1      -6.621  10.986  67.761  1.00  0.00    -0.062 OA 
BRANCH  25  27
HETATM   27  O   UNL     1      -7.419  10.341  65.725  1.00  0.00    -0.131 OA 
BRANCH  27  28
HETATM   28  C   UNL     1      -8.757  10.413  65.225  1.00  0.00    -0.179 C  
BRANCH  28  29
HETATM   29  O   UNL     1      -9.077  11.740  64.820  1.00  0.00     0.085 OA 
BRANCH  29  30
HETATM   30  C   UNL     1     -10.208  12.272  65.350  1.00  0.00    -0.270 C  
HETATM   31  O   UNL     1     -11.295  11.710  65.375  1.00  0.00    -0.258 OA 
BRANCH  30  32
HETATM   32  C   UNL     1      -9.946  13.672  65.948  1.00  0.00    -0.291 C  
HETATM   33  N   UNL     1      -8.807  13.589  66.877  1.00  0.00    -0.214 N  
HETATM   34  C   UNL     1      -9.083  13.182  68.281  1.00  0.00    -0.181 C  
HETATM   35  S   UNL     1     -10.872  13.405  68.380  1.00  0.00    -0.273 S  
HETATM   36  C   UNL     1      -8.144  14.307  68.723  1.00  0.00    -0.109 C  
HETATM   37  O   UNL     1     -11.503  12.098  68.317  1.00  0.00    -0.259 OA 
HETATM   38  O   UNL     1     -11.203  14.328  69.447  1.00  0.00    -0.263 OA 
HETATM   39  C   UNL     1     -11.133  14.227  66.771  1.00  0.00    -0.314 C  
HETATM   40  C   UNL     1      -8.077  14.682  67.236  1.00  0.00    -0.206 C  
HETATM   41  C   UNL     1     -12.533  13.920  66.222  1.00  0.00    -0.454 C  
HETATM   42  C   UNL     1     -11.055  15.760  66.941  1.00  0.00    -0.133 C  
HETATM   43  O   UNL     1      -7.751  15.645  66.585  1.00  0.00    -0.193 OA 
ENDBRANCH  30  32
ENDBRANCH  29  30
ENDBRANCH  28  29
ENDBRANCH  27  28
ENDBRANCH  25  27
ENDBRANCH   7  25
TORSDOF 9
ENDMDL
MODEL      167
REMARK 921   NORMALIZED FREE ENERGY PREDICTED BY IDOCK:   -5.27 KCAL/MOL
REMARK 922        TOTAL FREE ENERGY PREDICTED BY IDOCK:   -8.55 KCAL/MOL
REMARK 923 INTER-LIGAND FREE ENERGY PREDICTED BY IDOCK:   -7.66 KCAL/MOL
REMARK 924 INTRA-LIGAND FREE ENERGY PREDICTED BY IDOCK:   -0.89 KCAL/MOL
REMARK 927      BINDING AFFINITY PREDICTED BY RF-SCORE:    0.00 PKD
ROOT
HETATM    1  C   UNL     1      -7.407  10.653  65.686  1.00  0.00    -0.087 C  
HETATM    2  C   UNL     1      -7.920   9.210  65.501  1.00  0.00    -0.104 C  
HETATM    3  S   UNL     1      -9.766   9.271  65.671  1.00  0.00    -0.138 SA 
HETATM    4  C   UNL     1      -7.526   8.801  64.076  1.00  0.00    -0.116 C  
HETATM    5  C   UNL     1      -9.751   8.796  67.467  1.00  0.00    -0.167 C  
HETATM    6  C   UNL     1      -9.705   9.940  68.519  1.00  0.00    -0.154 C  
HETATM    7  C   UNL     1      -7.457   8.250  66.628  1.00  0.00    -0.086 C  
HETATM    8  C   UNL     1      -8.186   9.628  68.562  1.00  0.00    -0.105 C  
HETATM    9  O   UNL     1      -7.184  10.191  68.942  1.00  0.00    -0.072 OA 
HETATM   10  N   UNL     1      -8.335   8.524  67.774  1.00  0.00    -0.128 N  
ENDROOT
BRANCH   6  11
HETATM   11  N   UNL     1     -10.111  11.295  68.061  1.00  0.00    -0.173 N  
HETATM   12  C   UNL     1     -11.431  11.693  68.088  1.00  0.00    -0.313 C  
HETATM   13  O   UNL     1     -12.304  11.024  68.639  1.00  0.00    -0.539 OA 
HETATM   14  H   UNL     1      -9.400  11.943  67.720  1.00  0.00     0.000 HD 
BRANCH  12  15
HETATM   15  C   UNL     1     -11.735  13.015  67.348  1.00  0.00    -0.374 C  
HETATM   16  H2  UNL     1     -11.210  12.241  65.475  1.00  0.00     0.000 HD 
HETATM   17  N   UNL     1     -11.007  13.057  66.052  1.00  0.00    -0.274 NA 
HETATM   18  H1  UNL     1     -11.207  13.929  65.564  1.00  0.00     0.000 HD 
BRANCH  15  19
HETATM   19  C   UNL     1     -11.473  14.252  68.188  1.00  0.00    -0.336 A  
HETATM   20  C   UNL     1     -12.150  14.497  69.395  1.00  0.00    -0.328 A  
HETATM   21  C   UNL     1     -10.480  15.162  67.786  1.00  0.00    -0.247 A  
HETATM   22  C   UNL     1     -10.129  16.241  68.602  1.00  0.00    -0.233 A  
HETATM   23  C   UNL     1     -11.791  15.570  70.212  1.00  0.00    -0.381 A  
HETATM   24  C   UNL     1     -10.771  16.433  69.823  1.00  0.00    -0.324 A  
ENDBRANCH  15  19
ENDBRANCH  12  15
ENDBRANCH   6  11
BRANCH   7  25
HETATM   25  C   UNL     1      -7.619   6.745  66.316  1.00  0.00    -0.086 C  
HETATM   26  O   UNL     1      -8.448   6.262  65.551  1.00  0.00    -0.147 OA 
BRANCH  25  27
HETATM   27  O   UNL     1      -6.721   5.992  67.014  1.00  0.00    -0.054 OA 
BRANCH  27  28
HETATM   28  C   UNL     1      -7.302   5.121  67.990  1.00  0.00    -0.075 C  
BRANCH  28  29
HETATM   29  O   UNL     1      -6.759   5.371  69.282  1.00  0.00    -0.048 OA 
BRANCH  29  30
HETATM   30  C   UNL     1      -7.570   5.097  70.336  1.00  0.00    -0.070 C  
HETATM   31  O   UNL     1      -7.679   3.997  70.861  1.00  0.00    -0.050 OA 
BRANCH  30  32
HETATM   32  C   UNL     1      -8.322   6.360  70.811  1.00  0.00    -0.126 C  
HETATM   33  N   UNL     1      -7.941   6.648  72.204  1.00  0.00    -0.098 N  
HETATM   34  C   UNL     1      -8.687   5.952  73.287  1.00  0.00    -0.117 C  
HETATM   35  S   UNL     1     -10.137   5.345  72.397  1.00  0.00    -0.188 S  
HETATM   36  C   UNL     1      -8.743   7.293  74.021  1.00  0.00    -0.246 C  
HETATM   37  O   UNL     1      -9.973   3.920  72.166  1.00  0.00    -0.162 OA 
HETATM   38  O   UNL     1     -11.348   5.853  73.010  1.00  0.00    -0.247 OA 
HETATM   39  C   UNL     1      -9.861   6.203  70.810  1.00  0.00    -0.186 C  
HETATM   40  C   UNL     1      -8.090   7.881  72.762  1.00  0.00    -0.136 C  
HETATM   41  C   UNL     1     -10.453   5.398  69.644  1.00  0.00    -0.361 C  
HETATM   42  C   UNL     1     -10.584   7.567  70.812  1.00  0.00    -0.227 C  
HETATM   43  O   UNL     1      -7.950   8.975  72.273  1.00  0.00    -0.352 OA 
ENDBRANCH  30  32
ENDBRANCH  29  30
ENDBRANCH  28  29
ENDBRANCH  27  28
ENDBRANCH  25  27
ENDBRANCH   7  25
TORSDOF 9
ENDMDL
MODEL      168
REMARK 921   NORMALIZED FREE ENERGY PREDICTED BY IDOCK:   -5.25 KCAL/MOL
REMARK 922        TOTAL FREE ENERGY PREDICTED BY IDOCK:   -8.51 KCAL/MOL
REMARK 923 INTER-LIGAND FREE ENERGY PREDICTED BY IDOCK:   -8.55 KCAL/MOL
REMARK 924 INTRA-LIGAND FREE ENERGY PREDICTED BY IDOCK:    0.03 KCAL/MOL
REMARK 927      BINDING AFFINITY PREDICTED BY RF-SCORE:    0.00 PKD
ROOT
HETATM    1  C   UNL     1     -10.959   6.447  68.504  1.00  0.00    -0.396 C  
HETATM    2  C   UNL     1     -10.210   7.794  68.579  1.00  0.00    -0.204 C  
HETATM    3  S   UNL     1      -8.804   7.561  69.766  1.00  0.00    -0.140 SA 
HETATM    4  C   UNL     1      -9.680   8.062  67.165  1.00  0.00    -0.255 C  
HETATM    5  C   UNL     1      -9.735   8.255  71.216  1.00  0.00    -0.176 C  
HETATM    6  C   UNL     1     -10.535   7.262  72.106  1.00  0.00    -0.203 C  
HETATM    7  C   UNL     1     -11.063   8.930  69.204  1.00  0.00     0.137 C  
HETATM    8  C   UNL     1     -11.753   7.735  71.269  1.00  0.00    -0.288 C  
HETATM    9  O   UNL     1     -12.870   7.332  71.040  1.00  0.00    -0.315 OA 
HETATM   10  N   UNL     1     -11.022   8.710  70.656  1.00  0.00    -0.235 N  
ENDROOT
BRANCH   6  11
HETATM   11  N   UNL     1     -10.161   5.825  72.018  1.00  0.00    -0.196 N  
HETATM   12  C   UNL     1      -9.175   5.292  72.820  1.00  0.00    -0.133 C  
HETATM   13  O   UNL     1      -8.678   5.924  73.751  1.00  0.00    -0.124 OA 
HETATM   14  H   UNL     1     -10.644   5.222  71.351  1.00  0.00     0.000 HD 
BRANCH  12  15
HETATM   15  C   UNL     1      -8.719   3.865  72.442  1.00  0.00    -0.105 C  
HETATM   16  H2  UNL     1      -7.661   3.588  74.228  1.00  0.00     0.000 HD 
HETATM   17  N   UNL     1      -7.511   3.489  73.225  1.00  0.00    -0.056 NA 
HETATM   18  H1  UNL     1      -7.209   2.548  72.975  1.00  0.00     0.000 HD 
BRANCH  15  19
HETATM   19  C   UNL     1      -8.513   3.671  70.950  1.00  0.00    -0.101 A  
HETATM   20  C   UNL     1      -9.484   3.071  70.130  1.00  0.00    -0.206 A  
HETATM   21  C   UNL     1      -7.340   4.157  70.346  1.00  0.00    -0.045 A  
HETATM   22  C   UNL     1      -7.179   4.107  68.959  1.00  0.00    -0.054 A  
HETATM   23  C   UNL     1      -9.325   3.030  68.745  1.00  0.00    -0.235 A  
HETATM   24  C   UNL     1      -8.179   3.561  68.158  1.00  0.00    -0.091 A  
ENDBRANCH  15  19
ENDBRANCH  12  15
ENDBRANCH   6  11
BRANCH   7  25
HETATM   25  C   UNL     1     -10.521  10.359  68.973  1.00  0.00    -0.219 C  
HETATM   26  O   UNL     1     -10.968  11.381  69.487  1.00  0.00    -0.232 OA 
BRANCH  25  27
HETATM   27  O   UNL     1      -9.473  10.360  68.100  1.00  0.00    -0.141 OA 
BRANCH  27  28
HETATM   28  C   UNL     1      -8.456  11.324  68.389  1.00  0.00    -0.153 C  
BRANCH  28  29
HETATM   29  O   UNL     1      -8.156  12.106  67.237  1.00  0.00    -0.161 OA 
BRANCH  29  30
HETATM   30  C   UNL     1      -8.293  13.450  67.374  1.00  0.00    -0.190 C  
HETATM   31  O   UNL     1      -7.361  14.240  67.441  1.00  0.00    -0.181 OA 
BRANCH  30  32
HETATM   32  C   UNL     1      -9.780  13.864  67.405  1.00  0.00    -0.234 C  
HETATM   33  N   UNL     1     -10.350  13.703  66.058  1.00  0.00    -0.297 N  
HETATM   34  C   UNL     1     -10.190  14.828  65.096  1.00  0.00    -0.377 C  
HETATM   35  S   UNL     1      -9.724  16.182  66.195  1.00  0.00    -0.346 S  
HETATM   36  C   UNL     1     -11.657  14.622  64.712  1.00  0.00    -0.418 C  
HETATM   37  O   UNL     1      -8.296  16.414  66.061  1.00  0.00    -0.319 OA 
HETATM   38  O   UNL     1     -10.660  17.280  66.061  1.00  0.00    -0.321 OA 
HETATM   39  C   UNL     1     -10.004  15.345  67.793  1.00  0.00    -0.225 C  
HETATM   40  C   UNL     1     -11.689  13.582  65.841  1.00  0.00    -0.352 C  
HETATM   41  C   UNL     1      -9.069  15.905  68.874  1.00  0.00    -0.233 C  
HETATM   42  C   UNL     1     -11.445  15.606  68.282  1.00  0.00    -0.353 C  
HETATM   43  O   UNL     1     -12.533  13.021  66.497  1.00  0.00    -0.374 OA 
ENDBRANCH  30  32
ENDBRANCH  29  30
ENDBRANCH  28  29
ENDBRANCH  27  28
ENDBRANCH  25  27
ENDBRANCH   7  25
TORSDOF 9
ENDMDL
MODEL      169
REMARK 921   NORMALIZED FREE ENERGY PREDICTED BY IDOCK:   -5.23 KCAL/MOL
REMARK 922        TOTAL FREE ENERGY PREDICTED BY IDOCK:   -8.48 KCAL/MOL
REMARK 923 INTER-LIGAND FREE ENERGY PREDICTED BY IDOCK:   -7.86 KCAL/MOL
REMARK 924 INTRA-LIGAND FREE ENERGY PREDICTED BY IDOCK:   -0.62 KCAL/MOL
REMARK 927      BINDING AFFINITY PREDICTED BY RF-SCORE:    0.00 PKD
ROOT
HETATM    1  C   UNL     1      -8.576  12.871  67.893  1.00  0.00    -0.185 C  
HETATM    2  C   UNL     1      -7.305  12.039  68.164  1.00  0.00    -0.094 C  
HETATM    3  S   UNL     1      -6.967  11.060  66.625  1.00  0.00    -0.139 SA 
HETATM    4  C   UNL     1      -6.182  13.053  68.412  1.00  0.00    -0.081 C  
HETATM    5  C   UNL     1      -7.825   9.534  67.245  1.00  0.00    -0.098 C  
HETATM    6  C   UNL     1      -9.335   9.366  66.914  1.00  0.00    -0.147 C  
HETATM    7  C   UNL     1      -7.502  10.969  69.270  1.00  0.00    -0.100 C  
HETATM    8  C   UNL     1      -9.551   9.908  68.351  1.00  0.00    -0.148 C  
HETATM    9  O   UNL     1     -10.465  10.395  68.977  1.00  0.00    -0.193 OA 
HETATM   10  N   UNL     1      -8.217   9.857  68.630  1.00  0.00    -0.105 N  
ENDROOT
BRANCH   6  11
HETATM   11  N   UNL     1      -9.873  10.177  65.789  1.00  0.00    -0.248 N  
HETATM   12  C   UNL     1      -9.526   9.906  64.482  1.00  0.00    -0.264 C  
HETATM   13  O   UNL     1      -8.900   8.895  64.169  1.00  0.00    -0.115 OA 
HETATM   14  H   UNL     1     -10.511  10.947  65.988  1.00  0.00     0.000 HD 
BRANCH  12  15
HETATM   15  C   UNL     1      -9.949  10.978  63.453  1.00  0.00    -0.380 C  
HETATM   16  H2  UNL     1      -8.266  10.671  62.245  1.00  0.00     0.000 HD 
HETATM   17  N   UNL     1      -8.765  11.445  62.683  1.00  0.00    -0.566 NA 
HETATM   18  H1  UNL     1      -9.044  12.152  62.004  1.00  0.00     0.000 HD 
BRANCH  15  19
HETATM   19  C   UNL     1     -10.721  12.133  64.066  1.00  0.00    -0.432 A  
HETATM   20  C   UNL     1     -10.091  13.316  64.489  1.00  0.00    -0.241 A  
HETATM   21  C   UNL     1     -12.120  12.052  64.167  1.00  0.00    -0.458 A  
HETATM   22  C   UNL     1     -12.868  13.147  64.609  1.00  0.00    -0.235 A  
HETATM   23  C   UNL     1     -10.840  14.411  64.922  1.00  0.00    -0.430 A  
HETATM   24  C   UNL     1     -12.229  14.331  64.968  1.00  0.00    -0.438 A  
ENDBRANCH  15  19
ENDBRANCH  12  15
ENDBRANCH   6  11
BRANCH   7  25
HETATM   25  C   UNL     1      -6.197  10.367  69.840  1.00  0.00    -0.081 C  
HETATM   26  O   UNL     1      -5.626  10.742  70.860  1.00  0.00    -0.110 OA 
BRANCH  25  27
HETATM   27  O   UNL     1      -5.731   9.353  69.055  1.00  0.00    -0.036 OA 
BRANCH  27  28
HETATM   28  C   UNL     1      -5.330   8.180  69.769  1.00  0.00    -0.023 C  
BRANCH  28  29
HETATM   29  O   UNL     1      -6.409   7.663  70.543  1.00  0.00    -0.037 OA 
BRANCH  29  30
HETATM   30  C   UNL     1      -7.341   6.945  69.867  1.00  0.00    -0.088 C  
HETATM   31  O   UNL     1      -7.105   6.245  68.891  1.00  0.00    -0.076 OA 
BRANCH  30  32
HETATM   32  C   UNL     1      -8.741   7.100  70.502  1.00  0.00    -0.149 C  
HETATM   33  N   UNL     1      -8.607   7.801  71.789  1.00  0.00    -0.112 N  
HETATM   34  C   UNL     1      -8.291   6.987  72.994  1.00  0.00    -0.106 C  
HETATM   35  S   UNL     1      -8.668   5.318  72.415  1.00  0.00    -0.124 S  
HETATM   36  C   UNL     1      -9.353   7.798  73.740  1.00  0.00    -0.286 C  
HETATM   37  O   UNL     1      -7.416   4.634  72.138  1.00  0.00    -0.077 OA 
HETATM   38  O   UNL     1      -9.664   4.705  73.270  1.00  0.00    -0.131 OA 
HETATM   39  C   UNL     1      -9.432   5.751  70.815  1.00  0.00    -0.165 C  
HETATM   40  C   UNL     1      -9.650   8.447  72.381  1.00  0.00    -0.303 C  
HETATM   41  C   UNL     1      -9.218   4.632  69.787  1.00  0.00    -0.185 C  
HETATM   42  C   UNL     1     -10.959   5.907  70.982  1.00  0.00    -0.335 C  
HETATM   43  O   UNL     1     -10.550   9.081  71.886  1.00  0.00    -0.344 OA 
ENDBRANCH  30  32
ENDBRANCH  29  30
ENDBRANCH  28  29
ENDBRANCH  27  28
ENDBRANCH  25  27
ENDBRANCH   7  25
TORSDOF 9
ENDMDL
MODEL      170
REMARK 921   NORMALIZED FREE ENERGY PREDICTED BY IDOCK:   -5.23 KCAL/MOL
REMARK 922        TOTAL FREE ENERGY PREDICTED BY IDOCK:   -8.48 KCAL/MOL
REMARK 923 INTER-LIGAND FREE ENERGY PREDICTED BY IDOCK:   -8.92 KCAL/MOL
REMARK 924 INTRA-LIGAND FREE ENERGY PREDICTED BY IDOCK:    0.44 KCAL/MOL
REMARK 927      BINDING AFFINITY PREDICTED BY RF-SCORE:    0.00 PKD
ROOT
HETATM    1  C   UNL     1     -10.215  13.963  64.842  1.00  0.00    -0.378 C  
HETATM    2  C   UNL     1     -10.582  12.465  64.906  1.00  0.00    -0.294 C  
HETATM    3  S   UNL     1     -11.737  12.256  66.342  1.00  0.00    -0.309 SA 
HETATM    4  C   UNL     1     -11.301  12.150  63.588  1.00  0.00    -0.545 C  
HETATM    5  C   UNL     1     -10.396  11.746  67.521  1.00  0.00    -0.196 C  
HETATM    6  C   UNL     1      -9.702  12.860  68.355  1.00  0.00    -0.186 C  
HETATM    7  C   UNL     1      -9.371  11.556  65.245  1.00  0.00    -0.137 C  
HETATM    8  C   UNL     1      -8.597  12.769  67.270  1.00  0.00    -0.197 C  
HETATM    9  O   UNL     1      -7.680  13.461  66.890  1.00  0.00     0.053 OA 
HETATM   10  N   UNL     1      -9.175  11.674  66.697  1.00  0.00    -0.185 N  
ENDROOT
BRANCH   6  11
HETATM   11  N   UNL     1     -10.425  14.153  68.487  1.00  0.00    -0.246 N  
HETATM   12  C   UNL     1      -9.833  15.245  69.086  1.00  0.00    -0.239 C  
HETATM   13  O   UNL     1      -8.640  15.259  69.385  1.00  0.00    -0.238 OA 
HETATM   14  H   UNL     1     -11.376  14.234  68.128  1.00  0.00     0.000 HD 
BRANCH  12  15
HETATM   15  C   UNL     1     -10.782  16.428  69.384  1.00  0.00    -0.324 C  
HETATM   16  H2  UNL     1     -12.344  15.186  70.019  1.00  0.00     0.000 HD 
HETATM   17  N   UNL     1     -12.196  15.965  69.378  1.00  0.00    -0.448 NA 
HETATM   18  H1  UNL     1     -12.822  16.745  69.574  1.00  0.00     0.000 HD 
BRANCH  15  19
HETATM   19  C   UNL     1     -10.569  17.619  68.467  1.00  0.00    -0.281 A  
HETATM   20  C   UNL     1     -10.135  18.867  68.946  1.00  0.00    -0.372 A  
HETATM   21  C   UNL     1     -10.754  17.466  67.082  1.00  0.00    -0.188 A  
HETATM   22  C   UNL     1     -10.445  18.505  66.202  1.00  0.00    -0.447 A  
HETATM   23  C   UNL     1      -9.818  19.901  68.064  1.00  0.00    -0.534 A  
HETATM   24  C   UNL     1      -9.959  19.716  66.692  1.00  0.00    -0.532 A  
ENDBRANCH  15  19
ENDBRANCH  12  15
ENDBRANCH   6  11
BRANCH   7  25
HETATM   25  C   UNL     1      -9.582  10.051  64.964  1.00  0.00    -0.297 C  
HETATM   26  O   UNL     1      -9.333   9.483  63.904  1.00  0.00    -0.155 OA 
BRANCH  25  27
HETATM   27  O   UNL     1     -10.102   9.408  66.049  1.00  0.00    -0.300 OA 
BRANCH  27  28
HETATM   28  C   UNL     1      -9.167   8.601  66.770  1.00  0.00    -0.169 C  
BRANCH  28  29
HETATM   29  O   UNL     1      -8.936   7.367  66.097  1.00  0.00    -0.163 OA 
BRANCH  29  30
HETATM   30  C   UNL     1      -7.921   6.604  66.577  1.00  0.00    -0.106 C  
HETATM   31  O   UNL     1      -7.317   6.827  67.617  1.00  0.00    -0.091 OA 
BRANCH  30  32
HETATM   32  C   UNL     1      -7.640   5.396  65.656  1.00  0.00    -0.082 C  
HETATM   33  N   UNL     1      -8.800   5.187  64.775  1.00  0.00    -0.135 N  
HETATM   34  C   UNL     1      -9.929   4.367  65.293  1.00  0.00    -0.200 C  
HETATM   35  S   UNL     1      -9.163   3.548  66.708  1.00  0.00    -0.178 S  
HETATM   36  C   UNL     1      -9.964   3.671  63.930  1.00  0.00    -0.186 C  
HETATM   37  O   UNL     1      -9.626   4.198  67.923  1.00  0.00    -0.169 OA 
HETATM   38  O   UNL     1      -9.258   2.109  66.565  1.00  0.00    -0.089 OA 
HETATM   39  C   UNL     1      -7.436   4.067  66.422  1.00  0.00    -0.084 C  
HETATM   40  C   UNL     1      -8.712   4.499  63.603  1.00  0.00    -0.132 C  
HETATM   41  C   UNL     1      -6.670   4.167  67.748  1.00  0.00    -0.050 C  
HETATM   42  C   UNL     1      -6.701   3.012  65.568  1.00  0.00    -0.040 C  
HETATM   43  O   UNL     1      -7.819   4.460  62.792  1.00  0.00    -0.063 OA 
ENDBRANCH  30  32
ENDBRANCH  29  30
ENDBRANCH  28  29
ENDBRANCH  27  28
ENDBRANCH  25  27
ENDBRANCH   7  25
TORSDOF 9
ENDMDL
MODEL      171
REMARK 921   NORMALIZED FREE ENERGY PREDICTED BY IDOCK:   -5.21 KCAL/MOL
REMARK 922        TOTAL FREE ENERGY PREDICTED BY IDOCK:   -8.45 KCAL/MOL
REMARK 923 INTER-LIGAND FREE ENERGY PREDICTED BY IDOCK:   -7.72 KCAL/MOL
REMARK 924 INTRA-LIGAND FREE ENERGY PREDICTED BY IDOCK:   -0.73 KCAL/MOL
REMARK 927      BINDING AFFINITY PREDICTED BY RF-SCORE:    0.00 PKD
ROOT
HETATM    1  C   UNL     1      -9.482   8.245  67.433  1.00  0.00    -0.188 C  
HETATM    2  C   UNL     1      -8.139   8.774  67.976  1.00  0.00    -0.107 C  
HETATM    3  S   UNL     1      -7.871   7.965  69.624  1.00  0.00    -0.107 SA 
HETATM    4  C   UNL     1      -7.069   8.319  66.975  1.00  0.00    -0.079 C  
HETATM    5  C   UNL     1      -8.565   9.392  70.589  1.00  0.00    -0.198 C  
HETATM    6  C   UNL     1     -10.083   9.370  70.925  1.00  0.00    -0.296 C  
HETATM    7  C   UNL     1      -8.164  10.294  68.289  1.00  0.00    -0.115 C  
HETATM    8  C   UNL     1     -10.209  10.313  69.699  1.00  0.00    -0.235 C  
HETATM    9  O   UNL     1     -11.095  10.681  68.962  1.00  0.00    -0.219 OA 
HETATM   10  N   UNL     1      -8.855  10.426  69.579  1.00  0.00    -0.139 N  
ENDROOT
BRANCH   6  11
HETATM   11  N   UNL     1     -10.772   8.054  70.849  1.00  0.00    -0.218 N  
HETATM   12  C   UNL     1     -10.933   7.266  71.968  1.00  0.00    -0.238 C  
HETATM   13  O   UNL     1     -10.671   7.675  73.099  1.00  0.00    -0.365 OA 
HETATM   14  H   UNL     1     -11.132   7.729  69.952  1.00  0.00     0.000 HD 
BRANCH  12  15
HETATM   15  C   UNL     1     -11.429   5.828  71.696  1.00  0.00    -0.095 C  
HETATM   16  H2  UNL     1     -12.788   5.854  73.289  1.00  0.00     0.000 HD 
HETATM   17  N   UNL     1     -12.047   5.258  72.923  1.00  0.00    -0.434 NA 
HETATM   18  H1  UNL     1     -12.374   4.309  72.743  1.00  0.00     0.000 HD 
BRANCH  15  19
HETATM   19  C   UNL     1     -10.358   4.918  71.122  1.00  0.00    -0.222 A  
HETATM   20  C   UNL     1     -10.091   4.849  69.744  1.00  0.00    -0.319 A  
HETATM   21  C   UNL     1      -9.561   4.156  71.993  1.00  0.00    -0.213 A  
HETATM   22  C   UNL     1      -8.486   3.407  71.505  1.00  0.00    -0.091 A  
HETATM   23  C   UNL     1      -9.012   4.108  69.260  1.00  0.00    -0.164 A  
HETATM   24  C   UNL     1      -8.201   3.399  70.141  1.00  0.00    -0.066 A  
ENDBRANCH  15  19
ENDBRANCH  12  15
ENDBRANCH   6  11
BRANCH   7  25
HETATM   25  C   UNL     1      -6.776  10.948  68.478  1.00  0.00    -0.057 C  
HETATM   26  O   UNL     1      -5.810  10.423  69.024  1.00  0.00    -0.041 OA 
BRANCH  25  27
HETATM   27  O   UNL     1      -6.748  12.213  67.967  1.00  0.00    -0.063 OA 
BRANCH  27  28
HETATM   28  C   UNL     1      -6.577  13.246  68.942  1.00  0.00    -0.107 C  
BRANCH  28  29
HETATM   29  O   UNL     1      -7.328  14.404  68.590  1.00  0.00    -0.109 OA 
BRANCH  29  30
HETATM   30  C   UNL     1      -6.973  15.559  69.210  1.00  0.00    -0.171 C  
HETATM   31  O   UNL     1      -5.882  15.764  69.723  1.00  0.00    -0.131 OA 
BRANCH  30  32
HETATM   32  C   UNL     1      -8.114  16.599  69.160  1.00  0.00    -0.139 C  
HETATM   33  N   UNL     1      -9.298  15.981  68.541  1.00  0.00    -0.206 N  
HETATM   34  C   UNL     1      -9.393  15.996  67.056  1.00  0.00    -0.218 C  
HETATM   35  S   UNL     1      -8.156  17.238  66.625  1.00  0.00    -0.290 S  
HETATM   36  C   UNL     1     -10.861  16.398  67.219  1.00  0.00    -0.194 C  
HETATM   37  O   UNL     1      -6.974  16.558  66.126  1.00  0.00    -0.044 OA 
HETATM   38  O   UNL     1      -8.766  18.306  65.857  1.00  0.00    -0.500 OA 
HETATM   39  C   UNL     1      -7.782  17.845  68.306  1.00  0.00    -0.279 C  
HETATM   40  C   UNL     1     -10.556  16.469  68.723  1.00  0.00    -0.322 C  
HETATM   41  C   UNL     1      -6.336  18.353  68.393  1.00  0.00    -0.202 C  
HETATM   42  C   UNL     1      -8.691  19.045  68.650  1.00  0.00    -0.387 C  
HETATM   43  O   UNL     1     -11.062  16.964  69.700  1.00  0.00    -0.152 OA 
ENDBRANCH  30  32
ENDBRANCH  29  30
ENDBRANCH  28  29
ENDBRANCH  27  28
ENDBRANCH  25  27
ENDBRANCH   7  25
TORSDOF 9
ENDMDL
MODEL      172
REMARK 921   NORMALIZED FREE ENERGY PREDICTED BY IDOCK:   -5.20 KCAL/MOL
REMARK 922        TOTAL FREE ENERGY PREDICTED BY IDOCK:   -8.44 KCAL/MOL
REMARK 923 INTER-LIGAND FREE ENERGY PREDICTED BY IDOCK:   -7.98 KCAL/MOL
REMARK 924 INTRA-LIGAND FREE ENERGY PREDICTED BY IDOCK:   -0.47 KCAL/MOL
REMARK 927      BINDING AFFINITY PREDICTED BY RF-SCORE:    0.00 PKD
ROOT
HETATM    1  C   UNL     1      -8.200   6.862  67.565  1.00  0.00    -0.116 C  
HETATM    2  C   UNL     1      -8.110   7.608  68.913  1.00  0.00    -0.127 C  
HETATM    3  S   UNL     1      -7.659   6.346  70.196  1.00  0.00    -0.098 SA 
HETATM    4  C   UNL     1      -6.983   8.636  68.752  1.00  0.00    -0.063 C  
HETATM    5  C   UNL     1      -9.416   6.062  70.728  1.00  0.00    -0.168 C  
HETATM    6  C   UNL     1     -10.213   4.929  70.022  1.00  0.00    -0.243 C  
HETATM    7  C   UNL     1      -9.474   8.175  69.387  1.00  0.00    -0.162 C  
HETATM    8  C   UNL     1     -10.800   6.086  69.170  1.00  0.00    -0.352 C  
HETATM    9  O   UNL     1     -11.381   6.191  68.114  1.00  0.00    -0.234 OA 
HETATM   10  N   UNL     1     -10.208   7.034  69.952  1.00  0.00    -0.197 N  
ENDROOT
BRANCH   6  11
HETATM   11  N   UNL     1      -9.422   3.890  69.310  1.00  0.00    -0.179 N  
HETATM   12  C   UNL     1      -9.189   2.655  69.877  1.00  0.00    -0.135 C  
HETATM   13  O   UNL     1      -9.754   2.293  70.908  1.00  0.00    -0.136 OA 
HETATM   14  H   UNL     1      -9.044   4.094  68.385  1.00  0.00     0.000 HD 
BRANCH  12  15
HETATM   15  C   UNL     1      -8.146   1.780  69.146  1.00  0.00    -0.044 C  
HETATM   16  H2  UNL     1      -6.850   1.721  70.789  1.00  0.00     0.000 HD 
HETATM   17  N   UNL     1      -6.813   1.925  69.791  1.00  0.00    -0.033 NA 
HETATM   18  H1  UNL     1      -6.125   1.348  69.309  1.00  0.00     0.000 HD 
BRANCH  15  19
HETATM   19  C   UNL     1      -8.085   2.036  67.650  1.00  0.00    -0.068 A  
HETATM   20  C   UNL     1      -6.965   2.619  67.034  1.00  0.00    -0.048 A  
HETATM   21  C   UNL     1      -9.155   1.626  66.836  1.00  0.00    -0.089 A  
HETATM   22  C   UNL     1      -9.074   1.732  65.445  1.00  0.00    -0.091 A  
HETATM   23  C   UNL     1      -6.883   2.716  65.644  1.00  0.00    -0.047 A  
HETATM   24  C   UNL     1      -7.931   2.260  64.849  1.00  0.00    -0.078 A  
ENDBRANCH  15  19
ENDBRANCH  12  15
ENDBRANCH   6  11
BRANCH   7  25
HETATM   25  C   UNL     1      -9.390   9.229  70.515  1.00  0.00    -0.264 C  
HETATM   26  O   UNL     1      -8.455   9.360  71.299  1.00  0.00    -0.302 OA 
BRANCH  25  27
HETATM   27  O   UNL     1     -10.508  10.011  70.550  1.00  0.00    -0.286 OA 
BRANCH  27  28
HETATM   28  C   UNL     1     -10.989  10.424  69.268  1.00  0.00    -0.242 C  
BRANCH  28  29
HETATM   29  O   UNL     1     -10.347  11.624  68.846  1.00  0.00    -0.209 OA 
BRANCH  29  30
HETATM   30  C   UNL     1     -10.874  12.233  67.754  1.00  0.00    -0.221 C  
HETATM   31  O   UNL     1     -11.962  11.961  67.264  1.00  0.00    -0.605 OA 
BRANCH  30  32
HETATM   32  C   UNL     1      -9.937  13.339  67.219  1.00  0.00    -0.231 C  
HETATM   33  N   UNL     1      -9.099  13.831  68.324  1.00  0.00    -0.194 N  
HETATM   34  C   UNL     1      -9.655  14.902  69.195  1.00  0.00    -0.172 C  
HETATM   35  S   UNL     1     -11.036  15.500  68.198  1.00  0.00    -0.337 S  
HETATM   36  C   UNL     1      -8.291  15.590  69.108  1.00  0.00    -0.253 C  
HETATM   37  O   UNL     1     -12.270  14.980  68.761  1.00  0.00    -0.208 OA 
HETATM   38  O   UNL     1     -10.890  16.919  67.941  1.00  0.00    -0.354 OA 
HETATM   39  C   UNL     1     -10.688  14.573  66.665  1.00  0.00    -0.305 C  
HETATM   40  C   UNL     1      -7.921  14.481  68.113  1.00  0.00    -0.133 C  
HETATM   41  C   UNL     1     -11.985  14.281  65.897  1.00  0.00    -0.400 C  
HETATM   42  C   UNL     1      -9.802  15.418  65.724  1.00  0.00    -0.399 C  
HETATM   43  O   UNL     1      -7.077  14.302  67.269  1.00  0.00    -0.155 OA 
ENDBRANCH  30  32
ENDBRANCH  29  30
ENDBRANCH  28  29
ENDBRANCH  27  28
ENDBRANCH  25  27
ENDBRANCH   7  25
TORSDOF 9
ENDMDL
MODEL      173
REMARK 921   NORMALIZED FREE ENERGY PREDICTED BY IDOCK:   -5.19 KCAL/MOL
REMARK 922        TOTAL FREE ENERGY PREDICTED BY IDOCK:   -8.43 KCAL/MOL
REMARK 923 INTER-LIGAND FREE ENERGY PREDICTED BY IDOCK:   -7.53 KCAL/MOL
REMARK 924 INTRA-LIGAND FREE ENERGY PREDICTED BY IDOCK:   -0.90 KCAL/MOL
REMARK 927      BINDING AFFINITY PREDICTED BY RF-SCORE:    0.00 PKD
ROOT
HETATM    1  C   UNL     1      -9.876   9.109  66.018  1.00  0.00    -0.342 C  
HETATM    2  C   UNL     1     -10.044   8.524  67.436  1.00  0.00    -0.234 C  
HETATM    3  S   UNL     1     -10.948   9.798  68.438  1.00  0.00    -0.095 SA 
HETATM    4  C   UNL     1     -10.901   7.263  67.274  1.00  0.00    -0.354 C  
HETATM    5  C   UNL     1      -9.399  10.521  69.165  1.00  0.00    -0.187 C  
HETATM    6  C   UNL     1      -8.734  11.711  68.416  1.00  0.00    -0.158 C  
HETATM    7  C   UNL     1      -8.696   8.330  68.179  1.00  0.00    -0.136 C  
HETATM    8  C   UNL     1      -7.793  10.620  67.839  1.00  0.00    -0.105 C  
HETATM    9  O   UNL     1      -7.032  10.521  66.904  1.00  0.00    -0.087 OA 
HETATM   10  N   UNL     1      -8.310   9.663  68.663  1.00  0.00    -0.112 N  
ENDROOT
BRANCH   6  11
HETATM   11  N   UNL     1      -9.582  12.460  67.451  1.00  0.00    -0.181 N  
HETATM   12  C   UNL     1      -9.907  13.783  67.662  1.00  0.00    -0.234 C  
HETATM   13  O   UNL     1      -9.385  14.450  68.555  1.00  0.00    -0.198 OA 
HETATM   14  H   UNL     1      -9.930  11.987  66.617  1.00  0.00     0.000 HD 
BRANCH  12  15
HETATM   15  C   UNL     1     -10.995  14.352  66.724  1.00  0.00    -0.314 C  
HETATM   16  H2  UNL     1     -12.002  15.338  68.273  1.00  0.00     0.000 HD 
HETATM   17  N   UNL     1     -12.212  14.703  67.504  1.00  0.00    -0.571 NA 
HETATM   18  H1  UNL     1     -12.930  15.078  66.885  1.00  0.00     0.000 HD 
BRANCH  15  19
HETATM   19  C   UNL     1     -11.315  13.445  65.549  1.00  0.00    -0.310 A  
HETATM   20  C   UNL     1     -12.619  12.997  65.279  1.00  0.00    -0.516 A  
HETATM   21  C   UNL     1     -10.289  13.080  64.660  1.00  0.00    -0.374 A  
HETATM   22  C   UNL     1     -10.574  12.352  63.502  1.00  0.00    -0.451 A  
HETATM   23  C   UNL     1     -12.903  12.278  64.118  1.00  0.00    -0.371 A  
HETATM   24  C   UNL     1     -11.884  11.968  63.222  1.00  0.00    -0.450 A  
ENDBRANCH  15  19
ENDBRANCH  12  15
ENDBRANCH   6  11
BRANCH   7  25
HETATM   25  C   UNL     1      -8.760   7.423  69.429  1.00  0.00    -0.137 C  
HETATM   26  O   UNL     1      -8.553   7.786  70.583  1.00  0.00    -0.125 OA 
BRANCH  25  27
HETATM   27  O   UNL     1      -9.067   6.136  69.095  1.00  0.00    -0.128 OA 
BRANCH  27  28
HETATM   28  C   UNL     1      -7.951   5.242  69.071  1.00  0.00    -0.086 C  
BRANCH  28  29
HETATM   29  O   UNL     1      -8.266   4.056  68.348  1.00  0.00    -0.082 OA 
BRANCH  29  30
HETATM   30  C   UNL     1      -8.716   4.229  67.079  1.00  0.00    -0.109 C  
HETATM   31  O   UNL     1      -9.833   3.916  66.690  1.00  0.00    -0.202 OA 
BRANCH  30  32
HETATM   32  C   UNL     1      -7.647   4.899  66.189  1.00  0.00    -0.091 C  
HETATM   33  N   UNL     1      -8.313   5.544  65.046  1.00  0.00    -0.143 N  
HETATM   34  C   UNL     1      -8.602   4.709  63.848  1.00  0.00    -0.132 C  
HETATM   35  S   UNL     1      -7.548   3.273  64.143  1.00  0.00    -0.077 S  
HETATM   36  C   UNL     1      -8.093   5.873  62.995  1.00  0.00    -0.099 C  
HETATM   37  O   UNL     1      -8.383   2.174  64.595  1.00  0.00    -0.084 OA 
HETATM   38  O   UNL     1      -6.631   3.090  63.036  1.00  0.00    -0.025 OA 
HETATM   39  C   UNL     1      -6.627   3.904  65.588  1.00  0.00    -0.041 C  
HETATM   40  C   UNL     1      -7.728   6.542  64.327  1.00  0.00    -0.105 C  
HETATM   41  C   UNL     1      -6.194   2.751  66.504  1.00  0.00    -0.024 C  
HETATM   42  C   UNL     1      -5.333   4.607  65.125  1.00  0.00    -0.013 C  
HETATM   43  O   UNL     1      -7.013   7.444  64.692  1.00  0.00    -0.049 OA 
ENDBRANCH  30  32
ENDBRANCH  29  30
ENDBRANCH  28  29
ENDBRANCH  27  28
ENDBRANCH  25  27
ENDBRANCH   7  25
TORSDOF 9
ENDMDL
MODEL      174
REMARK 921   NORMALIZED FREE ENERGY PREDICTED BY IDOCK:   -5.17 KCAL/MOL
REMARK 922        TOTAL FREE ENERGY PREDICTED BY IDOCK:   -8.40 KCAL/MOL
REMARK 923 INTER-LIGAND FREE ENERGY PREDICTED BY IDOCK:   -7.96 KCAL/MOL
REMARK 924 INTRA-LIGAND FREE ENERGY PREDICTED BY IDOCK:   -0.44 KCAL/MOL
REMARK 927      BINDING AFFINITY PREDICTED BY RF-SCORE:    0.00 PKD
ROOT
HETATM    1  C   UNL     1      -7.615   6.725  69.262  1.00  0.00    -0.096 C  
HETATM    2  C   UNL     1      -7.881   8.237  69.409  1.00  0.00    -0.104 C  
HETATM    3  S   UNL     1      -8.988   8.445  70.884  1.00  0.00    -0.173 SA 
HETATM    4  C   UNL     1      -6.515   8.884  69.668  1.00  0.00    -0.042 C  
HETATM    5  C   UNL     1     -10.547   8.498  69.876  1.00  0.00    -0.228 C  
HETATM    6  C   UNL     1     -11.289   7.156  69.619  1.00  0.00    -0.072 C  
HETATM    7  C   UNL     1      -8.693   8.831  68.227  1.00  0.00    -0.135 C  
HETATM    8  C   UNL     1     -10.562   7.195  68.249  1.00  0.00    -0.188 C  
HETATM    9  O   UNL     1     -10.297   6.404  67.373  1.00  0.00    -0.152 OA 
HETATM   10  N   UNL     1     -10.092   8.456  68.474  1.00  0.00    -0.192 N  
ENDROOT
BRANCH   6  11
HETATM   11  N   UNL     1     -10.971   6.024  70.530  1.00  0.00    -0.311 N  
HETATM   12  C   UNL     1     -11.414   6.010  71.835  1.00  0.00    -0.269 C  
HETATM   13  O   UNL     1     -12.221   6.836  72.260  1.00  0.00    -0.243 OA 
HETATM   14  H   UNL     1     -10.416   5.242  70.182  1.00  0.00     0.000 HD 
BRANCH  12  15
HETATM   15  C   UNL     1     -10.797   4.911  72.728  1.00  0.00    -0.228 C  
HETATM   16  H2  UNL     1     -11.588   5.715  74.492  1.00  0.00     0.000 HD 
HETATM   17  N   UNL     1     -10.691   5.390  74.132  1.00  0.00    -0.327 NA 
HETATM   18  H1  UNL     1     -10.284   4.665  74.722  1.00  0.00     0.000 HD 
BRANCH  15  19
HETATM   19  C   UNL     1      -9.473   4.381  72.207  1.00  0.00    -0.183 A  
HETATM   20  C   UNL     1      -9.375   3.658  71.006  1.00  0.00    -0.211 A  
HETATM   21  C   UNL     1      -8.290   4.665  72.910  1.00  0.00    -0.100 A  
HETATM   22  C   UNL     1      -7.046   4.300  72.390  1.00  0.00    -0.061 A  
HETATM   23  C   UNL     1      -8.131   3.302  70.484  1.00  0.00    -0.064 A  
HETATM   24  C   UNL     1      -6.966   3.636  71.168  1.00  0.00    -0.032 A  
ENDBRANCH  15  19
ENDBRANCH  12  15
ENDBRANCH   6  11
BRANCH   7  25
HETATM   25  C   UNL     1      -8.674  10.373  68.128  1.00  0.00    -0.125 C  
HETATM   26  O   UNL     1      -9.377  11.137  68.783  1.00  0.00    -0.181 OA 
BRANCH  25  27
HETATM   27  O   UNL     1      -7.775  10.802  67.196  1.00  0.00    -0.112 OA 
BRANCH  27  28
HETATM   28  C   UNL     1      -7.111  12.026  67.524  1.00  0.00    -0.129 C  
BRANCH  28  29
HETATM   29  O   UNL     1      -7.864  13.148  67.076  1.00  0.00    -0.094 OA 
BRANCH  29  30
HETATM   30  C   UNL     1      -7.918  14.210  67.921  1.00  0.00    -0.156 C  
HETATM   31  O   UNL     1      -6.939  14.768  68.396  1.00  0.00    -0.102 OA 
BRANCH  30  32
HETATM   32  C   UNL     1      -9.376  14.646  68.186  1.00  0.00    -0.197 C  
HETATM   33  N   UNL     1     -10.249  14.039  67.168  1.00  0.00    -0.256 N  
HETATM   34  C   UNL     1     -10.406  14.754  65.873  1.00  0.00    -0.320 C  
HETATM   35  S   UNL     1      -9.774  16.394  66.283  1.00  0.00    -0.328 S  
HETATM   36  C   UNL     1     -11.906  14.463  65.969  1.00  0.00    -0.379 C  
HETATM   37  O   UNL     1      -8.442  16.529  65.717  1.00  0.00    -0.394 OA 
HETATM   38  O   UNL     1     -10.785  17.399  66.023  1.00  0.00    -0.263 OA 
HETATM   39  C   UNL     1      -9.594  16.174  68.086  1.00  0.00    -0.217 C  
HETATM   40  C   UNL     1     -11.589  13.883  67.355  1.00  0.00    -0.368 C  
HETATM   41  C   UNL     1      -8.460  17.052  68.632  1.00  0.00    -0.262 C  
HETATM   42  C   UNL     1     -10.883  16.625  68.805  1.00  0.00    -0.331 C  
HETATM   43  O   UNL     1     -12.205  13.607  68.356  1.00  0.00    -0.332 OA 
ENDBRANCH  30  32
ENDBRANCH  29  30
ENDBRANCH  28  29
ENDBRANCH  27  28
ENDBRANCH  25  27
ENDBRANCH   7  25
TORSDOF 9
ENDMDL
MODEL      175
REMARK 921   NORMALIZED FREE ENERGY PREDICTED BY IDOCK:   -5.16 KCAL/MOL
REMARK 922        TOTAL FREE ENERGY PREDICTED BY IDOCK:   -8.38 KCAL/MOL
REMARK 923 INTER-LIGAND FREE ENERGY PREDICTED BY IDOCK:   -8.19 KCAL/MOL
REMARK 924 INTRA-LIGAND FREE ENERGY PREDICTED BY IDOCK:   -0.18 KCAL/MOL
REMARK 927      BINDING AFFINITY PREDICTED BY RF-SCORE:    0.00 PKD
ROOT
HETATM    1  C   UNL     1      -7.836   7.001  68.659  1.00  0.00    -0.119 C  
HETATM    2  C   UNL     1      -8.991   7.224  69.657  1.00  0.00    -0.141 C  
HETATM    3  S   UNL     1     -10.040   5.694  69.615  1.00  0.00    -0.246 SA 
HETATM    4  C   UNL     1      -8.334   7.386  71.034  1.00  0.00    -0.114 C  
HETATM    5  C   UNL     1     -11.255   6.398  68.399  1.00  0.00    -0.200 C  
HETATM    6  C   UNL     1     -10.991   6.152  66.887  1.00  0.00    -0.305 C  
HETATM    7  C   UNL     1      -9.951   8.366  69.232  1.00  0.00    -0.195 C  
HETATM    8  C   UNL     1     -10.396   7.584  66.916  1.00  0.00    -0.309 C  
HETATM    9  O   UNL     1      -9.665   8.246  66.215  1.00  0.00    -0.230 OA 
HETATM   10  N   UNL     1     -10.821   7.793  68.196  1.00  0.00    -0.027 N  
ENDROOT
BRANCH   6  11
HETATM   11  N   UNL     1     -10.071   5.037  66.534  1.00  0.00    -0.221 N  
HETATM   12  C   UNL     1     -10.373   4.156  65.518  1.00  0.00    -0.124 C  
HETATM   13  O   UNL     1     -11.318   4.340  64.752  1.00  0.00    -0.302 OA 
HETATM   14  H   UNL     1      -9.201   4.923  67.054  1.00  0.00     0.000 HD 
BRANCH  12  15
HETATM   15  C   UNL     1      -9.463   2.909  65.436  1.00  0.00    -0.039 C  
HETATM   16  H2  UNL     1     -10.071   2.181  67.303  1.00  0.00     0.000 HD 
HETATM   17  N   UNL     1      -9.206   2.372  66.799  1.00  0.00    -0.327 NA 
HETATM   18  H1  UNL     1      -8.605   1.550  66.745  1.00  0.00     0.000 HD 
BRANCH  15  19
HETATM   19  C   UNL     1      -8.177   3.149  64.666  1.00  0.00    -0.090 A  
HETATM   20  C   UNL     1      -7.936   4.340  63.959  1.00  0.00    -0.090 A  
HETATM   21  C   UNL     1      -7.160   2.180  64.701  1.00  0.00    -0.052 A  
HETATM   22  C   UNL     1      -5.919   2.426  64.109  1.00  0.00    -0.014 A  
HETATM   23  C   UNL     1      -6.693   4.588  63.376  1.00  0.00    -0.038 A  
HETATM   24  C   UNL     1      -5.680   3.637  63.463  1.00  0.00    -0.013 A  
ENDBRANCH  15  19
ENDBRANCH  12  15
ENDBRANCH   6  11
BRANCH   7  25
HETATM   25  C   UNL     1     -10.893   8.880  70.344  1.00  0.00    -0.236 C  
HETATM   26  O   UNL     1     -11.717   8.201  70.950  1.00  0.00    -0.283 OA 
BRANCH  25  27
HETATM   27  O   UNL     1     -10.710  10.212  70.576  1.00  0.00    -0.298 OA 
BRANCH  27  28
HETATM   28  C   UNL     1     -11.566  11.073  69.818  1.00  0.00    -0.325 C  
BRANCH  28  29
HETATM   29  O   UNL     1     -11.317  12.440  70.131  1.00  0.00    -0.036 OA 
BRANCH  29  30
HETATM   30  C   UNL     1     -11.433  13.320  69.104  1.00  0.00    -0.305 C  
HETATM   31  O   UNL     1     -12.380  14.079  68.944  1.00  0.00    -0.299 OA 
BRANCH  30  32
HETATM   32  C   UNL     1     -10.202  13.266  68.173  1.00  0.00    -0.243 C  
HETATM   33  N   UNL     1      -9.775  14.640  67.863  1.00  0.00    -0.213 N  
HETATM   34  C   UNL     1     -10.442  15.336  66.729  1.00  0.00    -0.293 C  
HETATM   35  S   UNL     1     -11.233  13.958  65.871  1.00  0.00    -0.302 S  
HETATM   36  C   UNL     1      -9.056  15.817  66.295  1.00  0.00    -0.373 C  
HETATM   37  O   UNL     1     -12.653  13.980  66.175  1.00  0.00    -0.468 OA 
HETATM   38  O   UNL     1     -10.778  13.898  64.496  1.00  0.00    -0.412 OA 
HETATM   39  C   UNL     1     -10.483  12.585  66.812  1.00  0.00    -0.225 C  
HETATM   40  C   UNL     1      -8.518  14.934  67.430  1.00  0.00    -0.195 C  
HETATM   41  C   UNL     1     -11.424  11.372  66.850  1.00  0.00    -0.198 C  
HETATM   42  C   UNL     1      -9.187  12.113  66.120  1.00  0.00    -0.155 C  
HETATM   43  O   UNL     1      -7.458  14.447  67.739  1.00  0.00    -0.135 OA 
ENDBRANCH  30  32
ENDBRANCH  29  30
ENDBRANCH  28  29
ENDBRANCH  27  28
ENDBRANCH  25  27
ENDBRANCH   7  25
TORSDOF 9
ENDMDL
MODEL      176
REMARK 921   NORMALIZED FREE ENERGY PREDICTED BY IDOCK:   -5.13 KCAL/MOL
REMARK 922        TOTAL FREE ENERGY PREDICTED BY IDOCK:   -8.34 KCAL/MOL
REMARK 923 INTER-LIGAND FREE ENERGY PREDICTED BY IDOCK:   -7.25 KCAL/MOL
REMARK 924 INTRA-LIGAND FREE ENERGY PREDICTED BY IDOCK:   -1.09 KCAL/MOL
REMARK 927      BINDING AFFINITY PREDICTED BY RF-SCORE:    0.00 PKD
ROOT
HETATM    1  C   UNL     1      -7.719  10.747  66.028  1.00  0.00    -0.139 C  
HETATM    2  C   UNL     1      -8.431  10.364  67.342  1.00  0.00    -0.121 C  
HETATM    3  S   UNL     1      -9.870  11.521  67.530  1.00  0.00    -0.192 SA 
HETATM    4  C   UNL     1      -8.923   8.923  67.153  1.00  0.00    -0.141 C  
HETATM    5  C   UNL     1      -8.952  12.698  68.635  1.00  0.00     0.050 C  
HETATM    6  C   UNL     1      -8.200  13.883  67.965  1.00  0.00    -0.161 C  
HETATM    7  C   UNL     1      -7.562  10.617  68.603  1.00  0.00    -0.103 C  
HETATM    8  C   UNL     1      -6.951  12.976  68.121  1.00  0.00    -0.105 C  
HETATM    9  O   UNL     1      -5.840  12.922  67.644  1.00  0.00    -0.125 OA 
HETATM   10  N   UNL     1      -7.642  12.061  68.861  1.00  0.00    -0.066 N  
ENDROOT
BRANCH   6  11
HETATM   11  N   UNL     1      -8.611  14.249  66.583  1.00  0.00    -0.435 N  
HETATM   12  C   UNL     1      -9.704  15.056  66.352  1.00  0.00    -0.283 C  
HETATM   13  O   UNL     1     -10.287  15.644  67.263  1.00  0.00    -0.265 OA 
HETATM   14  H   UNL     1      -8.074  13.896  65.791  1.00  0.00     0.000 HD 
BRANCH  12  15
HETATM   15  C   UNL     1     -10.163  15.139  64.879  1.00  0.00    -0.196 C  
HETATM   16  H2  UNL     1     -10.367  17.222  64.921  1.00  0.00     0.000 HD 
HETATM   17  N   UNL     1     -10.908  16.404  64.644  1.00  0.00    -0.869 NA 
HETATM   18  H1  UNL     1     -11.211  16.459  63.672  1.00  0.00     0.000 HD 
BRANCH  15  19
HETATM   19  C   UNL     1     -10.948  13.922  64.421  1.00  0.00    -0.322 A  
HETATM   20  C   UNL     1     -10.336  12.829  63.786  1.00  0.00    -0.269 A  
HETATM   21  C   UNL     1     -12.326  13.850  64.688  1.00  0.00    -0.421 A  
HETATM   22  C   UNL     1     -13.050  12.692  64.393  1.00  0.00    -0.071 A  
HETATM   23  C   UNL     1     -11.058  11.670  63.500  1.00  0.00    -0.476 A  
HETATM   24  C   UNL     1     -12.412  11.596  63.817  1.00  0.00    -0.285 A  
ENDBRANCH  15  19
ENDBRANCH  12  15
ENDBRANCH   6  11
BRANCH   7  25
HETATM   25  C   UNL     1      -8.058   9.924  69.892  1.00  0.00    -0.188 C  
HETATM   26  O   UNL     1      -9.230   9.841  70.250  1.00  0.00    -0.246 OA 
BRANCH  25  27
HETATM   27  O   UNL     1      -7.020   9.412  70.614  1.00  0.00    -0.090 OA 
BRANCH  27  28
HETATM   28  C   UNL     1      -7.398   8.795  71.849  1.00  0.00    -0.012 C  
BRANCH  28  29
HETATM   29  O   UNL     1      -6.995   7.429  71.878  1.00  0.00    -0.061 OA 
BRANCH  29  30
HETATM   30  C   UNL     1      -7.884   6.554  72.414  1.00  0.00    -0.101 C  
HETATM   31  O   UNL     1      -8.641   6.813  73.340  1.00  0.00    -0.120 OA 
BRANCH  30  32
HETATM   32  C   UNL     1      -7.841   5.192  71.687  1.00  0.00    -0.109 C  
HETATM   33  N   UNL     1      -7.048   5.332  70.455  1.00  0.00    -0.059 N  
HETATM   34  C   UNL     1      -7.743   5.817  69.233  1.00  0.00    -0.089 C  
HETATM   35  S   UNL     1      -9.476   5.594  69.686  1.00  0.00    -0.146 S  
HETATM   36  C   UNL     1      -7.004   4.724  68.458  1.00  0.00    -0.056 C  
HETATM   37  O   UNL     1     -10.038   6.892  70.015  1.00  0.00    -0.179 OA 
HETATM   38  O   UNL     1     -10.137   4.732  68.726  1.00  0.00    -0.142 OA 
HETATM   39  C   UNL     1      -9.233   4.680  71.247  1.00  0.00    -0.139 C  
HETATM   40  C   UNL     1      -6.482   4.265  69.826  1.00  0.00    -0.032 C  
HETATM   41  C   UNL     1     -10.387   4.950  72.223  1.00  0.00    -0.267 C  
HETATM   42  C   UNL     1      -9.234   3.160  70.977  1.00  0.00    -0.200 C  
HETATM   43  O   UNL     1      -5.982   3.268  70.289  1.00  0.00    -0.017 OA 
ENDBRANCH  30  32
ENDBRANCH  29  30
ENDBRANCH  28  29
ENDBRANCH  27  28
ENDBRANCH  25  27
ENDBRANCH   7  25
TORSDOF 9
ENDMDL
MODEL      177
REMARK 921   NORMALIZED FREE ENERGY PREDICTED BY IDOCK:   -5.12 KCAL/MOL
REMARK 922        TOTAL FREE ENERGY PREDICTED BY IDOCK:   -8.31 KCAL/MOL
REMARK 923 INTER-LIGAND FREE ENERGY PREDICTED BY IDOCK:   -8.38 KCAL/MOL
REMARK 924 INTRA-LIGAND FREE ENERGY PREDICTED BY IDOCK:    0.07 KCAL/MOL
REMARK 927      BINDING AFFINITY PREDICTED BY RF-SCORE:    0.00 PKD
ROOT
HETATM    1  C   UNL     1     -10.382   7.476  67.826  1.00  0.00    -0.278 C  
HETATM    2  C   UNL     1     -10.151   8.982  67.582  1.00  0.00    -0.216 C  
HETATM    3  S   UNL     1      -8.548   9.419  68.409  1.00  0.00    -0.124 SA 
HETATM    4  C   UNL     1     -10.034   9.151  66.062  1.00  0.00    -0.293 C  
HETATM    5  C   UNL     1      -9.361  10.026  69.965  1.00  0.00    -0.119 C  
HETATM    6  C   UNL     1      -9.574   9.004  71.117  1.00  0.00    -0.286 C  
HETATM    7  C   UNL     1     -11.206   9.880  68.280  1.00  0.00    -0.074 C  
HETATM    8  C   UNL     1     -11.018   8.911  70.559  1.00  0.00    -0.241 C  
HETATM    9  O   UNL     1     -11.947   8.141  70.650  1.00  0.00    -0.185 OA 
HETATM   10  N   UNL     1     -10.808   9.944  69.692  1.00  0.00    -0.240 N  
ENDROOT
BRANCH   6  11
HETATM   11  N   UNL     1      -8.748   7.767  71.084  1.00  0.00    -0.133 N  
HETATM   12  C   UNL     1      -8.734   6.888  72.145  1.00  0.00    -0.127 C  
HETATM   13  O   UNL     1      -9.517   6.990  73.089  1.00  0.00    -0.143 OA 
HETATM   14  H   UNL     1      -8.181   7.566  70.260  1.00  0.00     0.000 HD 
BRANCH  12  15
HETATM   15  C   UNL     1      -7.644   5.794  72.080  1.00  0.00    -0.101 C  
HETATM   16  H2  UNL     1      -6.087   7.174  71.845  1.00  0.00     0.000 HD 
HETATM   17  N   UNL     1      -6.429   6.321  71.404  1.00  0.00    -0.049 NA 
HETATM   18  H1  UNL     1      -5.710   5.599  71.361  1.00  0.00     0.000 HD 
BRANCH  15  19
HETATM   19  C   UNL     1      -8.127   4.497  71.455  1.00  0.00    -0.100 A  
HETATM   20  C   UNL     1      -7.698   3.239  71.912  1.00  0.00    -0.054 A  
HETATM   21  C   UNL     1      -9.078   4.541  70.422  1.00  0.00    -0.169 A  
HETATM   22  C   UNL     1      -9.634   3.364  69.914  1.00  0.00    -0.198 A  
HETATM   23  C   UNL     1      -8.262   2.066  71.410  1.00  0.00    -0.055 A  
HETATM   24  C   UNL     1      -9.240   2.129  70.421  1.00  0.00    -0.186 A  
ENDBRANCH  15  19
ENDBRANCH  12  15
ENDBRANCH   6  11
BRANCH   7  25
HETATM   25  C   UNL     1     -11.253  11.343  67.783  1.00  0.00    -0.283 C  
HETATM   26  O   UNL     1     -11.796  12.276  68.368  1.00  0.00    -0.317 OA 
BRANCH  25  27
HETATM   27  O   UNL     1     -10.619  11.483  66.583  1.00  0.00    -0.232 OA 
BRANCH  27  28
HETATM   28  C   UNL     1     -11.143  12.519  65.747  1.00  0.00    -0.308 C  
BRANCH  28  29
HETATM   29  O   UNL     1     -10.100  13.362  65.268  1.00  0.00    -0.297 OA 
BRANCH  29  30
HETATM   30  C   UNL     1     -10.338  14.698  65.317  1.00  0.00    -0.399 C  
HETATM   31  O   UNL     1     -11.359  15.236  64.910  1.00  0.00    -0.389 OA 
BRANCH  30  32
HETATM   32  C   UNL     1      -9.167  15.455  65.980  1.00  0.00    -0.298 C  
HETATM   33  N   UNL     1      -8.605  14.621  67.054  1.00  0.00    -0.224 N  
HETATM   34  C   UNL     1      -9.243  14.694  68.397  1.00  0.00    -0.197 C  
HETATM   35  S   UNL     1     -10.222  16.204  68.252  1.00  0.00    -0.257 S  
HETATM   36  C   UNL     1      -7.834  14.746  68.992  1.00  0.00    -0.150 C  
HETATM   37  O   UNL     1     -11.616  15.834  68.071  1.00  0.00    -0.321 OA 
HETATM   38  O   UNL     1      -9.843  17.146  69.286  1.00  0.00    -0.207 OA 
HETATM   39  C   UNL     1      -9.587  16.788  66.644  1.00  0.00    -0.258 C  
HETATM   40  C   UNL     1      -7.345  14.804  67.538  1.00  0.00    -0.201 C  
HETATM   41  C   UNL     1     -10.653  17.603  65.899  1.00  0.00    -0.203 C  
HETATM   42  C   UNL     1      -8.385  17.733  66.861  1.00  0.00    -0.257 C  
HETATM   43  O   UNL     1      -6.332  15.119  66.962  1.00  0.00    -0.214 OA 
ENDBRANCH  30  32
ENDBRANCH  29  30
ENDBRANCH  28  29
ENDBRANCH  27  28
ENDBRANCH  25  27
ENDBRANCH   7  25
TORSDOF 9
ENDMDL
MODEL      178
REMARK 921   NORMALIZED FREE ENERGY PREDICTED BY IDOCK:   -5.11 KCAL/MOL
REMARK 922        TOTAL FREE ENERGY PREDICTED BY IDOCK:   -8.31 KCAL/MOL
REMARK 923 INTER-LIGAND FREE ENERGY PREDICTED BY IDOCK:   -7.68 KCAL/MOL
REMARK 924 INTRA-LIGAND FREE ENERGY PREDICTED BY IDOCK:   -0.62 KCAL/MOL
REMARK 927      BINDING AFFINITY PREDICTED BY RF-SCORE:    0.00 PKD
ROOT
HETATM    1  C   UNL     1      -6.211   9.686  65.205  1.00  0.00    -0.079 C  
HETATM    2  C   UNL     1      -7.082   8.419  65.330  1.00  0.00    -0.081 C  
HETATM    3  S   UNL     1      -8.836   8.992  65.529  1.00  0.00    -0.198 SA 
HETATM    4  C   UNL     1      -6.914   7.657  64.010  1.00  0.00    -0.062 C  
HETATM    5  C   UNL     1      -8.804   8.879  67.383  1.00  0.00    -0.129 C  
HETATM    6  C   UNL     1      -8.393  10.150  68.179  1.00  0.00    -0.117 C  
HETATM    7  C   UNL     1      -6.791   7.604  66.618  1.00  0.00    -0.066 C  
HETATM    8  C   UNL     1      -7.001   9.467  68.248  1.00  0.00    -0.071 C  
HETATM    9  O   UNL     1      -5.865   9.810  68.481  1.00  0.00    -0.040 OA 
HETATM   10  N   UNL     1      -7.482   8.311  67.705  1.00  0.00    -0.093 N  
ENDROOT
BRANCH   6  11
HETATM   11  N   UNL     1      -8.479  11.452  67.464  1.00  0.00    -0.133 N  
HETATM   12  C   UNL     1      -9.536  12.312  67.672  1.00  0.00    -0.188 C  
HETATM   13  O   UNL     1     -10.361  12.131  68.566  1.00  0.00    -0.220 OA 
HETATM   14  H   UNL     1      -7.743  11.713  66.809  1.00  0.00     0.000 HD 
BRANCH  12  15
HETATM   15  C   UNL     1      -9.627  13.495  66.681  1.00  0.00    -0.278 C  
HETATM   16  H2  UNL     1      -9.029  14.907  68.106  1.00  0.00     0.000 HD 
HETATM   17  N   UNL     1      -9.774  14.775  67.423  1.00  0.00    -0.213 NA 
HETATM   18  H1  UNL     1      -9.834  15.555  66.769  1.00  0.00     0.000 HD 
BRANCH  15  19
HETATM   19  C   UNL     1     -10.708  13.319  65.629  1.00  0.00    -0.292 A  
HETATM   20  C   UNL     1     -11.410  14.409  65.086  1.00  0.00    -0.359 A  
HETATM   21  C   UNL     1     -10.986  12.034  65.132  1.00  0.00    -0.359 A  
HETATM   22  C   UNL     1     -11.884  11.856  64.076  1.00  0.00    -0.458 A  
HETATM   23  C   UNL     1     -12.300  14.230  64.025  1.00  0.00    -0.283 A  
HETATM   24  C   UNL     1     -12.526  12.956  63.511  1.00  0.00    -0.430 A  
ENDBRANCH  15  19
ENDBRANCH  12  15
ENDBRANCH   6  11
BRANCH   7  25
HETATM   25  C   UNL     1      -7.349   6.163  66.623  1.00  0.00    -0.082 C  
HETATM   26  O   UNL     1      -7.204   5.341  65.723  1.00  0.00    -0.066 OA 
BRANCH  25  27
HETATM   27  O   UNL     1      -8.050   5.903  67.764  1.00  0.00    -0.104 OA 
BRANCH  27  28
HETATM   28  C   UNL     1      -7.354   5.101  68.723  1.00  0.00    -0.062 C  
BRANCH  28  29
HETATM   29  O   UNL     1      -8.029   5.111  69.978  1.00  0.00    -0.079 OA 
BRANCH  29  30
HETATM   30  C   UNL     1      -9.280   5.637  69.981  1.00  0.00    -0.144 C  
HETATM   31  O   UNL     1     -10.269   5.077  69.528  1.00  0.00    -0.234 OA 
BRANCH  30  32
HETATM   32  C   UNL     1      -9.307   7.025  70.658  1.00  0.00    -0.162 C  
HETATM   33  N   UNL     1      -8.236   7.086  71.665  1.00  0.00    -0.104 N  
HETATM   34  C   UNL     1      -8.531   6.560  73.026  1.00  0.00    -0.118 C  
HETATM   35  S   UNL     1     -10.334   6.468  72.998  1.00  0.00    -0.235 S  
HETATM   36  C   UNL     1      -7.834   7.802  73.586  1.00  0.00    -0.198 C  
HETATM   37  O   UNL     1     -10.722   5.078  72.830  1.00  0.00    -0.210 OA 
HETATM   38  O   UNL     1     -10.892   7.259  74.076  1.00  0.00    -0.212 OA 
HETATM   39  C   UNL     1     -10.625   7.322  71.411  1.00  0.00    -0.211 C  
HETATM   40  C   UNL     1      -7.733   8.265  72.126  1.00  0.00    -0.124 C  
HETATM   41  C   UNL     1     -11.910   6.812  70.744  1.00  0.00    -0.446 C  
HETATM   42  C   UNL     1     -10.827   8.834  71.653  1.00  0.00    -0.399 C  
HETATM   43  O   UNL     1      -7.537   9.304  71.544  1.00  0.00    -0.340 OA 
ENDBRANCH  30  32
ENDBRANCH  29  30
ENDBRANCH  28  29
ENDBRANCH  27  28
ENDBRANCH  25  27
ENDBRANCH   7  25
TORSDOF 9
ENDMDL
MODEL      179
REMARK 921   NORMALIZED FREE ENERGY PREDICTED BY IDOCK:   -5.10 KCAL/MOL
REMARK 922        TOTAL FREE ENERGY PREDICTED BY IDOCK:   -8.29 KCAL/MOL
REMARK 923 INTER-LIGAND FREE ENERGY PREDICTED BY IDOCK:   -8.01 KCAL/MOL
REMARK 924 INTRA-LIGAND FREE ENERGY PREDICTED BY IDOCK:   -0.28 KCAL/MOL
REMARK 927      BINDING AFFINITY PREDICTED BY RF-SCORE:    0.00 PKD
ROOT
HETATM    1  C   UNL     1      -9.964   9.957  65.507  1.00  0.00    -0.363 C  
HETATM    2  C   UNL     1      -9.532   9.173  66.763  1.00  0.00    -0.175 C  
HETATM    3  S   UNL     1      -9.496  10.385  68.167  1.00  0.00    -0.148 SA 
HETATM    4  C   UNL     1     -10.618   8.115  66.996  1.00  0.00    -0.346 C  
HETATM    5  C   UNL     1      -7.673  10.709  68.017  1.00  0.00    -0.100 C  
HETATM    6  C   UNL     1      -7.218  11.885  67.107  1.00  0.00    -0.144 C  
HETATM    7  C   UNL     1      -8.079   8.636  66.676  1.00  0.00    -0.100 C  
HETATM    8  C   UNL     1      -6.969  10.770  66.056  1.00  0.00    -0.104 C  
HETATM    9  O   UNL     1      -6.822  10.711  64.857  1.00  0.00    -0.025 OA 
HETATM   10  N   UNL     1      -7.209   9.783  66.967  1.00  0.00    -0.090 N  
ENDROOT
BRANCH   6  11
HETATM   11  N   UNL     1      -8.237  12.918  66.778  1.00  0.00    -0.408 N  
HETATM   12  C   UNL     1      -8.575  13.901  67.683  1.00  0.00    -0.190 C  
HETATM   13  O   UNL     1      -7.945  14.075  68.725  1.00  0.00    -0.136 OA 
HETATM   14  H   UNL     1      -8.694  12.898  65.866  1.00  0.00     0.000 HD 
BRANCH  12  15
HETATM   15  C   UNL     1      -9.819  14.739  67.311  1.00  0.00    -0.230 C  
HETATM   16  H2  UNL     1     -10.443  13.396  65.830  1.00  0.00     0.000 HD 
HETATM   17  N   UNL     1     -10.275  14.396  65.937  1.00  0.00    -0.310 NA 
HETATM   18  H1  UNL     1     -11.096  14.949  65.692  1.00  0.00     0.000 HD 
BRANCH  15  19
HETATM   19  C   UNL     1      -9.616  16.233  67.487  1.00  0.00    -0.230 A  
HETATM   20  C   UNL     1     -10.554  17.176  67.035  1.00  0.00    -0.227 A  
HETATM   21  C   UNL     1      -8.484  16.699  68.176  1.00  0.00    -0.198 A  
HETATM   22  C   UNL     1      -8.333  18.058  68.464  1.00  0.00    -0.313 A  
HETATM   23  C   UNL     1     -10.407  18.532  67.331  1.00  0.00    -0.432 A  
HETATM   24  C   UNL     1      -9.304  18.971  68.058  1.00  0.00    -0.365 A  
ENDBRANCH  15  19
ENDBRANCH  12  15
ENDBRANCH   6  11
BRANCH   7  25
HETATM   25  C   UNL     1      -7.717   7.550  67.714  1.00  0.00    -0.115 C  
HETATM   26  O   UNL     1      -7.228   7.758  68.821  1.00  0.00    -0.077 OA 
BRANCH  25  27
HETATM   27  O   UNL     1      -7.996   6.299  67.246  1.00  0.00    -0.107 OA 
BRANCH  27  28
HETATM   28  C   UNL     1      -8.185   5.309  68.261  1.00  0.00    -0.094 C  
BRANCH  28  29
HETATM   29  O   UNL     1      -9.552   5.239  68.655  1.00  0.00    -0.122 OA 
BRANCH  29  30
HETATM   30  C   UNL     1      -9.836   4.408  69.691  1.00  0.00    -0.202 C  
HETATM   31  O   UNL     1      -9.420   3.262  69.795  1.00  0.00    -0.164 OA 
BRANCH  30  32
HETATM   32  C   UNL     1     -10.730   5.102  70.741  1.00  0.00    -0.062 C  
HETATM   33  N   UNL     1     -10.752   6.549  70.469  1.00  0.00    -0.240 N  
HETATM   34  C   UNL     1      -9.658   7.380  71.041  1.00  0.00    -0.161 C  
HETATM   35  S   UNL     1      -8.962   6.264  72.278  1.00  0.00    -0.135 S  
HETATM   36  C   UNL     1     -10.728   8.398  71.441  1.00  0.00    -0.298 C  
HETATM   37  O   UNL     1      -7.716   5.723  71.761  1.00  0.00    -0.098 OA 
HETATM   38  O   UNL     1      -9.005   6.880  73.588  1.00  0.00    -0.132 OA 
HETATM   39  C   UNL     1     -10.220   4.944  72.192  1.00  0.00    -0.196 C  
HETATM   40  C   UNL     1     -11.741   7.364  70.930  1.00  0.00    -0.296 C  
HETATM   41  C   UNL     1      -9.606   3.582  72.544  1.00  0.00    -0.194 C  
HETATM   42  C   UNL     1     -11.332   5.205  73.231  1.00  0.00    -0.361 C  
HETATM   43  O   UNL     1     -12.923   7.153  71.056  1.00  0.00    -0.325 OA 
ENDBRANCH  30  32
ENDBRANCH  29  30
ENDBRANCH  28  29
ENDBRANCH  27  28
ENDBRANCH  25  27
ENDBRANCH   7  25
TORSDOF 9
ENDMDL
MODEL      180
REMARK 921   NORMALIZED FREE ENERGY PREDICTED BY IDOCK:   -5.10 KCAL/MOL
REMARK 922        TOTAL FREE ENERGY PREDICTED BY IDOCK:   -8.29 KCAL/MOL
REMARK 923 INTER-LIGAND FREE ENERGY PREDICTED BY IDOCK:   -7.68 KCAL/MOL
REMARK 924 INTRA-LIGAND FREE ENERGY PREDICTED BY IDOCK:   -0.61 KCAL/MOL
REMARK 927      BINDING AFFINITY PREDICTED BY RF-SCORE:    0.00 PKD
ROOT
HETATM    1  C   UNL     1      -8.233   9.783  69.814  1.00  0.00    -0.182 C  
HETATM    2  C   UNL     1      -9.348  10.145  68.810  1.00  0.00    -0.168 C  
HETATM    3  S   UNL     1      -9.597   8.660  67.726  1.00  0.00    -0.154 SA 
HETATM    4  C   UNL     1     -10.603  10.412  69.650  1.00  0.00    -0.289 C  
HETATM    5  C   UNL     1      -8.488   9.291  66.377  1.00  0.00    -0.123 C  
HETATM    6  C   UNL     1      -6.986   8.892  66.427  1.00  0.00    -0.079 C  
HETATM    7  C   UNL     1      -8.941  11.278  67.831  1.00  0.00    -0.146 C  
HETATM    8  C   UNL     1      -6.794  10.297  67.057  1.00  0.00    -0.084 C  
HETATM    9  O   UNL     1      -5.940  10.860  67.704  1.00  0.00    -0.043 OA 
HETATM   10  N   UNL     1      -8.091  10.642  66.814  1.00  0.00    -0.127 N  
ENDROOT
BRANCH   6  11
HETATM   11  N   UNL     1      -6.628   7.714  67.262  1.00  0.00    -0.061 N  
HETATM   12  C   UNL     1      -6.977   6.436  66.882  1.00  0.00    -0.068 C  
HETATM   13  O   UNL     1      -7.446   6.189  65.771  1.00  0.00    -0.078 OA 
HETATM   14  H   UNL     1      -6.115   7.854  68.132  1.00  0.00     0.000 HD 
BRANCH  12  15
HETATM   15  C   UNL     1      -6.772   5.349  67.960  1.00  0.00    -0.055 C  
HETATM   16  H2  UNL     1      -6.310   3.861  66.561  1.00  0.00     0.000 HD 
HETATM   17  N   UNL     1      -6.927   3.996  67.361  1.00  0.00    -0.055 NA 
HETATM   18  H1  UNL     1      -6.791   3.279  68.072  1.00  0.00     0.000 HD 
BRANCH  15  19
HETATM   19  C   UNL     1      -7.654   5.535  69.182  1.00  0.00    -0.086 A  
HETATM   20  C   UNL     1      -7.161   6.050  70.392  1.00  0.00    -0.083 A  
HETATM   21  C   UNL     1      -9.025   5.238  69.094  1.00  0.00    -0.124 A  
HETATM   22  C   UNL     1      -9.885   5.518  70.159  1.00  0.00    -0.261 A  
HETATM   23  C   UNL     1      -8.023   6.337  71.452  1.00  0.00    -0.109 A  
HETATM   24  C   UNL     1      -9.386   6.084  71.330  1.00  0.00    -0.159 A  
ENDBRANCH  15  19
ENDBRANCH  12  15
ENDBRANCH   6  11
BRANCH   7  25
HETATM   25  C   UNL     1     -10.111  11.932  67.062  1.00  0.00    -0.205 C  
HETATM   26  O   UNL     1     -11.246  11.473  66.968  1.00  0.00    -0.288 OA 
BRANCH  25  27
HETATM   27  O   UNL     1      -9.729  13.101  66.472  1.00  0.00    -0.257 OA 
BRANCH  27  28
HETATM   28  C   UNL     1      -9.352  14.136  67.385  1.00  0.00    -0.215 C  
BRANCH  28  29
HETATM   29  O   UNL     1      -8.890  15.287  66.685  1.00  0.00    -0.255 OA 
BRANCH  29  30
HETATM   30  C   UNL     1      -7.771  15.878  67.177  1.00  0.00    -0.212 C  
HETATM   31  O   UNL     1      -6.630  15.487  66.969  1.00  0.00    -0.279 OA 
BRANCH  30  32
HETATM   32  C   UNL     1      -8.116  17.129  68.014  1.00  0.00    -0.210 C  
HETATM   33  N   UNL     1      -9.427  17.644  67.586  1.00  0.00    -0.255 N  
HETATM   34  C   UNL     1      -9.464  18.570  66.422  1.00  0.00    -0.301 C  
HETATM   35  S   UNL     1      -7.731  19.058  66.291  1.00  0.00    -0.268 S  
HETATM   36  C   UNL     1     -10.445  19.431  67.221  1.00  0.00    -0.579 C  
HETATM   37  O   UNL     1      -7.135  18.345  65.174  1.00  0.00    -0.469 OA 
HETATM   38  O   UNL     1      -7.607  20.498  66.390  1.00  0.00    -0.219 OA 
HETATM   39  C   UNL     1      -7.115  18.294  67.831  1.00  0.00    -0.223 C  
HETATM   40  C   UNL     1     -10.188  18.452  68.376  1.00  0.00    -0.378 C  
HETATM   41  C   UNL     1      -5.639  17.896  67.690  1.00  0.00    -0.145 C  
HETATM   42  C   UNL     1      -7.187  19.310  68.991  1.00  0.00    -0.388 C  
HETATM   43  O   UNL     1     -10.344  18.442  69.573  1.00  0.00     0.003 OA 
ENDBRANCH  30  32
ENDBRANCH  29  30
ENDBRANCH  28  29
ENDBRANCH  27  28
ENDBRANCH  25  27
ENDBRANCH   7  25
TORSDOF 9
ENDMDL
MODEL      181
REMARK 921   NORMALIZED FREE ENERGY PREDICTED BY IDOCK:   -5.10 KCAL/MOL
REMARK 922        TOTAL FREE ENERGY PREDICTED BY IDOCK:   -8.29 KCAL/MOL
REMARK 923 INTER-LIGAND FREE ENERGY PREDICTED BY IDOCK:   -8.11 KCAL/MOL
REMARK 924 INTRA-LIGAND FREE ENERGY PREDICTED BY IDOCK:   -0.17 KCAL/MOL
REMARK 927      BINDING AFFINITY PREDICTED BY RF-SCORE:    0.00 PKD
ROOT
HETATM    1  C   UNL     1     -10.248   9.002  69.603  1.00  0.00    -0.211 C  
HETATM    2  C   UNL     1     -10.147   9.522  68.154  1.00  0.00    -0.182 C  
HETATM    3  S   UNL     1     -10.230   8.037  67.044  1.00  0.00    -0.323 SA 
HETATM    4  C   UNL     1     -11.371  10.420  67.940  1.00  0.00    -0.248 C  
HETATM    5  C   UNL     1      -8.386   7.888  66.880  1.00  0.00    -0.116 C  
HETATM    6  C   UNL     1      -7.640   6.977  67.896  1.00  0.00    -0.111 C  
HETATM    7  C   UNL     1      -8.774  10.170  67.833  1.00  0.00    -0.122 C  
HETATM    8  C   UNL     1      -7.332   8.310  68.628  1.00  0.00    -0.089 C  
HETATM    9  O   UNL     1      -6.974   8.641  69.735  1.00  0.00    -0.045 OA 
HETATM   10  N   UNL     1      -7.847   9.053  67.606  1.00  0.00    -0.100 N  
ENDROOT
BRANCH   6  11
HETATM   11  N   UNL     1      -8.455   5.969  68.625  1.00  0.00    -0.113 N  
HETATM   12  C   UNL     1      -7.877   5.093  69.519  1.00  0.00    -0.076 C  
HETATM   13  O   UNL     1      -6.706   5.206  69.881  1.00  0.00    -0.038 OA 
HETATM   14  H   UNL     1      -9.461   5.926  68.462  1.00  0.00     0.000 HD 
BRANCH  12  15
HETATM   15  C   UNL     1      -8.792   3.945  70.001  1.00  0.00    -0.085 C  
HETATM   16  H2  UNL     1      -9.096   3.199  68.069  1.00  0.00     0.000 HD 
HETATM   17  N   UNL     1      -9.648   3.468  68.883  1.00  0.00    -0.135 NA 
HETATM   18  H1  UNL     1     -10.252   2.710  69.201  1.00  0.00     0.000 HD 
BRANCH  15  19
HETATM   19  C   UNL     1      -9.608   4.299  71.232  1.00  0.00    -0.242 A  
HETATM   20  C   UNL     1     -10.223   5.553  71.389  1.00  0.00    -0.275 A  
HETATM   21  C   UNL     1      -9.810   3.329  72.229  1.00  0.00    -0.232 A  
HETATM   22  C   UNL     1     -10.659   3.583  73.309  1.00  0.00    -0.277 A  
HETATM   23  C   UNL     1     -11.077   5.801  72.464  1.00  0.00    -0.327 A  
HETATM   24  C   UNL     1     -11.307   4.812  73.416  1.00  0.00    -0.397 A  
ENDBRANCH  15  19
ENDBRANCH  12  15
ENDBRANCH   6  11
BRANCH   7  25
HETATM   25  C   UNL     1      -8.736  11.025  66.546  1.00  0.00    -0.168 C  
HETATM   26  O   UNL     1      -8.212  10.694  65.487  1.00  0.00    -0.160 OA 
BRANCH  25  27
HETATM   27  O   UNL     1      -9.357  12.226  66.728  1.00  0.00    -0.205 OA 
BRANCH  27  28
HETATM   28  C   UNL     1      -8.472  13.344  66.848  1.00  0.00    -0.051 C  
BRANCH  28  29
HETATM   29  O   UNL     1      -8.246  13.669  68.216  1.00  0.00    -0.145 OA 
BRANCH  29  30
HETATM   30  C   UNL     1      -8.553  14.938  68.588  1.00  0.00    -0.168 C  
HETATM   31  O   UNL     1      -8.671  15.312  69.747  1.00  0.00    -0.192 OA 
BRANCH  30  32
HETATM   32  C   UNL     1      -8.706  15.864  67.362  1.00  0.00    -0.181 C  
HETATM   33  N   UNL     1      -7.922  17.089  67.585  1.00  0.00    -0.174 N  
HETATM   34  C   UNL     1      -8.565  18.198  68.342  1.00  0.00    -0.299 C  
HETATM   35  S   UNL     1     -10.305  17.719  68.279  1.00  0.00    -0.375 S  
HETATM   36  C   UNL     1      -7.994  19.156  67.294  1.00  0.00    -0.277 C  
HETATM   37  O   UNL     1     -10.681  17.176  69.573  1.00  0.00    -0.269 OA 
HETATM   38  O   UNL     1     -11.092  18.773  67.670  1.00  0.00    -0.300 OA 
HETATM   39  C   UNL     1     -10.162  16.324  67.110  1.00  0.00    -0.276 C  
HETATM   40  C   UNL     1      -7.516  17.893  66.564  1.00  0.00    -0.246 C  
HETATM   41  C   UNL     1     -11.253  15.277  67.374  1.00  0.00    -0.311 C  
HETATM   42  C   UNL     1     -10.372  16.821  65.664  1.00  0.00    -0.284 C  
HETATM   43  O   UNL     1      -7.148  17.606  65.451  1.00  0.00    -0.290 OA 
ENDBRANCH  30  32
ENDBRANCH  29  30
ENDBRANCH  28  29
ENDBRANCH  27  28
ENDBRANCH  25  27
ENDBRANCH   7  25
TORSDOF 9
ENDMDL
MODEL      182
REMARK 921   NORMALIZED FREE ENERGY PREDICTED BY IDOCK:   -5.10 KCAL/MOL
REMARK 922        TOTAL FREE ENERGY PREDICTED BY IDOCK:   -8.28 KCAL/MOL
REMARK 923 INTER-LIGAND FREE ENERGY PREDICTED BY IDOCK:   -7.93 KCAL/MOL
REMARK 924 INTRA-LIGAND FREE ENERGY PREDICTED BY IDOCK:   -0.35 KCAL/MOL
REMARK 927      BINDING AFFINITY PREDICTED BY RF-SCORE:    0.00 PKD
ROOT
HETATM    1  C   UNL     1      -8.920   7.519  70.633  1.00  0.00    -0.154 C  
HETATM    2  C   UNL     1     -10.055   8.369  70.026  1.00  0.00    -0.192 C  
HETATM    3  S   UNL     1     -10.831   7.349  68.685  1.00  0.00     0.043 SA 
HETATM    4  C   UNL     1     -11.056   8.612  71.162  1.00  0.00    -0.324 C  
HETATM    5  C   UNL     1      -9.829   8.126  67.328  1.00  0.00    -0.197 C  
HETATM    6  C   UNL     1      -8.484   7.448  66.942  1.00  0.00    -0.123 C  
HETATM    7  C   UNL     1      -9.542   9.641  69.299  1.00  0.00    -0.185 C  
HETATM    8  C   UNL     1      -7.854   8.539  67.848  1.00  0.00    -0.103 C  
HETATM    9  O   UNL     1      -6.796   8.711  68.411  1.00  0.00    -0.063 OA 
HETATM   10  N   UNL     1      -9.047   9.184  67.994  1.00  0.00    -0.132 N  
ENDROOT
BRANCH   6  11
HETATM   11  N   UNL     1      -8.300   6.030  67.352  1.00  0.00    -0.106 N  
HETATM   12  C   UNL     1      -8.251   5.017  66.419  1.00  0.00    -0.108 C  
HETATM   13  O   UNL     1      -8.190   5.243  65.211  1.00  0.00    -0.117 OA 
HETATM   14  H   UNL     1      -8.207   5.803  68.342  1.00  0.00     0.000 HD 
BRANCH  12  15
HETATM   15  C   UNL     1      -8.317   3.585  66.997  1.00  0.00    -0.096 C  
HETATM   16  H2  UNL     1      -9.473   2.856  65.410  1.00  0.00     0.000 HD 
HETATM   17  N   UNL     1      -9.483   2.857  66.430  1.00  0.00    -0.385 NA 
HETATM   18  H1  UNL     1      -9.527   1.912  66.811  1.00  0.00     0.000 HD 
BRANCH  15  19
HETATM   19  C   UNL     1      -8.304   3.546  68.515  1.00  0.00    -0.093 A  
HETATM   20  C   UNL     1      -9.485   3.540  69.275  1.00  0.00    -0.233 A  
HETATM   21  C   UNL     1      -7.076   3.453  69.192  1.00  0.00    -0.049 A  
HETATM   22  C   UNL     1      -7.037   3.288  70.579  1.00  0.00    -0.034 A  
HETATM   23  C   UNL     1      -9.445   3.366  70.659  1.00  0.00    -0.243 A  
HETATM   24  C   UNL     1      -8.222   3.225  71.309  1.00  0.00    -0.075 A  
ENDBRANCH  15  19
ENDBRANCH  12  15
ENDBRANCH   6  11
BRANCH   7  25
HETATM   25  C   UNL     1     -10.622  10.705  68.999  1.00  0.00    -0.219 C  
HETATM   26  O   UNL     1     -11.452  11.122  69.801  1.00  0.00    -0.265 OA 
BRANCH  25  27
HETATM   27  O   UNL     1     -10.555  11.132  67.705  1.00  0.00    -0.189 OA 
BRANCH  27  28
HETATM   28  C   UNL     1     -11.757  11.729  67.210  1.00  0.00    -0.217 C  
BRANCH  28  29
HETATM   29  O   UNL     1     -11.692  13.149  67.296  1.00  0.00    -0.336 OA 
BRANCH  29  30
HETATM   30  C   UNL     1     -10.724  13.751  66.558  1.00  0.00    -0.284 C  
HETATM   31  O   UNL     1     -10.043  13.185  65.713  1.00  0.00    -0.286 OA 
BRANCH  30  32
HETATM   32  C   UNL     1     -10.606  15.252  66.898  1.00  0.00    -0.304 C  
HETATM   33  N   UNL     1      -9.532  15.845  66.085  1.00  0.00    -0.312 N  
HETATM   34  C   UNL     1      -8.139  15.750  66.600  1.00  0.00    -0.247 C  
HETATM   35  S   UNL     1      -8.418  15.315  68.329  1.00  0.00    -0.159 S  
HETATM   36  C   UNL     1      -7.960  17.216  66.196  1.00  0.00    -0.297 C  
HETATM   37  O   UNL     1      -8.133  13.900  68.500  1.00  0.00    -0.140 OA 
HETATM   38  O   UNL     1      -7.802  16.297  69.199  1.00  0.00    -0.235 OA 
HETATM   39  C   UNL     1     -10.231  15.527  68.374  1.00  0.00    -0.215 C  
HETATM   40  C   UNL     1      -9.453  17.182  65.841  1.00  0.00    -0.044 C  
HETATM   41  C   UNL     1     -10.864  14.591  69.413  1.00  0.00    -0.249 C  
HETATM   42  C   UNL     1     -10.585  16.966  68.806  1.00  0.00    -0.355 C  
HETATM   43  O   UNL     1     -10.332  17.988  65.652  1.00  0.00    -0.611 OA 
ENDBRANCH  30  32
ENDBRANCH  29  30
ENDBRANCH  28  29
ENDBRANCH  27  28
ENDBRANCH  25  27
ENDBRANCH   7  25
TORSDOF 9
ENDMDL
MODEL      183
REMARK 921   NORMALIZED FREE ENERGY PREDICTED BY IDOCK:   -5.08 KCAL/MOL
REMARK 922        TOTAL FREE ENERGY PREDICTED BY IDOCK:   -8.26 KCAL/MOL
REMARK 923 INTER-LIGAND FREE ENERGY PREDICTED BY IDOCK:   -7.80 KCAL/MOL
REMARK 924 INTRA-LIGAND FREE ENERGY PREDICTED BY IDOCK:   -0.46 KCAL/MOL
REMARK 927      BINDING AFFINITY PREDICTED BY RF-SCORE:    0.00 PKD
ROOT
HETATM    1  C   UNL     1     -10.050   8.760  68.978  1.00  0.00    -0.206 C  
HETATM    2  C   UNL     1      -9.796   9.973  68.059  1.00  0.00    -0.142 C  
HETATM    3  S   UNL     1     -10.124   9.409  66.322  1.00  0.00    -0.217 SA 
HETATM    4  C   UNL     1     -10.814  11.041  68.478  1.00  0.00    -0.254 C  
HETATM    5  C   UNL     1      -8.339   9.046  65.959  1.00  0.00    -0.123 C  
HETATM    6  C   UNL     1      -7.822   7.606  66.235  1.00  0.00    -0.091 C  
HETATM    7  C   UNL     1      -8.313  10.427  68.046  1.00  0.00    -0.118 C  
HETATM    8  C   UNL     1      -7.289   8.217  67.558  1.00  0.00    -0.093 C  
HETATM    9  O   UNL     1      -6.916   7.800  68.630  1.00  0.00    -0.064 OA 
HETATM   10  N   UNL     1      -7.612   9.483  67.165  1.00  0.00    -0.091 N  
ENDROOT
BRANCH   6  11
HETATM   11  N   UNL     1      -8.844   6.531  66.343  1.00  0.00    -0.138 N  
HETATM   12  C   UNL     1      -8.480   5.211  66.502  1.00  0.00    -0.111 C  
HETATM   13  O   UNL     1      -7.317   4.877  66.728  1.00  0.00    -0.082 OA 
HETATM   14  H   UNL     1      -9.834   6.774  66.298  1.00  0.00     0.000 HD 
BRANCH  12  15
HETATM   15  C   UNL     1      -9.625   4.186  66.339  1.00  0.00    -0.202 C  
HETATM   16  H2  UNL     1      -9.542   3.578  68.341  1.00  0.00     0.000 HD 
HETATM   17  N   UNL     1      -9.550   3.159  67.412  1.00  0.00    -0.352 NA 
HETATM   18  H1  UNL     1     -10.306   2.483  67.305  1.00  0.00     0.000 HD 
BRANCH  15  19
HETATM   19  C   UNL     1      -9.686   3.562  64.956  1.00  0.00    -0.142 A  
HETATM   20  C   UNL     1     -10.591   4.000  63.974  1.00  0.00    -0.180 A  
HETATM   21  C   UNL     1      -8.773   2.550  64.615  1.00  0.00    -0.107 A  
HETATM   22  C   UNL     1      -8.721   2.045  63.314  1.00  0.00    -0.084 A  
HETATM   23  C   UNL     1     -10.532   3.501  62.673  1.00  0.00    -0.187 A  
HETATM   24  C   UNL     1      -9.588   2.534  62.339  1.00  0.00    -0.089 A  
ENDBRANCH  15  19
ENDBRANCH  12  15
ENDBRANCH   6  11
BRANCH   7  25
HETATM   25  C   UNL     1      -8.062  11.833  67.454  1.00  0.00    -0.161 C  
HETATM   26  O   UNL     1      -8.758  12.382  66.606  1.00  0.00    -0.193 OA 
BRANCH  25  27
HETATM   27  O   UNL     1      -6.942  12.404  67.984  1.00  0.00    -0.079 OA 
BRANCH  27  28
HETATM   28  C   UNL     1      -6.857  13.822  67.814  1.00  0.00    -0.173 C  
BRANCH  28  29
HETATM   29  O   UNL     1      -7.386  14.503  68.948  1.00  0.00    -0.116 OA 
BRANCH  29  30
HETATM   30  C   UNL     1      -7.350  15.859  68.903  1.00  0.00    -0.167 C  
HETATM   31  O   UNL     1      -6.333  16.522  68.751  1.00  0.00    -0.134 OA 
BRANCH  30  32
HETATM   32  C   UNL     1      -8.764  16.465  69.040  1.00  0.00    -0.233 C  
HETATM   33  N   UNL     1      -9.748  15.509  68.507  1.00  0.00    -0.199 N  
HETATM   34  C   UNL     1     -10.018  15.534  67.044  1.00  0.00    -0.239 C  
HETATM   35  S   UNL     1      -9.312  17.126  66.570  1.00  0.00    -0.268 S  
HETATM   36  C   UNL     1     -11.507  15.424  67.383  1.00  0.00    -0.197 C  
HETATM   37  O   UNL     1      -8.041  16.888  65.908  1.00  0.00    -0.453 OA 
HETATM   38  O   UNL     1     -10.322  17.954  65.941  1.00  0.00    -0.525 OA 
HETATM   39  C   UNL     1      -8.958  17.774  68.239  1.00  0.00    -0.277 C  
HETATM   40  C   UNL     1     -11.066  15.550  68.848  1.00  0.00    -0.282 C  
HETATM   41  C   UNL     1      -7.756  18.728  68.211  1.00  0.00    -0.326 C  
HETATM   42  C   UNL     1     -10.159  18.597  68.754  1.00  0.00    -0.398 C  
HETATM   43  O   UNL     1     -11.585  15.822  69.903  1.00  0.00    -0.308 OA 
ENDBRANCH  30  32
ENDBRANCH  29  30
ENDBRANCH  28  29
ENDBRANCH  27  28
ENDBRANCH  25  27
ENDBRANCH   7  25
TORSDOF 9
ENDMDL
MODEL      184
REMARK 921   NORMALIZED FREE ENERGY PREDICTED BY IDOCK:   -5.07 KCAL/MOL
REMARK 922        TOTAL FREE ENERGY PREDICTED BY IDOCK:   -8.24 KCAL/MOL
REMARK 923 INTER-LIGAND FREE ENERGY PREDICTED BY IDOCK:   -6.97 KCAL/MOL
REMARK 924 INTRA-LIGAND FREE ENERGY PREDICTED BY IDOCK:   -1.27 KCAL/MOL
REMARK 927      BINDING AFFINITY PREDICTED BY RF-SCORE:    0.00 PKD
ROOT
HETATM    1  C   UNL     1      -9.831   8.778  69.706  1.00  0.00    -0.189 C  
HETATM    2  C   UNL     1      -8.379   9.109  69.301  1.00  0.00    -0.123 C  
HETATM    3  S   UNL     1      -7.523   7.490  69.002  1.00  0.00    -0.097 SA 
HETATM    4  C   UNL     1      -8.476   9.913  67.998  1.00  0.00    -0.117 C  
HETATM    5  C   UNL     1      -6.790   7.409  70.707  1.00  0.00    -0.048 C  
HETATM    6  C   UNL     1      -7.603   6.675  71.811  1.00  0.00    -0.093 C  
HETATM    7  C   UNL     1      -7.565   9.775  70.442  1.00  0.00    -0.148 C  
HETATM    8  C   UNL     1      -8.048   8.105  72.216  1.00  0.00    -0.139 C  
HETATM    9  O   UNL     1      -8.938   8.594  72.874  1.00  0.00    -0.343 OA 
HETATM   10  N   UNL     1      -7.173   8.683  71.344  1.00  0.00    -0.085 N  
ENDROOT
BRANCH   6  11
HETATM   11  N   UNL     1      -8.661   5.733  71.357  1.00  0.00    -0.128 N  
HETATM   12  C   UNL     1      -8.360   4.432  71.012  1.00  0.00    -0.088 C  
HETATM   13  O   UNL     1      -7.251   3.941  71.219  1.00  0.00    -0.032 OA 
HETATM   14  H   UNL     1      -9.627   6.055  71.299  1.00  0.00     0.000 HD 
BRANCH  12  15
HETATM   15  C   UNL     1      -9.501   3.654  70.319  1.00  0.00    -0.187 C  
HETATM   16  H2  UNL     1      -8.956   1.826  71.183  1.00  0.00     0.000 HD 
HETATM   17  N   UNL     1      -9.171   2.205  70.261  1.00  0.00    -0.108 NA 
HETATM   18  H1  UNL     1      -9.923   1.691  69.803  1.00  0.00     0.000 HD 
BRANCH  15  19
HETATM   19  C   UNL     1      -9.869   4.209  68.954  1.00  0.00    -0.092 A  
HETATM   20  C   UNL     1     -10.649   5.367  68.801  1.00  0.00    -0.179 A  
HETATM   21  C   UNL     1      -9.370   3.585  67.798  1.00  0.00    -0.246 A  
HETATM   22  C   UNL     1      -9.586   4.145  66.536  1.00  0.00    -0.220 A  
HETATM   23  C   UNL     1     -10.857   5.929  67.541  1.00  0.00    -0.335 A  
HETATM   24  C   UNL     1     -10.313   5.326  66.410  1.00  0.00    -0.315 A  
ENDBRANCH  15  19
ENDBRANCH  12  15
ENDBRANCH   6  11
BRANCH   7  25
HETATM   25  C   UNL     1      -6.251  10.456  69.999  1.00  0.00    -0.093 C  
HETATM   26  O   UNL     1      -5.350   9.918  69.361  1.00  0.00    -0.035 OA 
BRANCH  25  27
HETATM   27  O   UNL     1      -6.196  11.753  70.417  1.00  0.00    -0.221 OA 
BRANCH  27  28
HETATM   28  C   UNL     1      -5.707  12.677  69.440  1.00  0.00    -0.087 C  
BRANCH  28  29
HETATM   29  O   UNL     1      -6.623  13.751  69.253  1.00  0.00    -0.108 OA 
BRANCH  29  30
HETATM   30  C   UNL     1      -7.565  13.575  68.291  1.00  0.00    -0.135 C  
HETATM   31  O   UNL     1      -7.331  13.193  67.152  1.00  0.00    -0.093 OA 
BRANCH  30  32
HETATM   32  C   UNL     1      -8.980  13.890  68.824  1.00  0.00     0.004 C  
HETATM   33  N   UNL     1      -9.965  13.117  68.050  1.00  0.00    -0.227 N  
HETATM   34  C   UNL     1     -10.456  13.699  66.771  1.00  0.00    -0.270 C  
HETATM   35  S   UNL     1      -9.941  15.422  66.935  1.00  0.00    -0.249 S  
HETATM   36  C   UNL     1     -11.864  13.275  67.194  1.00  0.00    -0.424 C  
HETATM   37  O   UNL     1      -8.772  15.635  66.099  1.00  0.00    -0.317 OA 
HETATM   38  O   UNL     1     -11.089  16.300  66.825  1.00  0.00    -0.114 OA 
HETATM   39  C   UNL     1      -9.383  15.376  68.672  1.00  0.00    -0.202 C  
HETATM   40  C   UNL     1     -11.216  12.850  68.519  1.00  0.00    -0.274 C  
HETATM   41  C   UNL     1      -8.268  16.402  68.915  1.00  0.00    -0.235 C  
HETATM   42  C   UNL     1     -10.546  15.761  69.612  1.00  0.00    -0.295 C  
HETATM   43  O   UNL     1     -11.586  12.603  69.641  1.00  0.00    -0.285 OA 
ENDBRANCH  30  32
ENDBRANCH  29  30
ENDBRANCH  28  29
ENDBRANCH  27  28
ENDBRANCH  25  27
ENDBRANCH   7  25
TORSDOF 9
ENDMDL
MODEL      185
REMARK 921   NORMALIZED FREE ENERGY PREDICTED BY IDOCK:   -5.07 KCAL/MOL
REMARK 922        TOTAL FREE ENERGY PREDICTED BY IDOCK:   -8.24 KCAL/MOL
REMARK 923 INTER-LIGAND FREE ENERGY PREDICTED BY IDOCK:   -8.63 KCAL/MOL
REMARK 924 INTRA-LIGAND FREE ENERGY PREDICTED BY IDOCK:    0.39 KCAL/MOL
REMARK 927      BINDING AFFINITY PREDICTED BY RF-SCORE:    0.00 PKD
ROOT
HETATM    1  C   UNL     1      -7.390   8.319  68.795  1.00  0.00    -0.088 C  
HETATM    2  C   UNL     1      -7.959   9.707  68.434  1.00  0.00    -0.096 C  
HETATM    3  S   UNL     1      -9.623   9.420  67.665  1.00  0.00    -0.137 SA 
HETATM    4  C   UNL     1      -8.104  10.463  69.760  1.00  0.00    -0.061 C  
HETATM    5  C   UNL     1      -8.979   9.481  65.924  1.00  0.00    -0.173 C  
HETATM    6  C   UNL     1      -8.543   8.141  65.265  1.00  0.00    -0.106 C  
HETATM    7  C   UNL     1      -7.142  10.432  67.332  1.00  0.00    -0.087 C  
HETATM    8  C   UNL     1      -7.113   8.589  65.667  1.00  0.00    -0.079 C  
HETATM    9  O   UNL     1      -6.033   8.061  65.801  1.00  0.00    -0.037 OA 
HETATM   10  N   UNL     1      -7.550   9.820  66.061  1.00  0.00    -0.099 N  
ENDROOT
BRANCH   6  11
HETATM   11  N   UNL     1      -9.063   6.888  65.876  1.00  0.00    -0.345 N  
HETATM   12  C   UNL     1      -9.088   5.705  65.168  1.00  0.00     0.088 C  
HETATM   13  O   UNL     1      -8.537   5.586  64.075  1.00  0.00    -0.091 OA 
HETATM   14  H   UNL     1      -9.407   6.904  66.836  1.00  0.00     0.000 HD 
BRANCH  12  15
HETATM   15  C   UNL     1      -9.885   4.559  65.830  1.00  0.00    -0.226 C  
HETATM   16  H2  UNL     1     -11.279   4.452  64.271  1.00  0.00     0.000 HD 
HETATM   17  N   UNL     1     -11.270   4.519  65.289  1.00  0.00    -1.016 NA 
HETATM   18  H1  UNL     1     -11.796   3.762  65.725  1.00  0.00     0.000 HD 
BRANCH  15  19
HETATM   19  C   UNL     1      -9.869   4.609  67.348  1.00  0.00    -0.207 A  
HETATM   20  C   UNL     1     -10.507   5.630  68.072  1.00  0.00    -0.264 A  
HETATM   21  C   UNL     1      -9.246   3.574  68.066  1.00  0.00    -0.228 A  
HETATM   22  C   UNL     1      -9.323   3.526  69.460  1.00  0.00    -0.243 A  
HETATM   23  C   UNL     1     -10.591   5.576  69.464  1.00  0.00    -0.366 A  
HETATM   24  C   UNL     1     -10.012   4.517  70.157  1.00  0.00    -0.278 A  
ENDBRANCH  15  19
ENDBRANCH  12  15
ENDBRANCH   6  11
BRANCH   7  25
HETATM   25  C   UNL     1      -7.429  11.944  67.191  1.00  0.00    -0.146 C  
HETATM   26  O   UNL     1      -6.761  12.845  67.690  1.00  0.00    -0.123 OA 
BRANCH  25  27
HETATM   27  O   UNL     1      -8.545  12.172  66.440  1.00  0.00    -0.126 OA 
BRANCH  27  28
HETATM   28  C   UNL     1      -9.647  12.729  67.161  1.00  0.00    -0.219 C  
BRANCH  28  29
HETATM   29  O   UNL     1      -9.427  14.109  67.439  1.00  0.00    -0.208 OA 
BRANCH  29  30
HETATM   30  C   UNL     1      -9.588  14.963  66.397  1.00  0.00    -0.293 C  
HETATM   31  O   UNL     1     -10.487  14.887  65.570  1.00  0.00    -0.309 OA 
BRANCH  30  32
HETATM   32  C   UNL     1      -8.508  16.067  66.401  1.00  0.00    -0.327 C  
HETATM   33  N   UNL     1      -7.605  15.848  67.543  1.00  0.00    -0.146 N  
HETATM   34  C   UNL     1      -8.004  16.413  68.861  1.00  0.00    -0.236 C  
HETATM   35  S   UNL     1      -9.290  17.585  68.381  1.00  0.00    -0.293 S  
HETATM   36  C   UNL     1      -6.557  16.885  69.023  1.00  0.00    -0.209 C  
HETATM   37  O   UNL     1     -10.584  17.009  68.706  1.00  0.00    -0.330 OA 
HETATM   38  O   UNL     1      -8.947  18.918  68.835  1.00  0.00    -0.312 OA 
HETATM   39  C   UNL     1      -9.079  17.494  66.570  1.00  0.00    -0.263 C  
HETATM   40  C   UNL     1      -6.348  16.371  67.591  1.00  0.00    -0.153 C  
HETATM   41  C   UNL     1     -10.406  17.776  65.851  1.00  0.00    -0.257 C  
HETATM   42  C   UNL     1      -8.086  18.577  66.097  1.00  0.00    -0.204 C  
HETATM   43  O   UNL     1      -5.540  16.528  66.709  1.00  0.00    -0.336 OA 
ENDBRANCH  30  32
ENDBRANCH  29  30
ENDBRANCH  28  29
ENDBRANCH  27  28
ENDBRANCH  25  27
ENDBRANCH   7  25
TORSDOF 9
ENDMDL
MODEL      186
REMARK 921   NORMALIZED FREE ENERGY PREDICTED BY IDOCK:   -5.01 KCAL/MOL
REMARK 922        TOTAL FREE ENERGY PREDICTED BY IDOCK:   -8.15 KCAL/MOL
REMARK 923 INTER-LIGAND FREE ENERGY PREDICTED BY IDOCK:   -7.23 KCAL/MOL
REMARK 924 INTRA-LIGAND FREE ENERGY PREDICTED BY IDOCK:   -0.92 KCAL/MOL
REMARK 927      BINDING AFFINITY PREDICTED BY RF-SCORE:    0.00 PKD
ROOT
HETATM    1  C   UNL     1      -7.798   8.312  69.059  1.00  0.00    -0.103 C  
HETATM    2  C   UNL     1      -9.163   8.641  69.699  1.00  0.00    -0.157 C  
HETATM    3  S   UNL     1     -10.208   7.116  69.548  1.00  0.00    -0.201 SA 
HETATM    4  C   UNL     1      -8.875   8.951  71.173  1.00  0.00    -0.297 C  
HETATM    5  C   UNL     1     -11.053   7.684  67.995  1.00  0.00     0.263 C  
HETATM    6  C   UNL     1     -10.419   7.277  66.635  1.00  0.00    -0.134 C  
HETATM    7  C   UNL     1      -9.952   9.731  68.925  1.00  0.00    -0.176 C  
HETATM    8  C   UNL     1      -9.813   8.705  66.667  1.00  0.00    -0.266 C  
HETATM    9  O   UNL     1      -8.909   9.287  66.112  1.00  0.00    -0.141 OA 
HETATM   10  N   UNL     1     -10.544   9.049  67.766  1.00  0.00    -0.239 N  
ENDROOT
BRANCH   6  11
HETATM   11  N   UNL     1      -9.471   6.131  66.648  1.00  0.00    -0.148 N  
HETATM   12  C   UNL     1      -9.881   4.860  66.306  1.00  0.00    -0.209 C  
HETATM   13  O   UNL     1     -10.989   4.639  65.819  1.00  0.00    -0.237 OA 
HETATM   14  H   UNL     1      -8.499   6.289  66.915  1.00  0.00     0.000 HD 
BRANCH  12  15
HETATM   15  C   UNL     1      -8.865   3.736  66.612  1.00  0.00    -0.126 C  
HETATM   16  H2  UNL     1      -9.904   2.310  65.484  1.00  0.00     0.000 HD 
HETATM   17  N   UNL     1      -9.499   2.405  66.415  1.00  0.00    -0.374 NA 
HETATM   18  H1  UNL     1      -8.829   1.663  66.617  1.00  0.00     0.000 HD 
BRANCH  15  19
HETATM   19  C   UNL     1      -8.219   3.862  67.981  1.00  0.00    -0.095 A  
HETATM   20  C   UNL     1      -6.930   4.393  68.156  1.00  0.00    -0.056 A  
HETATM   21  C   UNL     1      -8.947   3.491  69.124  1.00  0.00    -0.179 A  
HETATM   22  C   UNL     1      -8.428   3.713  70.403  1.00  0.00    -0.091 A  
HETATM   23  C   UNL     1      -6.418   4.622  69.433  1.00  0.00    -0.036 A  
HETATM   24  C   UNL     1      -7.172   4.295  70.556  1.00  0.00    -0.041 A  
ENDBRANCH  15  19
ENDBRANCH  12  15
ENDBRANCH   6  11
BRANCH   7  25
HETATM   25  C   UNL     1     -11.131  10.361  69.699  1.00  0.00    -0.276 C  
HETATM   26  O   UNL     1     -12.151   9.772  70.046  1.00  0.00    -0.055 OA 
BRANCH  25  27
HETATM   27  O   UNL     1     -10.913  11.685  69.948  1.00  0.00    -0.058 OA 
BRANCH  27  28
HETATM   28  C   UNL     1     -12.075  12.513  69.836  1.00  0.00    -0.252 C  
BRANCH  28  29
HETATM   29  O   UNL     1     -11.721  13.892  69.880  1.00  0.00    -0.280 OA 
BRANCH  29  30
HETATM   30  C   UNL     1     -11.363  14.456  68.698  1.00  0.00    -0.273 C  
HETATM   31  O   UNL     1     -11.853  14.168  67.614  1.00  0.00    -0.360 OA 
BRANCH  30  32
HETATM   32  C   UNL     1     -10.275  15.534  68.894  1.00  0.00    -0.210 C  
HETATM   33  N   UNL     1     -10.745  16.801  68.309  1.00  0.00    -0.351 N  
HETATM   34  C   UNL     1     -10.519  17.021  66.855  1.00  0.00    -0.268 C  
HETATM   35  S   UNL     1      -9.287  15.754  66.483  1.00  0.00    -0.312 S  
HETATM   36  C   UNL     1     -10.075  18.443  67.206  1.00  0.00    -0.369 C  
HETATM   37  O   UNL     1      -9.946  14.660  65.789  1.00  0.00    -0.306 OA 
HETATM   38  O   UNL     1      -8.096  16.363  65.925  1.00  0.00    -0.201 OA 
HETATM   39  C   UNL     1      -8.939  15.203  68.188  1.00  0.00    -0.174 C  
HETATM   40  C   UNL     1     -10.228  18.008  68.670  1.00  0.00    -0.377 C  
HETATM   41  C   UNL     1      -8.516  13.728  68.209  1.00  0.00    -0.173 C  
HETATM   42  C   UNL     1      -7.758  16.007  68.773  1.00  0.00    -0.187 C  
HETATM   43  O   UNL     1      -9.851  18.399  69.748  1.00  0.00     0.289 OA 
ENDBRANCH  30  32
ENDBRANCH  29  30
ENDBRANCH  28  29
ENDBRANCH  27  28
ENDBRANCH  25  27
ENDBRANCH   7  25
TORSDOF 9
ENDMDL
MODEL      187
REMARK 921   NORMALIZED FREE ENERGY PREDICTED BY IDOCK:   -5.01 KCAL/MOL
REMARK 922        TOTAL FREE ENERGY PREDICTED BY IDOCK:   -8.15 KCAL/MOL
REMARK 923 INTER-LIGAND FREE ENERGY PREDICTED BY IDOCK:   -8.45 KCAL/MOL
REMARK 924 INTRA-LIGAND FREE ENERGY PREDICTED BY IDOCK:    0.30 KCAL/MOL
REMARK 927      BINDING AFFINITY PREDICTED BY RF-SCORE:    0.00 PKD
ROOT
HETATM    1  C   UNL     1     -10.000  14.072  68.229  1.00  0.00    -0.236 C  
HETATM    2  C   UNL     1     -10.546  13.781  66.815  1.00  0.00    -0.273 C  
HETATM    3  S   UNL     1     -12.278  13.152  67.027  1.00  0.00    -0.086 SA 
HETATM    4  C   UNL     1     -10.550  15.126  66.078  1.00  0.00    -0.329 C  
HETATM    5  C   UNL     1     -11.782  11.364  66.958  1.00  0.00     0.090 C  
HETATM    6  C   UNL     1     -11.453  10.651  68.300  1.00  0.00    -0.245 C  
HETATM    7  C   UNL     1      -9.797  12.625  66.099  1.00  0.00    -0.259 C  
HETATM    8  C   UNL     1      -9.978  10.936  67.912  1.00  0.00    -0.176 C  
HETATM    9  O   UNL     1      -8.911  10.971  68.481  1.00  0.00    -0.151 OA 
HETATM   10  N   UNL     1     -10.335  11.384  66.673  1.00  0.00    -0.225 N  
ENDROOT
BRANCH   6  11
HETATM   11  N   UNL     1     -11.966  11.284  69.544  1.00  0.00    -0.338 N  
HETATM   12  C   UNL     1     -11.882  10.642  70.761  1.00  0.00    -0.357 C  
HETATM   13  O   UNL     1     -11.239   9.603  70.908  1.00  0.00    -0.293 OA 
HETATM   14  H   UNL     1     -12.389  12.212  69.497  1.00  0.00     0.000 HD 
BRANCH  12  15
HETATM   15  C   UNL     1     -12.680  11.299  71.910  1.00  0.00    -0.173 C  
HETATM   16  H2  UNL     1     -13.761   9.555  72.332  1.00  0.00     0.000 HD 
HETATM   17  N   UNL     1     -13.938  10.544  72.157  1.00  0.00    -0.115 NA 
HETATM   18  H1  UNL     1     -14.465  10.977  72.915  1.00  0.00     0.000 HD 
BRANCH  15  19
HETATM   19  C   UNL     1     -12.938  12.780  71.697  1.00  0.00    -0.402 A  
HETATM   20  C   UNL     1     -12.161  13.558  70.821  1.00  0.00    -0.417 A  
HETATM   21  C   UNL     1     -14.022  13.392  72.347  1.00  0.00    -0.605 A  
HETATM   22  C   UNL     1     -14.360  14.720  72.074  1.00  0.00    -0.642 A  
HETATM   23  C   UNL     1     -12.506  14.881  70.543  1.00  0.00    -0.419 A  
HETATM   24  C   UNL     1     -13.613  15.458  71.158  1.00  0.00    -0.536 A  
ENDBRANCH  15  19
ENDBRANCH  12  15
ENDBRANCH   6  11
BRANCH   7  25
HETATM   25  C   UNL     1     -10.039  12.532  64.576  1.00  0.00    -0.247 C  
HETATM   26  O   UNL     1     -10.346  13.469  63.845  1.00  0.00    -0.199 OA 
BRANCH  25  27
HETATM   27  O   UNL     1      -9.881  11.254  64.123  1.00  0.00    -0.242 OA 
BRANCH  27  28
HETATM   28  C   UNL     1      -8.868  11.095  63.125  1.00  0.00    -0.105 C  
BRANCH  28  29
HETATM   29  O   UNL     1      -7.829  10.238  63.589  1.00  0.00    -0.157 OA 
BRANCH  29  30
HETATM   30  C   UNL     1      -7.930   8.930  63.241  1.00  0.00    -0.157 C  
HETATM   31  O   UNL     1      -8.714   8.491  62.410  1.00  0.00    -0.179 OA 
BRANCH  30  32
HETATM   32  C   UNL     1      -6.909   8.062  64.008  1.00  0.00    -0.066 C  
HETATM   33  N   UNL     1      -7.276   6.645  63.857  1.00  0.00    -0.059 N  
HETATM   34  C   UNL     1      -8.274   6.080  64.804  1.00  0.00    -0.123 C  
HETATM   35  S   UNL     1      -8.287   7.330  66.107  1.00  0.00    -0.139 S  
HETATM   36  C   UNL     1      -7.368   4.853  64.927  1.00  0.00    -0.068 C  
HETATM   37  O   UNL     1      -9.492   8.130  65.967  1.00  0.00    -0.176 OA 
HETATM   38  O   UNL     1      -7.952   6.728  67.382  1.00  0.00    -0.111 OA 
HETATM   39  C   UNL     1      -6.879   8.339  65.530  1.00  0.00    -0.066 C  
HETATM   40  C   UNL     1      -6.382   5.635  64.046  1.00  0.00    -0.025 C  
HETATM   41  C   UNL     1      -7.050   9.805  65.950  1.00  0.00    -0.102 C  
HETATM   42  C   UNL     1      -5.571   7.845  66.185  1.00  0.00    -0.032 C  
HETATM   43  O   UNL     1      -5.206   5.579  63.778  1.00  0.00    -0.012 OA 
ENDBRANCH  30  32
ENDBRANCH  29  30
ENDBRANCH  28  29
ENDBRANCH  27  28
ENDBRANCH  25  27
ENDBRANCH   7  25
TORSDOF 9
ENDMDL
MODEL      188
REMARK 921   NORMALIZED FREE ENERGY PREDICTED BY IDOCK:   -4.99 KCAL/MOL
REMARK 922        TOTAL FREE ENERGY PREDICTED BY IDOCK:   -8.12 KCAL/MOL
REMARK 923 INTER-LIGAND FREE ENERGY PREDICTED BY IDOCK:   -7.13 KCAL/MOL
REMARK 924 INTRA-LIGAND FREE ENERGY PREDICTED BY IDOCK:   -0.99 KCAL/MOL
REMARK 927      BINDING AFFINITY PREDICTED BY RF-SCORE:    0.00 PKD
ROOT
HETATM    1  C   UNL     1      -9.288   9.895  65.776  1.00  0.00    -0.259 C  
HETATM    2  C   UNL     1      -9.712   9.732  67.250  1.00  0.00    -0.169 C  
HETATM    3  S   UNL     1     -10.481  11.340  67.768  1.00  0.00    -0.197 SA 
HETATM    4  C   UNL     1     -10.755   8.608  67.269  1.00  0.00    -0.209 C  
HETATM    5  C   UNL     1      -8.918  11.998  68.525  1.00  0.00    -0.098 C  
HETATM    6  C   UNL     1      -7.975  12.843  67.622  1.00  0.00    -0.167 C  
HETATM    7  C   UNL     1      -8.509   9.549  68.213  1.00  0.00    -0.119 C  
HETATM    8  C   UNL     1      -7.184  11.516  67.473  1.00  0.00    -0.111 C  
HETATM    9  O   UNL     1      -6.354  11.068  66.715  1.00  0.00    -0.090 OA 
HETATM   10  N   UNL     1      -7.949  10.892  68.415  1.00  0.00    -0.120 N  
ENDROOT
BRANCH   6  11
HETATM   11  N   UNL     1      -8.567  13.427  66.388  1.00  0.00    -0.378 N  
HETATM   12  C   UNL     1      -8.983  14.740  66.348  1.00  0.00    -0.188 C  
HETATM   13  O   UNL     1      -8.738  15.532  67.258  1.00  0.00    -0.175 OA 
HETATM   14  H   UNL     1      -8.666  12.845  65.556  1.00  0.00     0.000 HD 
BRANCH  12  15
HETATM   15  C   UNL     1      -9.806  15.132  65.101  1.00  0.00    -0.135 C  
HETATM   16  H2  UNL     1      -9.778  17.175  65.561  1.00  0.00     0.000 HD 
HETATM   17  N   UNL     1     -10.454  16.455  65.309  1.00  0.00    -0.627 NA 
HETATM   18  H1  UNL     1     -10.998  16.714  64.486  1.00  0.00     0.000 HD 
BRANCH  15  19
HETATM   19  C   UNL     1     -10.805  14.070  64.677  1.00  0.00    -0.416 A  
HETATM   20  C   UNL     1     -10.485  13.068  63.746  1.00  0.00    -0.104 A  
HETATM   21  C   UNL     1     -12.078  14.042  65.273  1.00  0.00    -0.415 A  
HETATM   22  C   UNL     1     -12.972  13.004  64.998  1.00  0.00    -0.199 A  
HETATM   23  C   UNL     1     -11.375  12.027  63.479  1.00  0.00    -0.528 A  
HETATM   24  C   UNL     1     -12.612  11.987  64.116  1.00  0.00    -0.413 A  
ENDBRANCH  15  19
ENDBRANCH  12  15
ENDBRANCH   6  11
BRANCH   7  25
HETATM   25  C   UNL     1      -8.869   9.019  69.620  1.00  0.00    -0.145 C  
HETATM   26  O   UNL     1      -8.895   9.690  70.647  1.00  0.00    -0.200 OA 
BRANCH  25  27
HETATM   27  O   UNL     1      -9.149   7.684  69.593  1.00  0.00    -0.147 OA 
BRANCH  27  28
HETATM   28  C   UNL     1      -8.410   6.900  70.534  1.00  0.00    -0.129 C  
BRANCH  28  29
HETATM   29  O   UNL     1      -8.614   5.508  70.307  1.00  0.00    -0.121 OA 
BRANCH  29  30
HETATM   30  C   UNL     1      -9.374   5.182  69.231  1.00  0.00    -0.123 C  
HETATM   31  O   UNL     1     -10.582   4.988  69.267  1.00  0.00    -0.144 OA 
BRANCH  30  32
HETATM   32  C   UNL     1      -8.526   5.114  67.942  1.00  0.00    -0.104 C  
HETATM   33  N   UNL     1      -9.416   5.243  66.776  1.00  0.00    -0.132 N  
HETATM   34  C   UNL     1     -10.068   4.009  66.260  1.00  0.00    -0.017 C  
HETATM   35  S   UNL     1      -9.084   2.719  67.052  1.00  0.00    -0.136 S  
HETATM   36  C   UNL     1      -9.713   4.490  64.851  1.00  0.00    -0.109 C  
HETATM   37  O   UNL     1      -9.853   2.163  68.152  1.00  0.00    -0.019 OA 
HETATM   38  O   UNL     1      -8.503   1.848  66.051  1.00  0.00    -0.094 OA 
HETATM   39  C   UNL     1      -7.775   3.774  67.764  1.00  0.00    -0.070 C  
HETATM   40  C   UNL     1      -8.964   5.632  65.552  1.00  0.00    -0.104 C  
HETATM   41  C   UNL     1      -7.206   3.148  69.045  1.00  0.00    -0.049 C  
HETATM   42  C   UNL     1      -6.596   3.895  66.774  1.00  0.00    -0.046 C  
HETATM   43  O   UNL     1      -8.114   6.437  65.259  1.00  0.00    -0.122 OA 
ENDBRANCH  30  32
ENDBRANCH  29  30
ENDBRANCH  28  29
ENDBRANCH  27  28
ENDBRANCH  25  27
ENDBRANCH   7  25
TORSDOF 9
ENDMDL
MODEL      189
REMARK 921   NORMALIZED FREE ENERGY PREDICTED BY IDOCK:   -4.98 KCAL/MOL
REMARK 922        TOTAL FREE ENERGY PREDICTED BY IDOCK:   -8.11 KCAL/MOL
REMARK 923 INTER-LIGAND FREE ENERGY PREDICTED BY IDOCK:   -8.20 KCAL/MOL
REMARK 924 INTRA-LIGAND FREE ENERGY PREDICTED BY IDOCK:    0.10 KCAL/MOL
REMARK 927      BINDING AFFINITY PREDICTED BY RF-SCORE:    0.00 PKD
ROOT
HETATM    1  C   UNL     1      -6.114  11.319  66.113  1.00  0.00    -0.034 C  
HETATM    2  C   UNL     1      -6.715  10.383  67.181  1.00  0.00    -0.078 C  
HETATM    3  S   UNL     1      -8.551  10.651  67.158  1.00  0.00    -0.128 SA 
HETATM    4  C   UNL     1      -6.376   8.956  66.732  1.00  0.00    -0.059 C  
HETATM    5  C   UNL     1      -8.527  11.867  68.562  1.00  0.00    -0.113 C  
HETATM    6  C   UNL     1      -8.391  13.376  68.212  1.00  0.00    -0.160 C  
HETATM    7  C   UNL     1      -6.286  10.752  68.626  1.00  0.00    -0.050 C  
HETATM    8  C   UNL     1      -6.892  13.160  68.550  1.00  0.00    -0.099 C  
HETATM    9  O   UNL     1      -5.851  13.739  68.337  1.00  0.00    -0.084 OA 
HETATM   10  N   UNL     1      -7.122  11.897  69.012  1.00  0.00    -0.110 N  
ENDROOT
BRANCH   6  11
HETATM   11  N   UNL     1      -8.726  13.778  66.820  1.00  0.00    -0.424 N  
HETATM   12  C   UNL     1      -9.263  15.017  66.544  1.00  0.00    -0.290 C  
HETATM   13  O   UNL     1      -9.337  15.902  67.396  1.00  0.00    -0.208 OA 
HETATM   14  H   UNL     1      -8.555  13.126  66.055  1.00  0.00     0.000 HD 
BRANCH  12  15
HETATM   15  C   UNL     1      -9.797  15.198  65.105  1.00  0.00    -0.135 C  
HETATM   16  H2  UNL     1      -9.966  17.277  65.289  1.00  0.00     0.000 HD 
HETATM   17  N   UNL     1     -10.534  16.485  64.990  1.00  0.00    -0.655 NA 
HETATM   18  H1  UNL     1     -10.886  16.605  64.041  1.00  0.00     0.000 HD 
BRANCH  15  19
HETATM   19  C   UNL     1     -10.624  14.023  64.615  1.00  0.00    -0.416 A  
HETATM   20  C   UNL     1     -10.065  12.972  63.867  1.00  0.00     0.120 A  
HETATM   21  C   UNL     1     -11.983  13.942  64.963  1.00  0.00    -0.403 A  
HETATM   22  C   UNL     1     -12.738  12.813  64.635  1.00  0.00    -0.439 A  
HETATM   23  C   UNL     1     -10.818  11.842  63.548  1.00  0.00    -0.496 A  
HETATM   24  C   UNL     1     -12.150  11.755  63.944  1.00  0.00    -0.414 A  
ENDBRANCH  15  19
ENDBRANCH  12  15
ENDBRANCH   6  11
BRANCH   7  25
HETATM   25  C   UNL     1      -6.543   9.657  69.686  1.00  0.00    -0.048 C  
HETATM   26  O   UNL     1      -6.779   9.859  70.874  1.00  0.00    -0.265 OA 
BRANCH  25  27
HETATM   27  O   UNL     1      -6.464   8.409  69.144  1.00  0.00    -0.042 OA 
BRANCH  27  28
HETATM   28  C   UNL     1      -6.252   7.357  70.091  1.00  0.00    -0.027 C  
BRANCH  28  29
HETATM   29  O   UNL     1      -7.039   6.215  69.767  1.00  0.00    -0.068 OA 
BRANCH  29  30
HETATM   30  C   UNL     1      -8.385   6.380  69.823  1.00  0.00    -0.127 C  
HETATM   31  O   UNL     1      -9.154   6.135  68.903  1.00  0.00    -0.124 OA 
BRANCH  30  32
HETATM   32  C   UNL     1      -8.833   6.893  71.210  1.00  0.00    -0.135 C  
HETATM   33  N   UNL     1      -9.165   5.739  72.062  1.00  0.00    -0.147 N  
HETATM   34  C   UNL     1     -10.541   5.179  71.967  1.00  0.00    -0.200 C  
HETATM   35  S   UNL     1     -11.418   6.511  71.121  1.00  0.00    -0.335 S  
HETATM   36  C   UNL     1     -10.546   5.106  73.496  1.00  0.00    -0.306 C  
HETATM   37  O   UNL     1     -11.615   6.124  69.734  1.00  0.00    -0.405 OA 
HETATM   38  O   UNL     1     -12.539   6.960  71.923  1.00  0.00    -0.339 OA 
HETATM   39  C   UNL     1     -10.102   7.776  71.165  1.00  0.00    -0.187 C  
HETATM   40  C   UNL     1      -9.187   5.817  73.421  1.00  0.00    -0.132 C  
HETATM   41  C   UNL     1     -10.218   8.725  69.965  1.00  0.00    -0.208 C  
HETATM   42  C   UNL     1     -10.249   8.648  72.431  1.00  0.00    -0.319 C  
HETATM   43  O   UNL     1      -8.476   6.439  74.174  1.00  0.00    -0.118 OA 
ENDBRANCH  30  32
ENDBRANCH  29  30
ENDBRANCH  28  29
ENDBRANCH  27  28
ENDBRANCH  25  27
ENDBRANCH   7  25
TORSDOF 9
ENDMDL
MODEL      190
REMARK 921   NORMALIZED FREE ENERGY PREDICTED BY IDOCK:   -4.94 KCAL/MOL
REMARK 922        TOTAL FREE ENERGY PREDICTED BY IDOCK:   -8.04 KCAL/MOL
REMARK 923 INTER-LIGAND FREE ENERGY PREDICTED BY IDOCK:   -7.82 KCAL/MOL
REMARK 924 INTRA-LIGAND FREE ENERGY PREDICTED BY IDOCK:   -0.22 KCAL/MOL
REMARK 927      BINDING AFFINITY PREDICTED BY RF-SCORE:    0.00 PKD
ROOT
HETATM    1  C   UNL     1      -9.849   9.224  69.182  1.00  0.00    -0.167 C  
HETATM    2  C   UNL     1     -10.114   9.295  67.664  1.00  0.00    -0.214 C  
HETATM    3  S   UNL     1     -10.428   7.558  67.092  1.00  0.00    -0.343 SA 
HETATM    4  C   UNL     1     -11.375  10.151  67.494  1.00  0.00     0.062 C  
HETATM    5  C   UNL     1      -8.676   7.278  66.544  1.00  0.00    -0.133 C  
HETATM    6  C   UNL     1      -7.684   6.666  67.574  1.00  0.00    -0.110 C  
HETATM    7  C   UNL     1      -8.876   9.754  66.850  1.00  0.00    -0.138 C  
HETATM    8  C   UNL     1      -7.240   8.137  67.787  1.00  0.00    -0.091 C  
HETATM    9  O   UNL     1      -6.632   8.757  68.630  1.00  0.00    -0.053 OA 
HETATM   10  N   UNL     1      -8.005   8.576  66.746  1.00  0.00    -0.094 N  
ENDROOT
BRANCH   6  11
HETATM   11  N   UNL     1      -8.274   5.954  68.739  1.00  0.00    -0.102 N  
HETATM   12  C   UNL     1      -7.489   5.527  69.788  1.00  0.00    -0.070 C  
HETATM   13  O   UNL     1      -6.307   5.854  69.896  1.00  0.00    -0.028 OA 
HETATM   14  H   UNL     1      -9.279   5.779  68.762  1.00  0.00     0.000 HD 
BRANCH  12  15
HETATM   15  C   UNL     1      -8.188   4.585  70.794  1.00  0.00    -0.079 C  
HETATM   16  H2  UNL     1      -8.163   2.953  69.483  1.00  0.00     0.000 HD 
HETATM   17  N   UNL     1      -8.828   3.451  70.074  1.00  0.00    -0.080 NA 
HETATM   18  H1  UNL     1      -9.289   2.830  70.737  1.00  0.00     0.000 HD 
BRANCH  15  19
HETATM   19  C   UNL     1      -9.164   5.299  71.712  1.00  0.00    -0.160 A  
HETATM   20  C   UNL     1     -10.160   4.613  72.428  1.00  0.00    -0.239 A  
HETATM   21  C   UNL     1      -9.042   6.686  71.906  1.00  0.00    -0.143 A  
HETATM   22  C   UNL     1      -9.843   7.349  72.839  1.00  0.00    -0.253 A  
HETATM   23  C   UNL     1     -10.952   5.275  73.367  1.00  0.00    -0.372 A  
HETATM   24  C   UNL     1     -10.784   6.640  73.583  1.00  0.00    -0.262 A  
ENDBRANCH  15  19
ENDBRANCH  12  15
ENDBRANCH   6  11
BRANCH   7  25
HETATM   25  C   UNL     1      -9.171  10.197  65.399  1.00  0.00    -0.202 C  
HETATM   26  O   UNL     1      -9.395   9.442  64.456  1.00  0.00    -0.189 OA 
BRANCH  25  27
HETATM   27  O   UNL     1      -9.142  11.555  65.276  1.00  0.00    -0.146 OA 
BRANCH  27  28
HETATM   28  C   UNL     1     -10.419  12.192  65.372  1.00  0.00    -0.270 C  
BRANCH  28  29
HETATM   29  O   UNL     1     -10.396  13.472  64.748  1.00  0.00    -0.388 OA 
BRANCH  29  30
HETATM   30  C   UNL     1     -10.672  14.533  65.549  1.00  0.00    -0.341 C  
HETATM   31  O   UNL     1     -11.123  15.601  65.156  1.00  0.00    -0.371 OA 
BRANCH  30  32
HETATM   32  C   UNL     1     -10.370  14.215  67.030  1.00  0.00    -0.267 C  
HETATM   33  N   UNL     1     -11.569  14.500  67.835  1.00  0.00    -0.328 N  
HETATM   34  C   UNL     1     -11.771  15.896  68.309  1.00  0.00    -0.186 C  
HETATM   35  S   UNL     1     -10.130  16.606  68.061  1.00  0.00    -0.274 S  
HETATM   36  C   UNL     1     -12.156  15.309  69.669  1.00  0.00    -0.342 C  
HETATM   37  O   UNL     1     -10.166  17.447  66.876  1.00  0.00    -0.304 OA 
HETATM   38  O   UNL     1      -9.615  17.125  69.312  1.00  0.00    -0.156 OA 
HETATM   39  C   UNL     1      -9.233  15.076  67.630  1.00  0.00    -0.182 C  
HETATM   40  C   UNL     1     -11.771  13.951  69.064  1.00  0.00    -0.338 C  
HETATM   41  C   UNL     1      -8.055  15.379  66.695  1.00  0.00    -0.133 C  
HETATM   42  C   UNL     1      -8.632  14.439  68.902  1.00  0.00    -0.064 C  
HETATM   43  O   UNL     1     -11.496  12.850  69.476  1.00  0.00    -0.267 OA 
ENDBRANCH  30  32
ENDBRANCH  29  30
ENDBRANCH  28  29
ENDBRANCH  27  28
ENDBRANCH  25  27
ENDBRANCH   7  25
TORSDOF 9
ENDMDL
MODEL      191
REMARK 921   NORMALIZED FREE ENERGY PREDICTED BY IDOCK:   -4.93 KCAL/MOL
REMARK 922        TOTAL FREE ENERGY PREDICTED BY IDOCK:   -8.03 KCAL/MOL
REMARK 923 INTER-LIGAND FREE ENERGY PREDICTED BY IDOCK:   -7.82 KCAL/MOL
REMARK 924 INTRA-LIGAND FREE ENERGY PREDICTED BY IDOCK:   -0.20 KCAL/MOL
REMARK 927      BINDING AFFINITY PREDICTED BY RF-SCORE:    0.00 PKD
ROOT
HETATM    1  C   UNL     1      -8.805   7.460  70.654  1.00  0.00    -0.150 C  
HETATM    2  C   UNL     1      -7.768   8.102  69.709  1.00  0.00    -0.100 C  
HETATM    3  S   UNL     1      -8.196   9.903  69.587  1.00  0.00    -0.180 SA 
HETATM    4  C   UNL     1      -6.405   7.919  70.389  1.00  0.00    -0.037 C  
HETATM    5  C   UNL     1      -9.168   9.704  68.017  1.00  0.00    -0.125 C  
HETATM    6  C   UNL     1     -10.696   9.441  68.140  1.00  0.00    -0.178 C  
HETATM    7  C   UNL     1      -7.866   7.580  68.251  1.00  0.00    -0.122 C  
HETATM    8  C   UNL     1     -10.300   7.956  67.924  1.00  0.00    -0.221 C  
HETATM    9  O   UNL     1     -10.812   6.875  68.105  1.00  0.00    -0.223 OA 
HETATM   10  N   UNL     1      -9.005   8.286  67.648  1.00  0.00    -0.135 N  
ENDROOT
BRANCH   6  11
HETATM   11  N   UNL     1     -11.340   9.794  69.433  1.00  0.00    -0.430 N  
HETATM   12  C   UNL     1     -12.030  10.978  69.588  1.00  0.00    -0.353 C  
HETATM   13  O   UNL     1     -12.288  11.713  68.636  1.00  0.00    -0.394 OA 
HETATM   14  H   UNL     1     -11.272   9.148  70.220  1.00  0.00     0.000 HD 
BRANCH  12  15
HETATM   15  C   UNL     1     -12.419  11.327  71.042  1.00  0.00    -0.400 C  
HETATM   16  H2  UNL     1     -13.174   9.415  71.439  1.00  0.00     0.000 HD 
HETATM   17  N   UNL     1     -13.463  10.388  71.533  1.00  0.00    -0.269 NA 
HETATM   18  H1  UNL     1     -13.721  10.619  72.492  1.00  0.00     0.000 HD 
BRANCH  15  19
HETATM   19  C   UNL     1     -12.827  12.778  71.226  1.00  0.00    -0.355 A  
HETATM   20  C   UNL     1     -13.855  13.163  72.104  1.00  0.00    -0.506 A  
HETATM   21  C   UNL     1     -12.123  13.785  70.544  1.00  0.00    -0.416 A  
HETATM   22  C   UNL     1     -12.391  15.134  70.789  1.00  0.00    -0.415 A  
HETATM   23  C   UNL     1     -14.115  14.511  72.354  1.00  0.00    -0.544 A  
HETATM   24  C   UNL     1     -13.374  15.496  71.708  1.00  0.00    -0.577 A  
ENDBRANCH  15  19
ENDBRANCH  12  15
ENDBRANCH   6  11
BRANCH   7  25
HETATM   25  C   UNL     1      -6.645   7.895  67.357  1.00  0.00    -0.057 C  
HETATM   26  O   UNL     1      -5.470   7.746  67.680  1.00  0.00    -0.030 OA 
BRANCH  25  27
HETATM   27  O   UNL     1      -7.029   8.382  66.143  1.00  0.00    -0.070 OA 
BRANCH  27  28
HETATM   28  C   UNL     1      -6.469   7.695  65.019  1.00  0.00    -0.038 C  
BRANCH  28  29
HETATM   29  O   UNL     1      -6.855   6.324  65.018  1.00  0.00    -0.048 OA 
BRANCH  29  30
HETATM   30  C   UNL     1      -7.286   5.825  63.831  1.00  0.00    -0.060 C  
HETATM   31  O   UNL     1      -6.799   6.101  62.743  1.00  0.00    -0.039 OA 
BRANCH  30  32
HETATM   32  C   UNL     1      -8.457   4.837  64.028  1.00  0.00    -0.132 C  
HETATM   33  N   UNL     1      -8.902   4.896  65.430  1.00  0.00    -0.145 N  
HETATM   34  C   UNL     1      -8.188   4.048  66.422  1.00  0.00    -0.101 C  
HETATM   35  S   UNL     1      -7.310   2.892  65.348  1.00  0.00    -0.072 S  
HETATM   36  C   UNL     1      -9.558   3.676  66.993  1.00  0.00    -0.187 C  
HETATM   37  O   UNL     1      -5.911   3.282  65.297  1.00  0.00    -0.018 OA 
HETATM   38  O   UNL     1      -7.680   1.529  65.671  1.00  0.00    -0.064 OA 
HETATM   39  C   UNL     1      -8.077   3.362  63.759  1.00  0.00    -0.089 C  
HETATM   40  C   UNL     1     -10.139   4.482  65.822  1.00  0.00    -0.255 C  
HETATM   41  C   UNL     1      -7.108   3.121  62.593  1.00  0.00    -0.036 C  
HETATM   42  C   UNL     1      -9.317   2.482  63.489  1.00  0.00    -0.100 C  
HETATM   43  O   UNL     1     -11.202   4.573  65.258  1.00  0.00    -0.155 OA 
ENDBRANCH  30  32
ENDBRANCH  29  30
ENDBRANCH  28  29
ENDBRANCH  27  28
ENDBRANCH  25  27
ENDBRANCH   7  25
TORSDOF 9
ENDMDL
MODEL      192
REMARK 921   NORMALIZED FREE ENERGY PREDICTED BY IDOCK:   -4.92 KCAL/MOL
REMARK 922        TOTAL FREE ENERGY PREDICTED BY IDOCK:   -8.01 KCAL/MOL
REMARK 923 INTER-LIGAND FREE ENERGY PREDICTED BY IDOCK:   -6.77 KCAL/MOL
REMARK 924 INTRA-LIGAND FREE ENERGY PREDICTED BY IDOCK:   -1.24 KCAL/MOL
REMARK 927      BINDING AFFINITY PREDICTED BY RF-SCORE:    0.00 PKD
ROOT
HETATM    1  C   UNL     1      -6.038   6.378  69.848  1.00  0.00    -0.030 C  
HETATM    2  C   UNL     1      -7.223   7.332  70.107  1.00  0.00    -0.074 C  
HETATM    3  S   UNL     1      -8.761   6.426  69.598  1.00  0.00    -0.138 SA 
HETATM    4  C   UNL     1      -7.232   7.597  71.617  1.00  0.00    -0.064 C  
HETATM    5  C   UNL     1      -8.811   7.187  67.904  1.00  0.00    -0.124 C  
HETATM    6  C   UNL     1      -8.092   6.433  66.750  1.00  0.00    -0.109 C  
HETATM    7  C   UNL     1      -7.198   8.593  69.203  1.00  0.00    -0.064 C  
HETATM    8  C   UNL     1      -6.940   7.437  67.020  1.00  0.00    -0.082 C  
HETATM    9  O   UNL     1      -5.760   7.509  66.764  1.00  0.00    -0.026 OA 
HETATM   10  N   UNL     1      -7.701   8.158  67.893  1.00  0.00    -0.111 N  
ENDROOT
BRANCH   6  11
HETATM   11  N   UNL     1      -7.803   4.989  66.963  1.00  0.00    -0.096 N  
HETATM   12  C   UNL     1      -8.642   4.012  66.472  1.00  0.00    -0.110 C  
HETATM   13  O   UNL     1      -9.566   4.271  65.702  1.00  0.00    -0.160 OA 
HETATM   14  H   UNL     1      -6.968   4.717  67.482  1.00  0.00     0.000 HD 
BRANCH  12  15
HETATM   15  C   UNL     1      -8.361   2.583  66.987  1.00  0.00    -0.087 C  
HETATM   16  H2  UNL     1      -9.493   1.675  65.477  1.00  0.00     0.000 HD 
HETATM   17  N   UNL     1      -9.405   1.645  66.492  1.00  0.00    -0.342 NA 
HETATM   18  H1  UNL     1      -9.219   0.702  66.831  1.00  0.00     0.000 HD 
BRANCH  15  19
HETATM   19  C   UNL     1      -8.194   2.505  68.494  1.00  0.00    -0.073 A  
HETATM   20  C   UNL     1      -6.931   2.428  69.106  1.00  0.00    -0.040 A  
HETATM   21  C   UNL     1      -9.330   2.568  69.318  1.00  0.00    -0.183 A  
HETATM   22  C   UNL     1      -9.200   2.626  70.708  1.00  0.00    -0.203 A  
HETATM   23  C   UNL     1      -6.803   2.494  70.494  1.00  0.00    -0.033 A  
HETATM   24  C   UNL     1      -7.937   2.608  71.294  1.00  0.00    -0.048 A  
ENDBRANCH  15  19
ENDBRANCH  12  15
ENDBRANCH   6  11
BRANCH   7  25
HETATM   25  C   UNL     1      -8.126   9.744  69.657  1.00  0.00    -0.154 C  
HETATM   26  O   UNL     1      -9.349   9.751  69.560  1.00  0.00    -0.185 OA 
BRANCH  25  27
HETATM   27  O   UNL     1      -7.413  10.783  70.178  1.00  0.00    -0.074 OA 
BRANCH  27  28
HETATM   28  C   UNL     1      -6.693  11.557  69.214  1.00  0.00    -0.118 C  
BRANCH  28  29
HETATM   29  O   UNL     1      -7.559  12.013  68.179  1.00  0.00    -0.103 OA 
BRANCH  29  30
HETATM   30  C   UNL     1      -8.209  13.182  68.413  1.00  0.00    -0.130 C  
HETATM   31  O   UNL     1      -7.658  14.238  68.692  1.00  0.00    -0.116 OA 
BRANCH  30  32
HETATM   32  C   UNL     1      -9.737  13.019  68.254  1.00  0.00    -0.221 C  
HETATM   33  N   UNL     1     -10.008  12.174  67.080  1.00  0.00    -0.201 N  
HETATM   34  C   UNL     1     -10.069  12.835  65.748  1.00  0.00    -0.286 C  
HETATM   35  S   UNL     1     -10.238  14.572  66.211  1.00  0.00    -0.310 S  
HETATM   36  C   UNL     1     -11.314  11.993  65.460  1.00  0.00    -0.381 C  
HETATM   37  O   UNL     1      -8.957  15.228  66.013  1.00  0.00    -0.292 OA 
HETATM   38  O   UNL     1     -11.444  15.129  65.631  1.00  0.00    -0.303 OA 
HETATM   39  C   UNL     1     -10.480  14.353  68.007  1.00  0.00    -0.237 C  
HETATM   40  C   UNL     1     -11.187  11.513  66.913  1.00  0.00    -0.298 C  
HETATM   41  C   UNL     1      -9.954  15.569  68.781  1.00  0.00    -0.214 C  
HETATM   42  C   UNL     1     -11.987  14.246  68.329  1.00  0.00    -0.346 C  
HETATM   43  O   UNL     1     -11.897  10.977  67.728  1.00  0.00    -0.605 OA 
ENDBRANCH  30  32
ENDBRANCH  29  30
ENDBRANCH  28  29
ENDBRANCH  27  28
ENDBRANCH  25  27
ENDBRANCH   7  25
TORSDOF 9
ENDMDL
MODEL      193
REMARK 921   NORMALIZED FREE ENERGY PREDICTED BY IDOCK:   -4.92 KCAL/MOL
REMARK 922        TOTAL FREE ENERGY PREDICTED BY IDOCK:   -8.01 KCAL/MOL
REMARK 923 INTER-LIGAND FREE ENERGY PREDICTED BY IDOCK:   -7.71 KCAL/MOL
REMARK 924 INTRA-LIGAND FREE ENERGY PREDICTED BY IDOCK:   -0.29 KCAL/MOL
REMARK 927      BINDING AFFINITY PREDICTED BY RF-SCORE:    0.00 PKD
ROOT
HETATM    1  C   UNL     1     -11.233   5.510  71.589  1.00  0.00    -0.135 C  
HETATM    2  C   UNL     1     -10.085   5.202  72.572  1.00  0.00    -0.180 C  
HETATM    3  S   UNL     1     -10.085   6.557  73.839  1.00  0.00    -0.339 SA 
HETATM    4  C   UNL     1     -10.434   3.858  73.223  1.00  0.00    -0.256 C  
HETATM    5  C   UNL     1      -8.776   7.550  72.973  1.00  0.00    -0.149 C  
HETATM    6  C   UNL     1      -9.240   8.627  71.952  1.00  0.00    -0.275 C  
HETATM    7  C   UNL     1      -8.681   5.284  71.915  1.00  0.00    -0.131 C  
HETATM    8  C   UNL     1      -8.921   7.537  70.894  1.00  0.00    -0.149 C  
HETATM    9  O   UNL     1      -9.201   7.329  69.736  1.00  0.00    -0.142 OA 
HETATM   10  N   UNL     1      -8.362   6.716  71.830  1.00  0.00    -0.114 N  
ENDROOT
BRANCH   6  11
HETATM   11  N   UNL     1     -10.650   9.089  72.052  1.00  0.00    -0.325 N  
HETATM   12  C   UNL     1     -11.207   9.898  71.085  1.00  0.00    -0.334 C  
HETATM   13  O   UNL     1     -10.634  10.139  70.024  1.00  0.00    -0.262 OA 
HETATM   14  H   UNL     1     -11.215   8.802  72.851  1.00  0.00     0.000 HD 
BRANCH  12  15
HETATM   15  C   UNL     1     -12.581  10.506  71.447  1.00  0.00    -0.434 C  
HETATM   16  H2  UNL     1     -13.645   8.828  70.788  1.00  0.00     0.000 HD 
HETATM   17  N   UNL     1     -13.658   9.840  70.667  1.00  0.00    -0.539 NA 
HETATM   18  H1  UNL     1     -14.565  10.241  70.906  1.00  0.00     0.000 HD 
BRANCH  15  19
HETATM   19  C   UNL     1     -12.629  12.018  71.307  1.00  0.00    -0.357 A  
HETATM   20  C   UNL     1     -11.952  12.698  70.280  1.00  0.00    -0.363 A  
HETATM   21  C   UNL     1     -13.420  12.769  72.193  1.00  0.00    -0.591 A  
HETATM   22  C   UNL     1     -13.584  14.144  72.013  1.00  0.00    -0.540 A  
HETATM   23  C   UNL     1     -12.125  14.070  70.096  1.00  0.00    -0.419 A  
HETATM   24  C   UNL     1     -12.952  14.791  70.953  1.00  0.00    -0.422 A  
ENDBRANCH  15  19
ENDBRANCH  12  15
ENDBRANCH   6  11
BRANCH   7  25
HETATM   25  C   UNL     1      -7.537   4.638  72.728  1.00  0.00    -0.087 C  
HETATM   26  O   UNL     1      -7.019   5.117  73.732  1.00  0.00    -0.077 OA 
BRANCH  25  27
HETATM   27  O   UNL     1      -7.146   3.451  72.182  1.00  0.00    -0.039 OA 
BRANCH  27  28
HETATM   28  C   UNL     1      -5.962   3.521  71.383  1.00  0.00    -0.014 C  
BRANCH  28  29
HETATM   29  O   UNL     1      -6.263   3.305  70.007  1.00  0.00    -0.026 OA 
BRANCH  29  30
HETATM   30  C   UNL     1      -6.256   4.405  69.213  1.00  0.00    -0.028 C  
HETATM   31  O   UNL     1      -6.172   5.556  69.621  1.00  0.00    -0.026 OA 
BRANCH  30  32
HETATM   32  C   UNL     1      -6.339   4.022  67.719  1.00  0.00    -0.037 C  
HETATM   33  N   UNL     1      -6.701   5.217  66.938  1.00  0.00    -0.057 N  
HETATM   34  C   UNL     1      -8.146   5.546  66.802  1.00  0.00    -0.105 C  
HETATM   35  S   UNL     1      -8.922   3.996  67.309  1.00  0.00    -0.145 S  
HETATM   36  C   UNL     1      -7.877   5.822  65.321  1.00  0.00    -0.106 C  
HETATM   37  O   UNL     1      -9.440   4.159  68.656  1.00  0.00    -0.147 OA 
HETATM   38  O   UNL     1      -9.777   3.496  66.251  1.00  0.00    -0.142 OA 
HETATM   39  C   UNL     1      -7.421   2.961  67.410  1.00  0.00    -0.061 C  
HETATM   40  C   UNL     1      -6.453   5.319  65.603  1.00  0.00    -0.040 C  
HETATM   41  C   UNL     1      -7.593   1.852  68.457  1.00  0.00    -0.046 C  
HETATM   42  C   UNL     1      -7.174   2.255  66.060  1.00  0.00    -0.064 C  
HETATM   43  O   UNL     1      -5.517   4.918  64.955  1.00  0.00    -0.013 OA 
ENDBRANCH  30  32
ENDBRANCH  29  30
ENDBRANCH  28  29
ENDBRANCH  27  28
ENDBRANCH  25  27
ENDBRANCH   7  25
TORSDOF 9
ENDMDL
MODEL      194
REMARK 921   NORMALIZED FREE ENERGY PREDICTED BY IDOCK:   -4.91 KCAL/MOL
REMARK 922        TOTAL FREE ENERGY PREDICTED BY IDOCK:   -8.00 KCAL/MOL
REMARK 923 INTER-LIGAND FREE ENERGY PREDICTED BY IDOCK:   -7.74 KCAL/MOL
REMARK 924 INTRA-LIGAND FREE ENERGY PREDICTED BY IDOCK:   -0.27 KCAL/MOL
REMARK 927      BINDING AFFINITY PREDICTED BY RF-SCORE:    0.00 PKD
ROOT
HETATM    1  C   UNL     1     -10.084  10.688  69.401  1.00  0.00    -0.199 C  
HETATM    2  C   UNL     1     -10.545  10.679  67.928  1.00  0.00    -0.228 C  
HETATM    3  S   UNL     1     -10.643   8.901  67.408  1.00  0.00    -0.164 SA 
HETATM    4  C   UNL     1     -11.938  11.319  67.917  1.00  0.00    -0.080 C  
HETATM    5  C   UNL     1      -8.950   8.891  66.643  1.00  0.00    -0.136 C  
HETATM    6  C   UNL     1      -7.752   8.470  67.541  1.00  0.00    -0.098 C  
HETATM    7  C   UNL     1      -9.507  11.310  66.961  1.00  0.00    -0.171 C  
HETATM    8  C   UNL     1      -7.528   9.998  67.690  1.00  0.00    -0.090 C  
HETATM    9  O   UNL     1      -6.929  10.727  68.447  1.00  0.00    -0.066 OA 
HETATM   10  N   UNL     1      -8.478  10.283  66.753  1.00  0.00    -0.123 N  
ENDROOT
BRANCH   6  11
HETATM   11  N   UNL     1      -8.070   7.702  68.774  1.00  0.00    -0.125 N  
HETATM   12  C   UNL     1      -7.091   7.387  69.692  1.00  0.00    -0.072 C  
HETATM   13  O   UNL     1      -5.957   7.859  69.626  1.00  0.00    -0.026 OA 
HETATM   14  H   UNL     1      -9.031   7.403  68.945  1.00  0.00     0.000 HD 
BRANCH  12  15
HETATM   15  C   UNL     1      -7.511   6.375  70.782  1.00  0.00    -0.087 C  
HETATM   16  H2  UNL     1      -6.507   4.778  69.872  1.00  0.00     0.000 HD 
HETATM   17  N   UNL     1      -7.430   4.987  70.252  1.00  0.00    -0.058 NA 
HETATM   18  H1  UNL     1      -7.707   4.320  70.971  1.00  0.00     0.000 HD 
BRANCH  15  19
HETATM   19  C   UNL     1      -8.870   6.673  71.392  1.00  0.00    -0.139 A  
HETATM   20  C   UNL     1      -9.929   5.750  71.351  1.00  0.00    -0.234 A  
HETATM   21  C   UNL     1      -9.070   7.886  72.072  1.00  0.00    -0.198 A  
HETATM   22  C   UNL     1     -10.266   8.134  72.751  1.00  0.00    -0.372 A  
HETATM   23  C   UNL     1     -11.119   5.996  72.037  1.00  0.00    -0.325 A  
HETATM   24  C   UNL     1     -11.282   7.181  72.749  1.00  0.00    -0.314 A  
ENDBRANCH  15  19
ENDBRANCH  12  15
ENDBRANCH   6  11
BRANCH   7  25
HETATM   25  C   UNL     1     -10.049  11.664  65.558  1.00  0.00    -0.246 C  
HETATM   26  O   UNL     1     -10.533  10.867  64.760  1.00  0.00    -0.328 OA 
BRANCH  25  27
HETATM   27  O   UNL     1      -9.913  12.995  65.292  1.00  0.00    -0.255 OA 
BRANCH  27  28
HETATM   28  C   UNL     1     -10.650  13.857  66.165  1.00  0.00    -0.291 C  
BRANCH  28  29
HETATM   29  O   UNL     1     -10.535  15.216  65.753  1.00  0.00    -0.297 OA 
BRANCH  29  30
HETATM   30  C   UNL     1     -10.141  16.099  66.706  1.00  0.00    -0.271 C  
HETATM   31  O   UNL     1     -10.897  16.656  67.491  1.00  0.00    -0.305 OA 
BRANCH  30  32
HETATM   32  C   UNL     1      -8.609  16.294  66.695  1.00  0.00    -0.267 C  
HETATM   33  N   UNL     1      -8.041  15.683  67.908  1.00  0.00    -0.138 N  
HETATM   34  C   UNL     1      -8.008  16.503  69.149  1.00  0.00    -0.182 C  
HETATM   35  S   UNL     1      -8.287  18.163  68.495  1.00  0.00    -0.278 S  
HETATM   36  C   UNL     1      -6.581  15.995  69.369  1.00  0.00    -0.182 C  
HETATM   37  O   UNL     1      -9.660  18.544  68.779  1.00  0.00    -0.345 OA 
HETATM   38  O   UNL     1      -7.193  19.037  68.866  1.00  0.00    -0.311 OA 
HETATM   39  C   UNL     1      -8.172  17.777  66.715  1.00  0.00    -0.250 C  
HETATM   40  C   UNL     1      -6.731  15.320  67.998  1.00  0.00    -0.144 C  
HETATM   41  C   UNL     1      -9.035  18.743  65.891  1.00  0.00     0.190 C  
HETATM   42  C   UNL     1      -6.719  17.961  66.226  1.00  0.00    -0.294 C  
HETATM   43  O   UNL     1      -5.997  14.853  67.161  1.00  0.00    -0.236 OA 
ENDBRANCH  30  32
ENDBRANCH  29  30
ENDBRANCH  28  29
ENDBRANCH  27  28
ENDBRANCH  25  27
ENDBRANCH   7  25
TORSDOF 9
ENDMDL
MODEL      195
REMARK 921   NORMALIZED FREE ENERGY PREDICTED BY IDOCK:   -4.91 KCAL/MOL
REMARK 922        TOTAL FREE ENERGY PREDICTED BY IDOCK:   -7.99 KCAL/MOL
REMARK 923 INTER-LIGAND FREE ENERGY PREDICTED BY IDOCK:   -8.14 KCAL/MOL
REMARK 924 INTRA-LIGAND FREE ENERGY PREDICTED BY IDOCK:    0.14 KCAL/MOL
REMARK 927      BINDING AFFINITY PREDICTED BY RF-SCORE:    0.00 PKD
ROOT
HETATM    1  C   UNL     1      -7.541   6.000  68.138  1.00  0.00    -0.094 C  
HETATM    2  C   UNL     1      -7.726   7.449  67.640  1.00  0.00    -0.112 C  
HETATM    3  S   UNL     1      -8.852   8.292  68.849  1.00  0.00    -0.140 SA 
HETATM    4  C   UNL     1      -6.332   8.088  67.669  1.00  0.00    -0.052 C  
HETATM    5  C   UNL     1     -10.382   7.989  67.841  1.00  0.00    -0.222 C  
HETATM    6  C   UNL     1     -11.193   6.693  68.126  1.00  0.00    -0.111 C  
HETATM    7  C   UNL     1      -8.476   7.535  66.284  1.00  0.00    -0.140 C  
HETATM    8  C   UNL     1     -10.433   6.133  66.894  1.00  0.00    -0.276 C  
HETATM    9  O   UNL     1     -10.194   5.041  66.432  1.00  0.00    -0.219 OA 
HETATM   10  N   UNL     1      -9.899   7.354  66.601  1.00  0.00    -0.209 N  
ENDROOT
BRANCH   6  11
HETATM   11  N   UNL     1     -10.959   6.025  69.434  1.00  0.00    -0.367 N  
HETATM   12  C   UNL     1     -11.581   6.465  70.583  1.00  0.00    -0.347 C  
HETATM   13  O   UNL     1     -12.475   7.311  70.559  1.00  0.00    -0.122 OA 
HETATM   14  H   UNL     1     -10.328   5.226  69.482  1.00  0.00     0.000 HD 
BRANCH  12  15
HETATM   15  C   UNL     1     -11.051   5.849  71.896  1.00  0.00    -0.268 C  
HETATM   16  H2  UNL     1     -12.665   6.549  73.031  1.00  0.00     0.000 HD 
HETATM   17  N   UNL     1     -11.647   6.547  73.067  1.00  0.00    -0.473 NA 
HETATM   18  H1  UNL     1     -11.297   6.140  73.934  1.00  0.00     0.000 HD 
BRANCH  15  19
HETATM   19  C   UNL     1      -9.535   5.801  71.973  1.00  0.00    -0.166 A  
HETATM   20  C   UNL     1      -8.758   6.951  72.190  1.00  0.00    -0.131 A  
HETATM   21  C   UNL     1      -8.878   4.562  71.882  1.00  0.00    -0.137 A  
HETATM   22  C   UNL     1      -7.497   4.470  72.075  1.00  0.00    -0.082 A  
HETATM   23  C   UNL     1      -7.380   6.857  72.391  1.00  0.00    -0.086 A  
HETATM   24  C   UNL     1      -6.752   5.615  72.348  1.00  0.00    -0.071 A  
ENDBRANCH  15  19
ENDBRANCH  12  15
ENDBRANCH   6  11
BRANCH   7  25
HETATM   25  C   UNL     1      -8.369   8.897  65.561  1.00  0.00    -0.136 C  
HETATM   26  O   UNL     1      -9.313   9.541  65.113  1.00  0.00    -0.248 OA 
BRANCH  25  27
HETATM   27  O   UNL     1      -7.072   9.308  65.461  1.00  0.00    -0.083 OA 
BRANCH  27  28
HETATM   28  C   UNL     1      -6.838  10.655  65.884  1.00  0.00    -0.115 C  
BRANCH  28  29
HETATM   29  O   UNL     1      -8.063  11.310  66.197  1.00  0.00    -0.149 OA 
BRANCH  29  30
HETATM   30  C   UNL     1      -8.025  12.189  67.231  1.00  0.00    -0.176 C  
HETATM   31  O   UNL     1      -7.008  12.724  67.650  1.00  0.00    -0.116 OA 
BRANCH  30  32
HETATM   32  C   UNL     1      -9.437  12.454  67.797  1.00  0.00    -0.199 C  
HETATM   33  N   UNL     1     -10.434  12.160  66.754  1.00  0.00    -0.216 N  
HETATM   34  C   UNL     1     -10.761  13.238  65.782  1.00  0.00    -0.277 C  
HETATM   35  S   UNL     1     -10.086  14.693  66.611  1.00  0.00    -0.282 S  
HETATM   36  C   UNL     1     -12.234  12.865  65.964  1.00  0.00    -0.431 C  
HETATM   37  O   UNL     1      -8.839  15.057  65.959  1.00  0.00    -0.153 OA 
HETATM   38  O   UNL     1     -11.125  15.683  66.809  1.00  0.00    -0.284 OA 
HETATM   39  C   UNL     1      -9.672  13.925  68.215  1.00  0.00    -0.223 C  
HETATM   40  C   UNL     1     -11.738  11.894  67.044  1.00  0.00    -0.227 C  
HETATM   41  C   UNL     1      -8.479  14.636  68.868  1.00  0.00    -0.136 C  
HETATM   42  C   UNL     1     -10.859  14.069  69.192  1.00  0.00    -0.235 C  
HETATM   43  O   UNL     1     -12.218  11.290  67.973  1.00  0.00    -0.621 OA 
ENDBRANCH  30  32
ENDBRANCH  29  30
ENDBRANCH  28  29
ENDBRANCH  27  28
ENDBRANCH  25  27
ENDBRANCH   7  25
TORSDOF 9
ENDMDL
MODEL      196
REMARK 921   NORMALIZED FREE ENERGY PREDICTED BY IDOCK:   -4.90 KCAL/MOL
REMARK 922        TOTAL FREE ENERGY PREDICTED BY IDOCK:   -7.98 KCAL/MOL
REMARK 923 INTER-LIGAND FREE ENERGY PREDICTED BY IDOCK:   -8.39 KCAL/MOL
REMARK 924 INTRA-LIGAND FREE ENERGY PREDICTED BY IDOCK:    0.41 KCAL/MOL
REMARK 927      BINDING AFFINITY PREDICTED BY RF-SCORE:    0.00 PKD
ROOT
HETATM    1  C   UNL     1     -11.982  12.173  65.202  1.00  0.00    -0.324 C  
HETATM    2  C   UNL     1     -11.250  13.505  65.469  1.00  0.00    -0.292 C  
HETATM    3  S   UNL     1      -9.453  13.096  65.687  1.00  0.00     0.225 SA 
HETATM    4  C   UNL     1     -11.457  14.360  64.213  1.00  0.00    -0.226 C  
HETATM    5  C   UNL     1      -9.552  13.039  67.540  1.00  0.00    -0.204 C  
HETATM    6  C   UNL     1      -9.853  11.667  68.208  1.00  0.00    -0.199 C  
HETATM    7  C   UNL     1     -11.662  14.169  66.810  1.00  0.00    -0.410 C  
HETATM    8  C   UNL     1     -11.309  12.199  68.282  1.00  0.00    -0.289 C  
HETATM    9  O   UNL     1     -12.411  11.724  68.440  1.00  0.00    -0.364 OA 
HETATM   10  N   UNL     1     -10.934  13.441  67.858  1.00  0.00    -0.249 N  
ENDROOT
BRANCH   6  11
HETATM   11  N   UNL     1      -9.611  10.450  67.389  1.00  0.00    -0.153 N  
HETATM   12  C   UNL     1      -9.719   9.188  67.934  1.00  0.00    -0.154 C  
HETATM   13  O   UNL     1     -10.176   9.000  69.061  1.00  0.00    -0.194 OA 
HETATM   14  H   UNL     1      -9.362  10.550  66.405  1.00  0.00     0.000 HD 
BRANCH  12  15
HETATM   15  C   UNL     1      -9.192   8.039  67.045  1.00  0.00    -0.147 C  
HETATM   16  H2  UNL     1     -10.201   8.719  65.341  1.00  0.00     0.000 HD 
HETATM   17  N   UNL     1     -10.081   7.854  65.867  1.00  0.00    -0.138 NA 
HETATM   18  H1  UNL     1      -9.733   7.096  65.281  1.00  0.00     0.000 HD 
BRANCH  15  19
HETATM   19  C   UNL     1      -8.972   6.742  67.802  1.00  0.00    -0.116 A  
HETATM   20  C   UNL     1      -7.733   6.406  68.373  1.00  0.00    -0.104 A  
HETATM   21  C   UNL     1     -10.053   5.864  67.995  1.00  0.00    -0.194 A  
HETATM   22  C   UNL     1      -9.913   4.725  68.793  1.00  0.00    -0.182 A  
HETATM   23  C   UNL     1      -7.598   5.274  69.177  1.00  0.00    -0.074 A  
HETATM   24  C   UNL     1      -8.691   4.442  69.399  1.00  0.00    -0.121 A  
ENDBRANCH  15  19
ENDBRANCH  12  15
ENDBRANCH   6  11
BRANCH   7  25
HETATM   25  C   UNL     1     -11.257  15.653  66.959  1.00  0.00    -0.127 C  
HETATM   26  O   UNL     1     -10.782  16.354  66.070  1.00  0.00    -0.284 OA 
BRANCH  25  27
HETATM   27  O   UNL     1     -11.479  16.105  68.227  1.00  0.00    -0.348 OA 
BRANCH  27  28
HETATM   28  C   UNL     1     -10.298  16.478  68.944  1.00  0.00    -0.292 C  
BRANCH  28  29
HETATM   29  O   UNL     1     -10.331  17.858  69.295  1.00  0.00    -0.290 OA 
BRANCH  29  30
HETATM   30  C   UNL     1      -9.661  18.702  68.470  1.00  0.00    -0.370 C  
HETATM   31  O   UNL     1      -9.931  19.886  68.320  1.00  0.00    -0.408 OA 
BRANCH  30  32
HETATM   32  C   UNL     1      -8.491  17.986  67.761  1.00  0.00    -0.247 C  
HETATM   33  N   UNL     1      -7.549  17.488  68.776  1.00  0.00    -0.267 N  
HETATM   34  C   UNL     1      -6.505  18.424  69.275  1.00  0.00    -0.257 C  
HETATM   35  S   UNL     1      -6.554  19.723  68.022  1.00  0.00    -0.257 S  
HETATM   36  C   UNL     1      -5.505  17.273  69.149  1.00  0.00    -0.165 C  
HETATM   37  O   UNL     1      -7.254  20.870  68.575  1.00  0.00     0.095 OA 
HETATM   38  O   UNL     1      -5.246  19.884  67.418  1.00  0.00    -0.164 OA 
HETATM   39  C   UNL     1      -7.671  18.910  66.829  1.00  0.00    -0.240 C  
HETATM   40  C   UNL     1      -6.664  16.484  68.522  1.00  0.00    -0.145 C  
HETATM   41  C   UNL     1      -8.475  19.951  66.038  1.00  0.00    -0.291 C  
HETATM   42  C   UNL     1      -6.850  18.111  65.795  1.00  0.00    -0.305 C  
HETATM   43  O   UNL     1      -6.789  15.493  67.844  1.00  0.00    -0.121 OA 
ENDBRANCH  30  32
ENDBRANCH  29  30
ENDBRANCH  28  29
ENDBRANCH  27  28
ENDBRANCH  25  27
ENDBRANCH   7  25
TORSDOF 9
ENDMDL
MODEL      197
REMARK 921   NORMALIZED FREE ENERGY PREDICTED BY IDOCK:   -4.89 KCAL/MOL
REMARK 922        TOTAL FREE ENERGY PREDICTED BY IDOCK:   -7.96 KCAL/MOL
REMARK 923 INTER-LIGAND FREE ENERGY PREDICTED BY IDOCK:   -7.37 KCAL/MOL
REMARK 924 INTRA-LIGAND FREE ENERGY PREDICTED BY IDOCK:   -0.59 KCAL/MOL
REMARK 927      BINDING AFFINITY PREDICTED BY RF-SCORE:    0.00 PKD
ROOT
HETATM    1  C   UNL     1     -10.496   8.638  67.441  1.00  0.00    -0.351 C  
HETATM    2  C   UNL     1      -9.024   9.067  67.267  1.00  0.00    -0.127 C  
HETATM    3  S   UNL     1      -7.985   7.755  68.068  1.00  0.00    -0.123 SA 
HETATM    4  C   UNL     1      -8.771   9.103  65.755  1.00  0.00    -0.192 C  
HETATM    5  C   UNL     1      -7.826   8.672  69.675  1.00  0.00    -0.094 C  
HETATM    6  C   UNL     1      -8.882   8.385  70.781  1.00  0.00    -0.151 C  
HETATM    7  C   UNL     1      -8.673  10.366  68.039  1.00  0.00    -0.123 C  
HETATM    8  C   UNL     1      -9.552   9.684  70.261  1.00  0.00    -0.254 C  
HETATM    9  O   UNL     1     -10.642  10.203  70.340  1.00  0.00    -0.290 OA 
HETATM   10  N   UNL     1      -8.497   9.964  69.441  1.00  0.00    -0.151 N  
ENDROOT
BRANCH   6  11
HETATM   11  N   UNL     1      -9.658   7.122  70.661  1.00  0.00    -0.165 N  
HETATM   12  C   UNL     1      -9.048   5.892  70.793  1.00  0.00    -0.153 C  
HETATM   13  O   UNL     1      -7.884   5.778  71.176  1.00  0.00    -0.105 OA 
HETATM   14  H   UNL     1     -10.661   7.165  70.478  1.00  0.00     0.000 HD 
BRANCH  12  15
HETATM   15  C   UNL     1      -9.917   4.679  70.391  1.00  0.00    -0.230 C  
HETATM   16  H2  UNL     1     -10.039   3.951  72.351  1.00  0.00     0.000 HD 
HETATM   17  N   UNL     1      -9.809   3.609  71.418  1.00  0.00    -0.173 NA 
HETATM   18  H1  UNL     1     -10.382   2.808  71.153  1.00  0.00     0.000 HD 
BRANCH  15  19
HETATM   19  C   UNL     1      -9.621   4.160  68.995  1.00  0.00    -0.232 A  
HETATM   20  C   UNL     1     -10.100   4.801  67.839  1.00  0.00    -0.119 A  
HETATM   21  C   UNL     1      -8.794   3.035  68.838  1.00  0.00    -0.158 A  
HETATM   22  C   UNL     1      -8.402   2.610  67.566  1.00  0.00    -0.094 A  
HETATM   23  C   UNL     1      -9.700   4.380  66.570  1.00  0.00    -0.230 A  
HETATM   24  C   UNL     1      -8.840   3.295  66.434  1.00  0.00    -0.144 A  
ENDBRANCH  15  19
ENDBRANCH  12  15
ENDBRANCH   6  11
BRANCH   7  25
HETATM   25  C   UNL     1      -7.348  11.042  67.618  1.00  0.00    -0.094 C  
HETATM   26  O   UNL     1      -6.259  10.868  68.156  1.00  0.00    -0.050 OA 
BRANCH  25  27
HETATM   27  O   UNL     1      -7.532  11.885  66.562  1.00  0.00    -0.004 OA 
BRANCH  27  28
HETATM   28  C   UNL     1      -8.575  12.848  66.742  1.00  0.00    -0.063 C  
BRANCH  28  29
HETATM   29  O   UNL     1      -8.041  14.107  67.140  1.00  0.00    -0.182 OA 
BRANCH  29  30
HETATM   30  C   UNL     1      -8.723  15.205  66.725  1.00  0.00    -0.273 C  
HETATM   31  O   UNL     1      -9.298  15.300  65.649  1.00  0.00    -0.282 OA 
BRANCH  30  32
HETATM   32  C   UNL     1      -8.708  16.317  67.798  1.00  0.00    -0.179 C  
HETATM   33  N   UNL     1      -9.806  17.259  67.526  1.00  0.00    -0.268 N  
HETATM   34  C   UNL     1      -9.551  18.363  66.562  1.00  0.00    -0.327 C  
HETATM   35  S   UNL     1      -7.748  18.348  66.460  1.00  0.00    -0.263 S  
HETATM   36  C   UNL     1     -10.256  19.298  67.547  1.00  0.00    -0.514 C  
HETATM   37  O   UNL     1      -7.363  17.725  65.205  1.00  0.00    -0.185 OA 
HETATM   38  O   UNL     1      -7.216  19.645  66.827  1.00  0.00    -0.215 OA 
HETATM   39  C   UNL     1      -7.409  17.158  67.801  1.00  0.00    -0.169 C  
HETATM   40  C   UNL     1     -10.315  18.083  68.484  1.00  0.00    -0.349 C  
HETATM   41  C   UNL     1      -6.110  16.387  67.531  1.00  0.00    -0.183 C  
HETATM   42  C   UNL     1      -7.206  17.907  69.136  1.00  0.00    -0.153 C  
HETATM   43  O   UNL     1     -10.489  17.888  69.662  1.00  0.00     0.040 OA 
ENDBRANCH  30  32
ENDBRANCH  29  30
ENDBRANCH  28  29
ENDBRANCH  27  28
ENDBRANCH  25  27
ENDBRANCH   7  25
TORSDOF 9
ENDMDL
MODEL      198
REMARK 921   NORMALIZED FREE ENERGY PREDICTED BY IDOCK:   -4.88 KCAL/MOL
REMARK 922        TOTAL FREE ENERGY PREDICTED BY IDOCK:   -7.95 KCAL/MOL
REMARK 923 INTER-LIGAND FREE ENERGY PREDICTED BY IDOCK:   -7.24 KCAL/MOL
REMARK 924 INTRA-LIGAND FREE ENERGY PREDICTED BY IDOCK:   -0.71 KCAL/MOL
REMARK 927      BINDING AFFINITY PREDICTED BY RF-SCORE:    0.00 PKD
ROOT
HETATM    1  C   UNL     1     -11.335   8.885  69.746  1.00  0.00     0.072 C  
HETATM    2  C   UNL     1      -9.812   8.833  69.992  1.00  0.00    -0.178 C  
HETATM    3  S   UNL     1      -9.102  10.397  69.291  1.00  0.00    -0.140 SA 
HETATM    4  C   UNL     1      -9.630   8.796  71.514  1.00  0.00    -0.354 C  
HETATM    5  C   UNL     1      -8.639   9.620  67.669  1.00  0.00    -0.126 C  
HETATM    6  C   UNL     1      -9.679   9.680  66.514  1.00  0.00    -0.212 C  
HETATM    7  C   UNL     1      -9.106   7.698  69.203  1.00  0.00    -0.141 C  
HETATM    8  C   UNL     1     -10.021   8.232  66.956  1.00  0.00    -0.255 C  
HETATM    9  O   UNL     1     -10.940   7.461  66.799  1.00  0.00    -0.249 OA 
HETATM   10  N   UNL     1      -8.971   8.192  67.826  1.00  0.00    -0.133 N  
ENDROOT
BRANCH   6  11
HETATM   11  N   UNL     1     -10.754  10.701  66.626  1.00  0.00    -0.217 N  
HETATM   12  C   UNL     1     -11.063  11.533  65.571  1.00  0.00    -0.191 C  
HETATM   13  O   UNL     1     -10.591  11.366  64.447  1.00  0.00    -0.301 OA 
HETATM   14  H   UNL     1     -11.274  10.787  67.500  1.00  0.00     0.000 HD 
BRANCH  12  15
HETATM   15  C   UNL     1     -12.012  12.704  65.912  1.00  0.00    -0.438 C  
HETATM   16  H2  UNL     1     -13.509  12.044  64.605  1.00  0.00     0.000 HD 
HETATM   17  N   UNL     1     -12.998  12.901  64.815  1.00  0.00    -0.788 NA 
HETATM   18  H1  UNL     1     -13.623  13.673  65.040  1.00  0.00     0.000 HD 
BRANCH  15  19
HETATM   19  C   UNL     1     -11.284  13.990  66.260  1.00  0.00    -0.320 A  
HETATM   20  C   UNL     1     -10.383  14.605  65.374  1.00  0.00    -0.406 A  
HETATM   21  C   UNL     1     -11.554  14.627  67.483  1.00  0.00    -0.396 A  
HETATM   22  C   UNL     1     -10.996  15.874  67.777  1.00  0.00    -0.315 A  
HETATM   23  C   UNL     1      -9.834  15.855  65.666  1.00  0.00    -0.337 A  
HETATM   24  C   UNL     1     -10.152  16.495  66.860  1.00  0.00    -0.281 A  
ENDBRANCH  15  19
ENDBRANCH  12  15
ENDBRANCH   6  11
BRANCH   7  25
HETATM   25  C   UNL     1      -7.675   7.360  69.679  1.00  0.00    -0.107 C  
HETATM   26  O   UNL     1      -7.233   7.565  70.806  1.00  0.00    -0.065 OA 
BRANCH  25  27
HETATM   27  O   UNL     1      -6.935   6.806  68.677  1.00  0.00    -0.074 OA 
BRANCH  27  28
HETATM   28  C   UNL     1      -6.509   5.462  68.921  1.00  0.00    -0.042 C  
BRANCH  28  29
HETATM   29  O   UNL     1      -5.966   4.878  67.741  1.00  0.00    -0.021 OA 
BRANCH  29  30
HETATM   30  C   UNL     1      -6.719   3.919  67.146  1.00  0.00    -0.047 C  
HETATM   31  O   UNL     1      -6.610   2.719  67.359  1.00  0.00    -0.035 OA 
BRANCH  30  32
HETATM   32  C   UNL     1      -7.757   4.534  66.182  1.00  0.00    -0.094 C  
HETATM   33  N   UNL     1      -8.659   3.472  65.707  1.00  0.00    -0.112 N  
HETATM   34  C   UNL     1      -8.230   2.671  64.529  1.00  0.00    -0.086 C  
HETATM   35  S   UNL     1      -6.903   3.694  63.857  1.00  0.00    -0.045 S  
HETATM   36  C   UNL     1      -9.656   2.814  63.994  1.00  0.00    -0.138 C  
HETATM   37  O   UNL     1      -5.630   3.088  64.208  1.00  0.00    -0.009 OA 
HETATM   38  O   UNL     1      -7.191   4.047  62.481  1.00  0.00    -0.038 OA 
HETATM   39  C   UNL     1      -7.130   5.164  64.915  1.00  0.00    -0.062 C  
HETATM   40  C   UNL     1      -9.894   3.736  65.199  1.00  0.00    -0.161 C  
HETATM   41  C   UNL     1      -5.799   5.900  65.120  1.00  0.00    -0.025 C  
HETATM   42  C   UNL     1      -8.085   6.166  64.231  1.00  0.00    -0.093 C  
HETATM   43  O   UNL     1     -10.703   4.572  65.521  1.00  0.00    -0.283 OA 
ENDBRANCH  30  32
ENDBRANCH  29  30
ENDBRANCH  28  29
ENDBRANCH  27  28
ENDBRANCH  25  27
ENDBRANCH   7  25
TORSDOF 9
ENDMDL
MODEL      199
REMARK 921   NORMALIZED FREE ENERGY PREDICTED BY IDOCK:   -4.85 KCAL/MOL
REMARK 922        TOTAL FREE ENERGY PREDICTED BY IDOCK:   -7.91 KCAL/MOL
REMARK 923 INTER-LIGAND FREE ENERGY PREDICTED BY IDOCK:   -6.21 KCAL/MOL
REMARK 924 INTRA-LIGAND FREE ENERGY PREDICTED BY IDOCK:   -1.70 KCAL/MOL
REMARK 927      BINDING AFFINITY PREDICTED BY RF-SCORE:    0.00 PKD
ROOT
HETATM    1  C   UNL     1     -10.259   5.634  67.364  1.00  0.00    -0.249 C  
HETATM    2  C   UNL     1      -9.138   6.685  67.225  1.00  0.00    -0.118 C  
HETATM    3  S   UNL     1      -7.832   6.244  68.467  1.00  0.00    -0.106 SA 
HETATM    4  C   UNL     1      -8.594   6.537  65.799  1.00  0.00    -0.149 C  
HETATM    5  C   UNL     1      -8.467   7.422  69.755  1.00  0.00    -0.136 C  
HETATM    6  C   UNL     1      -9.501   6.882  70.783  1.00  0.00    -0.165 C  
HETATM    7  C   UNL     1      -9.590   8.114  67.627  1.00  0.00    -0.152 C  
HETATM    8  C   UNL     1     -10.546   7.551  69.850  1.00  0.00    -0.237 C  
HETATM    9  O   UNL     1     -11.739   7.470  69.667  1.00  0.00     0.185 OA 
HETATM   10  N   UNL     1      -9.573   8.141  69.096  1.00  0.00    -0.156 N  
ENDROOT
BRANCH   6  11
HETATM   11  N   UNL     1      -9.580   5.407  70.950  1.00  0.00    -0.166 N  
HETATM   12  C   UNL     1      -8.691   4.730  71.757  1.00  0.00    -0.123 C  
HETATM   13  O   UNL     1      -7.906   5.317  72.500  1.00  0.00    -0.099 OA 
HETATM   14  H   UNL     1     -10.306   4.885  70.458  1.00  0.00     0.000 HD 
BRANCH  12  15
HETATM   15  C   UNL     1      -8.729   3.190  71.632  1.00  0.00    -0.074 C  
HETATM   16  H2  UNL     1      -7.891   2.885  73.527  1.00  0.00     0.000 HD 
HETATM   17  N   UNL     1      -7.747   2.576  72.566  1.00  0.00    -0.052 NA 
HETATM   18  H1  UNL     1      -7.771   1.560  72.484  1.00  0.00     0.000 HD 
BRANCH  15  19
HETATM   19  C   UNL     1      -8.547   2.694  70.209  1.00  0.00    -0.107 A  
HETATM   20  C   UNL     1      -9.620   2.215  69.438  1.00  0.00    -0.037 A  
HETATM   21  C   UNL     1      -7.277   2.766  69.610  1.00  0.00    -0.044 A  
HETATM   22  C   UNL     1      -7.104   2.436  68.263  1.00  0.00    -0.047 A  
HETATM   23  C   UNL     1      -9.447   1.895  68.091  1.00  0.00    -0.215 A  
HETATM   24  C   UNL     1      -8.193   2.019  67.500  1.00  0.00    -0.074 A  
ENDBRANCH  15  19
ENDBRANCH  12  15
ENDBRANCH   6  11
BRANCH   7  25
HETATM   25  C   UNL     1      -8.651   9.253  67.168  1.00  0.00    -0.128 C  
HETATM   26  O   UNL     1      -7.624   9.603  67.741  1.00  0.00    -0.087 OA 
BRANCH  25  27
HETATM   27  O   UNL     1      -9.111   9.850  66.031  1.00  0.00    -0.146 OA 
BRANCH  27  28
HETATM   28  C   UNL     1     -10.534   9.979  65.957  1.00  0.00    -0.074 C  
BRANCH  28  29
HETATM   29  O   UNL     1     -10.902  11.215  65.353  1.00  0.00    -0.234 OA 
BRANCH  29  30
HETATM   30  C   UNL     1     -11.481  12.132  66.170  1.00  0.00    -0.371 C  
HETATM   31  O   UNL     1     -12.388  12.883  65.837  1.00  0.00    -0.493 OA 
BRANCH  30  32
HETATM   32  C   UNL     1     -10.871  12.089  67.588  1.00  0.00    -0.231 C  
HETATM   33  N   UNL     1     -11.913  12.432  68.568  1.00  0.00    -0.289 N  
HETATM   34  C   UNL     1     -12.152  13.873  68.854  1.00  0.00    -0.319 C  
HETATM   35  S   UNL     1     -10.664  14.631  68.166  1.00  0.00    -0.248 S  
HETATM   36  C   UNL     1     -12.209  13.503  70.337  1.00  0.00    -0.426 C  
HETATM   37  O   UNL     1     -11.008  15.254  66.899  1.00  0.00    -0.320 OA 
HETATM   38  O   UNL     1      -9.969  15.386  69.189  1.00  0.00    -0.213 OA 
HETATM   39  C   UNL     1      -9.726  13.108  67.801  1.00  0.00    -0.218 C  
HETATM   40  C   UNL     1     -11.821  12.089  69.883  1.00  0.00    -0.331 C  
HETATM   41  C   UNL     1      -8.785  13.320  66.608  1.00  0.00    -0.015 C  
HETATM   42  C   UNL     1      -8.833  12.736  69.004  1.00  0.00     0.507 C  
HETATM   43  O   UNL     1     -11.368  11.093  70.394  1.00  0.00    -0.251 OA 
ENDBRANCH  30  32
ENDBRANCH  29  30
ENDBRANCH  28  29
ENDBRANCH  27  28
ENDBRANCH  25  27
ENDBRANCH   7  25
TORSDOF 9
ENDMDL
MODEL      200
REMARK 921   NORMALIZED FREE ENERGY PREDICTED BY IDOCK:   -4.84 KCAL/MOL
REMARK 922        TOTAL FREE ENERGY PREDICTED BY IDOCK:   -7.89 KCAL/MOL
REMARK 923 INTER-LIGAND FREE ENERGY PREDICTED BY IDOCK:   -6.77 KCAL/MOL
REMARK 924 INTRA-LIGAND FREE ENERGY PREDICTED BY IDOCK:   -1.11 KCAL/MOL
REMARK 927      BINDING AFFINITY PREDICTED BY RF-SCORE:    0.00 PKD
ROOT
HETATM    1  C   UNL     1      -8.778   9.413  70.486  1.00  0.00    -0.276 C  
HETATM    2  C   UNL     1      -7.785  10.234  69.637  1.00  0.00    -0.160 C  
HETATM    3  S   UNL     1      -6.800   9.019  68.640  1.00  0.00    -0.063 SA 
HETATM    4  C   UNL     1      -8.641  11.113  68.718  1.00  0.00    -0.133 C  
HETATM    5  C   UNL     1      -5.385   8.974  69.843  1.00  0.00    -0.029 C  
HETATM    6  C   UNL     1      -5.419   7.893  70.961  1.00  0.00    -0.030 C  
HETATM    7  C   UNL     1      -6.729  10.983  70.492  1.00  0.00     0.430 C  
HETATM    8  C   UNL     1      -5.958   9.049  71.846  1.00  0.00    -0.073 C  
HETATM    9  O   UNL     1      -6.547   9.147  72.898  1.00  0.00    -0.315 OA 
HETATM   10  N   UNL     1      -5.730   9.974  70.870  1.00  0.00    -0.081 N  
ENDROOT
BRANCH   6  11
HETATM   11  N   UNL     1      -6.313   6.725  70.744  1.00  0.00    -0.042 N  
HETATM   12  C   UNL     1      -6.390   5.702  71.665  1.00  0.00    -0.044 C  
HETATM   13  O   UNL     1      -5.862   5.781  72.774  1.00  0.00    -0.033 OA 
HETATM   14  H   UNL     1      -6.881   6.679  69.898  1.00  0.00     0.000 HD 
BRANCH  12  15
HETATM   15  C   UNL     1      -7.153   4.445  71.192  1.00  0.00    -0.037 C  
HETATM   16  H2  UNL     1      -5.402   3.399  70.718  1.00  0.00     0.000 HD 
HETATM   17  N   UNL     1      -6.295   3.635  70.286  1.00  0.00    -0.027 NA 
HETATM   18  H1  UNL     1      -6.798   2.806  69.974  1.00  0.00     0.000 HD 
BRANCH  15  19
HETATM   19  C   UNL     1      -8.503   4.756  70.570  1.00  0.00    -0.106 A  
HETATM   20  C   UNL     1      -9.566   5.296  71.314  1.00  0.00    -0.212 A  
HETATM   21  C   UNL     1      -8.690   4.555  69.191  1.00  0.00    -0.113 A  
HETATM   22  C   UNL     1      -9.877   4.949  68.568  1.00  0.00    -0.208 A  
HETATM   23  C   UNL     1     -10.746   5.698  70.687  1.00  0.00    -0.333 A  
HETATM   24  C   UNL     1     -10.896   5.538  69.313  1.00  0.00    -0.202 A  
ENDBRANCH  15  19
ENDBRANCH  12  15
ENDBRANCH   6  11
BRANCH   7  25
HETATM   25  C   UNL     1      -5.954  12.095  69.749  1.00  0.00    -0.137 C  
HETATM   26  O   UNL     1      -5.386  11.967  68.668  1.00  0.00    -0.049 OA 
BRANCH  25  27
HETATM   27  O   UNL     1      -5.960  13.263  70.454  1.00  0.00    -0.162 OA 
BRANCH  27  28
HETATM   28  C   UNL     1      -5.729  14.437  69.668  1.00  0.00    -0.099 C  
BRANCH  28  29
HETATM   29  O   UNL     1      -6.937  15.169  69.482  1.00  0.00    -0.161 OA 
BRANCH  29  30
HETATM   30  C   UNL     1      -7.528  15.050  68.265  1.00  0.00    -0.107 C  
HETATM   31  O   UNL     1      -6.952  14.696  67.245  1.00  0.00    -0.221 OA 
BRANCH  30  32
HETATM   32  C   UNL     1      -9.033  15.391  68.334  1.00  0.00    -0.189 C  
HETATM   33  N   UNL     1      -9.734  14.680  67.253  1.00  0.00    -0.228 N  
HETATM   34  C   UNL     1      -9.780  15.325  65.913  1.00  0.00    -0.355 C  
HETATM   35  S   UNL     1      -9.311  17.022  66.309  1.00  0.00    -0.220 S  
HETATM   36  C   UNL     1     -11.258  14.932  65.847  1.00  0.00    -0.328 C  
HETATM   37  O   UNL     1      -7.933  17.227  65.899  1.00  0.00    -0.518 OA 
HETATM   38  O   UNL     1     -10.348  17.940  65.880  1.00  0.00    -0.525 OA 
HETATM   39  C   UNL     1      -9.338  16.894  68.130  1.00  0.00    -0.240 C  
HETATM   40  C   UNL     1     -11.074  14.436  67.288  1.00  0.00    -0.311 C  
HETATM   41  C   UNL     1      -8.338  17.874  68.760  1.00  0.00    -0.222 C  
HETATM   42  C   UNL     1     -10.732  17.282  68.668  1.00  0.00    -0.280 C  
HETATM   43  O   UNL     1     -11.787  14.161  68.222  1.00  0.00    -0.333 OA 
ENDBRANCH  30  32
ENDBRANCH  29  30
ENDBRANCH  28  29
ENDBRANCH  27  28
ENDBRANCH  25  27
ENDBRANCH   7  25
TORSDOF 9
ENDMDL
MODEL      201
REMARK 921   NORMALIZED FREE ENERGY PREDICTED BY IDOCK:   -4.84 KCAL/MOL
REMARK 922        TOTAL FREE ENERGY PREDICTED BY IDOCK:   -7.88 KCAL/MOL
REMARK 923 INTER-LIGAND FREE ENERGY PREDICTED BY IDOCK:   -7.24 KCAL/MOL
REMARK 924 INTRA-LIGAND FREE ENERGY PREDICTED BY IDOCK:   -0.64 KCAL/MOL
REMARK 927      BINDING AFFINITY PREDICTED BY RF-SCORE:    0.00 PKD
ROOT
HETATM    1  C   UNL     1      -9.276   9.658  68.164  1.00  0.00    -0.130 C  
HETATM    2  C   UNL     1      -8.795  11.039  67.673  1.00  0.00    -0.131 C  
HETATM    3  S   UNL     1      -8.430  10.869  65.862  1.00  0.00    -0.133 SA 
HETATM    4  C   UNL     1      -9.970  11.999  67.896  1.00  0.00    -0.199 C  
HETATM    5  C   UNL     1      -6.614  10.578  66.118  1.00  0.00    -0.123 C  
HETATM    6  C   UNL     1      -6.128   9.108  66.264  1.00  0.00    -0.060 C  
HETATM    7  C   UNL     1      -7.445  11.473  68.303  1.00  0.00    -0.103 C  
HETATM    8  C   UNL     1      -6.157   9.413  67.785  1.00  0.00    -0.053 C  
HETATM    9  O   UNL     1      -6.168   8.770  68.809  1.00  0.00    -0.044 OA 
HETATM   10  N   UNL     1      -6.406  10.737  67.569  1.00  0.00    -0.056 N  
ENDROOT
BRANCH   6  11
HETATM   11  N   UNL     1      -7.039   8.044  65.763  1.00  0.00    -0.063 N  
HETATM   12  C   UNL     1      -6.670   6.716  65.792  1.00  0.00    -0.048 C  
HETATM   13  O   UNL     1      -5.658   6.331  66.376  1.00  0.00    -0.013 OA 
HETATM   14  H   UNL     1      -7.954   8.301  65.393  1.00  0.00     0.000 HD 
BRANCH  12  15
HETATM   15  C   UNL     1      -7.598   5.758  65.010  1.00  0.00    -0.087 C  
HETATM   16  H2  UNL     1      -8.017   7.169  63.520  1.00  0.00     0.000 HD 
HETATM   17  N   UNL     1      -8.521   6.535  64.140  1.00  0.00    -0.332 NA 
HETATM   18  H1  UNL     1      -9.133   5.903  63.625  1.00  0.00     0.000 HD 
BRANCH  15  19
HETATM   19  C   UNL     1      -8.342   4.779  65.899  1.00  0.00    -0.116 A  
HETATM   20  C   UNL     1      -8.372   3.399  65.636  1.00  0.00    -0.102 A  
HETATM   21  C   UNL     1      -8.980   5.248  67.060  1.00  0.00    -0.112 A  
HETATM   22  C   UNL     1      -9.565   4.356  67.963  1.00  0.00    -0.204 A  
HETATM   23  C   UNL     1      -8.948   2.509  66.543  1.00  0.00    -0.133 A  
HETATM   24  C   UNL     1      -9.532   2.986  67.713  1.00  0.00    -0.198 A  
ENDBRANCH  15  19
ENDBRANCH  12  15
ENDBRANCH   6  11
BRANCH   7  25
HETATM   25  C   UNL     1      -7.099  12.971  68.147  1.00  0.00    -0.107 C  
HETATM   26  O   UNL     1      -7.092  13.593  67.089  1.00  0.00    -0.067 OA 
BRANCH  25  27
HETATM   27  O   UNL     1      -6.782  13.537  69.347  1.00  0.00    -0.107 OA 
BRANCH  27  28
HETATM   28  C   UNL     1      -5.960  14.705  69.258  1.00  0.00    -0.103 C  
BRANCH  28  29
HETATM   29  O   UNL     1      -6.641  15.846  69.771  1.00  0.00    -0.188 OA 
BRANCH  29  30
HETATM   30  C   UNL     1      -6.960  16.809  68.869  1.00  0.00    -0.207 C  
HETATM   31  O   UNL     1      -6.187  17.265  68.038  1.00  0.00    -0.137 OA 
BRANCH  30  32
HETATM   32  C   UNL     1      -8.437  17.240  69.004  1.00  0.00    -0.080 C  
HETATM   33  N   UNL     1      -9.302  16.088  68.699  1.00  0.00    -0.205 N  
HETATM   34  C   UNL     1      -9.640  15.831  67.273  1.00  0.00    -0.217 C  
HETATM   35  S   UNL     1      -9.186  17.400  66.503  1.00  0.00    -0.256 S  
HETATM   36  C   UNL     1     -11.081  15.588  67.727  1.00  0.00    -0.315 C  
HETATM   37  O   UNL     1      -7.926  17.222  65.803  1.00  0.00    -0.511 OA 
HETATM   38  O   UNL     1     -10.329  17.972  65.821  1.00  0.00    -0.583 OA 
HETATM   39  C   UNL     1      -8.849  18.360  68.019  1.00  0.00    -0.287 C  
HETATM   40  C   UNL     1     -10.595  16.014  69.120  1.00  0.00    -0.260 C  
HETATM   41  C   UNL     1      -7.795  19.444  67.756  1.00  0.00    -0.315 C  
HETATM   42  C   UNL     1     -10.128  19.094  68.476  1.00  0.00    -0.499 C  
HETATM   43  O   UNL     1     -11.098  16.390  70.151  1.00  0.00    -0.355 OA 
ENDBRANCH  30  32
ENDBRANCH  29  30
ENDBRANCH  28  29
ENDBRANCH  27  28
ENDBRANCH  25  27
ENDBRANCH   7  25
TORSDOF 9
ENDMDL
MODEL      202
REMARK 921   NORMALIZED FREE ENERGY PREDICTED BY IDOCK:   -4.83 KCAL/MOL
REMARK 922        TOTAL FREE ENERGY PREDICTED BY IDOCK:   -7.88 KCAL/MOL
REMARK 923 INTER-LIGAND FREE ENERGY PREDICTED BY IDOCK:   -8.24 KCAL/MOL
REMARK 924 INTRA-LIGAND FREE ENERGY PREDICTED BY IDOCK:    0.36 KCAL/MOL
REMARK 927      BINDING AFFINITY PREDICTED BY RF-SCORE:    0.00 PKD
ROOT
HETATM    1  C   UNL     1      -8.387   8.534  71.199  1.00  0.00    -0.182 C  
HETATM    2  C   UNL     1      -7.913   9.080  69.836  1.00  0.00    -0.103 C  
HETATM    3  S   UNL     1      -9.024  10.504  69.413  1.00  0.00    -0.024 SA 
HETATM    4  C   UNL     1      -6.475   9.567  70.053  1.00  0.00    -0.061 C  
HETATM    5  C   UNL     1     -10.157   9.481  68.354  1.00  0.00    -0.175 C  
HETATM    6  C   UNL     1     -11.395   8.833  69.035  1.00  0.00     0.507 C  
HETATM    7  C   UNL     1      -8.113   8.072  68.673  1.00  0.00    -0.125 C  
HETATM    8  C   UNL     1     -10.509   7.560  69.081  1.00  0.00    -0.215 C  
HETATM    9  O   UNL     1     -10.508   6.512  69.687  1.00  0.00    -0.190 OA 
HETATM   10  N   UNL     1      -9.538   8.143  68.321  1.00  0.00    -0.142 N  
ENDROOT
BRANCH   6  11
HETATM   11  N   UNL     1     -11.830   9.410  70.335  1.00  0.00    -0.454 N  
HETATM   12  C   UNL     1     -12.484  10.622  70.397  1.00  0.00    -0.338 C  
HETATM   13  O   UNL     1     -12.884  11.200  69.387  1.00  0.00    -0.145 OA 
HETATM   14  H   UNL     1     -11.642   8.899  71.198  1.00  0.00     0.000 HD 
BRANCH  12  15
HETATM   15  C   UNL     1     -12.642  11.214  71.815  1.00  0.00    -0.177 C  
HETATM   16  H2  UNL     1     -13.617   9.516  72.558  1.00  0.00     0.000 HD 
HETATM   17  N   UNL     1     -13.747  10.527  72.537  1.00  0.00    -0.352 NA 
HETATM   18  H1  UNL     1     -13.851  10.917  73.473  1.00  0.00     0.000 HD 
BRANCH  15  19
HETATM   19  C   UNL     1     -12.808  12.723  71.825  1.00  0.00    -0.342 A  
HETATM   20  C   UNL     1     -13.779  13.366  72.612  1.00  0.00    -0.512 A  
HETATM   21  C   UNL     1     -11.930  13.519  71.070  1.00  0.00    -0.081 A  
HETATM   22  C   UNL     1     -11.977  14.913  71.157  1.00  0.00    -0.389 A  
HETATM   23  C   UNL     1     -13.818  14.758  72.705  1.00  0.00    -0.506 A  
HETATM   24  C   UNL     1     -12.908  15.531  71.989  1.00  0.00    -0.500 A  
ENDBRANCH  15  19
ENDBRANCH  12  15
ENDBRANCH   6  11
BRANCH   7  25
HETATM   25  C   UNL     1      -7.336   8.402  67.378  1.00  0.00    -0.089 C  
HETATM   26  O   UNL     1      -6.766   7.583  66.663  1.00  0.00    -0.055 OA 
BRANCH  25  27
HETATM   27  O   UNL     1      -7.343   9.741  67.120  1.00  0.00    -0.087 OA 
BRANCH  27  28
HETATM   28  C   UNL     1      -7.404  10.081  65.732  1.00  0.00    -0.117 C  
BRANCH  28  29
HETATM   29  O   UNL     1      -8.448  11.019  65.484  1.00  0.00    -0.159 OA 
BRANCH  29  30
HETATM   30  C   UNL     1      -8.539  12.057  66.354  1.00  0.00    -0.037 C  
HETATM   31  O   UNL     1      -7.589  12.554  66.944  1.00  0.00    -0.063 OA 
BRANCH  30  32
HETATM   32  C   UNL     1      -9.995  12.555  66.486  1.00  0.00    -0.244 C  
HETATM   33  N   UNL     1     -10.508  12.893  65.148  1.00  0.00    -0.301 N  
HETATM   34  C   UNL     1     -10.225  14.255  64.619  1.00  0.00    -0.112 C  
HETATM   35  S   UNL     1      -9.723  15.130  66.117  1.00  0.00    -0.331 S  
HETATM   36  C   UNL     1     -11.682  14.306  64.153  1.00  0.00    -0.279 C  
HETATM   37  O   UNL     1      -8.277  15.278  66.100  1.00  0.00     0.126 OA 
HETATM   38  O   UNL     1     -10.575  16.282  66.333  1.00  0.00    -0.306 OA 
HETATM   39  C   UNL     1     -10.137  13.838  67.338  1.00  0.00    -0.244 C  
HETATM   40  C   UNL     1     -11.840  12.958  64.871  1.00  0.00    -0.366 C  
HETATM   41  C   UNL     1      -9.220  13.934  68.565  1.00  0.00    -0.154 C  
HETATM   42  C   UNL     1     -11.579  14.038  67.852  1.00  0.00    -0.377 C  
HETATM   43  O   UNL     1     -12.751  12.281  65.283  1.00  0.00    -0.543 OA 
ENDBRANCH  30  32
ENDBRANCH  29  30
ENDBRANCH  28  29
ENDBRANCH  27  28
ENDBRANCH  25  27
ENDBRANCH   7  25
TORSDOF 9
ENDMDL
MODEL      203
REMARK 921   NORMALIZED FREE ENERGY PREDICTED BY IDOCK:   -4.78 KCAL/MOL
REMARK 922        TOTAL FREE ENERGY PREDICTED BY IDOCK:   -7.81 KCAL/MOL
REMARK 923 INTER-LIGAND FREE ENERGY PREDICTED BY IDOCK:   -6.53 KCAL/MOL
REMARK 924 INTRA-LIGAND FREE ENERGY PREDICTED BY IDOCK:   -1.28 KCAL/MOL
REMARK 927      BINDING AFFINITY PREDICTED BY RF-SCORE:    0.00 PKD
ROOT
HETATM    1  C   UNL     1     -10.248   5.635  67.363  1.00  0.00    -0.249 C  
HETATM    2  C   UNL     1      -9.110   6.638  67.082  1.00  0.00    -0.128 C  
HETATM    3  S   UNL     1      -7.712   6.196  68.219  1.00  0.00    -0.104 SA 
HETATM    4  C   UNL     1      -8.703   6.418  65.620  1.00  0.00    -0.108 C  
HETATM    5  C   UNL     1      -8.189   7.443  69.510  1.00  0.00    -0.131 C  
HETATM    6  C   UNL     1      -9.143   6.980  70.647  1.00  0.00    -0.158 C  
HETATM    7  C   UNL     1      -9.476   8.097  67.465  1.00  0.00    -0.152 C  
HETATM    8  C   UNL     1     -10.245   7.651  69.785  1.00  0.00    -0.210 C  
HETATM    9  O   UNL     1     -11.452   7.608  69.714  1.00  0.00    -0.033 OA 
HETATM   10  N   UNL     1      -9.326   8.178  68.925  1.00  0.00    -0.147 N  
ENDROOT
BRANCH   6  11
HETATM   11  N   UNL     1      -9.255   5.515  70.880  1.00  0.00    -0.149 N  
HETATM   12  C   UNL     1     -10.156   5.003  71.788  1.00  0.00    -0.200 C  
HETATM   13  O   UNL     1     -11.016   5.702  72.322  1.00  0.00    -0.238 OA 
HETATM   14  H   UNL     1      -8.654   4.878  70.357  1.00  0.00     0.000 HD 
BRANCH  12  15
HETATM   15  C   UNL     1      -9.984   3.501  72.112  1.00  0.00    -0.164 C  
HETATM   16  H2  UNL     1     -11.968   3.274  72.742  1.00  0.00     0.000 HD 
HETATM   17  N   UNL     1     -11.028   3.062  73.076  1.00  0.00    -0.090 NA 
HETATM   18  H1  UNL     1     -10.914   2.071  73.289  1.00  0.00     0.000 HD 
BRANCH  15  19
HETATM   19  C   UNL     1      -8.586   3.142  72.583  1.00  0.00    -0.089 A  
HETATM   20  C   UNL     1      -7.659   2.489  71.753  1.00  0.00    -0.041 A  
HETATM   21  C   UNL     1      -8.174   3.520  73.872  1.00  0.00    -0.078 A  
HETATM   22  C   UNL     1      -6.855   3.316  74.288  1.00  0.00    -0.044 A  
HETATM   23  C   UNL     1      -6.341   2.293  72.167  1.00  0.00    -0.014 A  
HETATM   24  C   UNL     1      -5.935   2.720  73.429  1.00  0.00    -0.008 A  
ENDBRANCH  15  19
ENDBRANCH  12  15
ENDBRANCH   6  11
BRANCH   7  25
HETATM   25  C   UNL     1      -8.546   9.183  66.879  1.00  0.00    -0.123 C  
HETATM   26  O   UNL     1      -7.450   9.501  67.331  1.00  0.00    -0.090 OA 
BRANCH  25  27
HETATM   27  O   UNL     1      -9.099   9.773  65.780  1.00  0.00    -0.156 OA 
BRANCH  27  28
HETATM   28  C   UNL     1     -10.510   9.992  65.867  1.00  0.00    -0.045 C  
BRANCH  28  29
HETATM   29  O   UNL     1     -10.869  11.235  65.269  1.00  0.00    -0.266 OA 
BRANCH  29  30
HETATM   30  C   UNL     1     -11.457  12.145  66.087  1.00  0.00    -0.371 C  
HETATM   31  O   UNL     1     -12.367  12.892  65.754  1.00  0.00    -0.483 OA 
BRANCH  30  32
HETATM   32  C   UNL     1     -10.850  12.102  67.507  1.00  0.00    -0.243 C  
HETATM   33  N   UNL     1     -11.890  12.467  68.482  1.00  0.00    -0.315 N  
HETATM   34  C   UNL     1     -12.107  13.914  68.758  1.00  0.00    -0.309 C  
HETATM   35  S   UNL     1     -10.606  14.644  68.070  1.00  0.00    -0.244 S  
HETATM   36  C   UNL     1     -12.174  13.554  70.244  1.00  0.00    -0.417 C  
HETATM   37  O   UNL     1     -10.936  15.264  66.798  1.00  0.00    -0.317 OA 
HETATM   38  O   UNL     1      -9.901  15.394  69.090  1.00  0.00    -0.217 OA 
HETATM   39  C   UNL     1      -9.691  13.104  67.717  1.00  0.00    -0.218 C  
HETATM   40  C   UNL     1     -11.807  12.130  69.799  1.00  0.00    -0.327 C  
HETATM   41  C   UNL     1      -8.743  13.294  66.525  1.00  0.00     0.082 C  
HETATM   42  C   UNL     1      -8.807  12.725  68.925  1.00  0.00     0.333 C  
HETATM   43  O   UNL     1     -11.371  11.131  70.318  1.00  0.00    -0.268 OA 
ENDBRANCH  30  32
ENDBRANCH  29  30
ENDBRANCH  28  29
ENDBRANCH  27  28
ENDBRANCH  25  27
ENDBRANCH   7  25
TORSDOF 9
ENDMDL
MODEL      204
REMARK 921   NORMALIZED FREE ENERGY PREDICTED BY IDOCK:   -4.78 KCAL/MOL
REMARK 922        TOTAL FREE ENERGY PREDICTED BY IDOCK:   -7.80 KCAL/MOL
REMARK 923 INTER-LIGAND FREE ENERGY PREDICTED BY IDOCK:   -7.56 KCAL/MOL
REMARK 924 INTRA-LIGAND FREE ENERGY PREDICTED BY IDOCK:   -0.24 KCAL/MOL
REMARK 927      BINDING AFFINITY PREDICTED BY RF-SCORE:    0.00 PKD
ROOT
HETATM    1  C   UNL     1      -9.913   9.840  67.276  1.00  0.00    -0.242 C  
HETATM    2  C   UNL     1      -8.881  10.760  67.962  1.00  0.00    -0.132 C  
HETATM    3  S   UNL     1      -9.235  10.698  69.782  1.00  0.00     0.468 SA 
HETATM    4  C   UNL     1      -7.506  10.152  67.661  1.00  0.00    -0.090 C  
HETATM    5  C   UNL     1     -10.268  12.241  69.772  1.00  0.00     1.302 C  
HETATM    6  C   UNL     1     -11.800  12.086  69.559  1.00  0.00    -0.326 C  
HETATM    7  C   UNL     1      -9.052  12.255  67.584  1.00  0.00    -0.184 C  
HETATM    8  C   UNL     1     -11.477  12.454  68.087  1.00  0.00    -0.318 C  
HETATM    9  O   UNL     1     -12.029  12.355  67.015  1.00  0.00    -0.541 OA 
HETATM   10  N   UNL     1     -10.178  12.747  68.389  1.00  0.00    -0.239 N  
ENDROOT
BRANCH   6  11
HETATM   11  N   UNL     1     -12.384  10.742  69.814  1.00  0.00    -0.474 N  
HETATM   12  C   UNL     1     -12.910  10.413  71.046  1.00  0.00    -0.401 C  
HETATM   13  O   UNL     1     -13.074  11.252  71.931  1.00  0.00    -0.493 OA 
HETATM   14  H   UNL     1     -12.397  10.051  69.065  1.00  0.00     0.000 HD 
BRANCH  12  15
HETATM   15  C   UNL     1     -13.241   8.917  71.242  1.00  0.00    -0.185 C  
HETATM   16  H2  UNL     1     -15.104   9.308  72.115  1.00  0.00     0.000 HD 
HETATM   17  N   UNL     1     -14.269   8.755  72.305  1.00  0.00    -0.491 NA 
HETATM   18  H1  UNL     1     -14.487   7.767  72.435  1.00  0.00     0.000 HD 
BRANCH  15  19
HETATM   19  C   UNL     1     -12.017   8.056  71.498  1.00  0.00    -0.331 A  
HETATM   20  C   UNL     1     -11.478   7.880  72.784  1.00  0.00    -0.428 A  
HETATM   21  C   UNL     1     -11.427   7.359  70.429  1.00  0.00    -0.250 A  
HETATM   22  C   UNL     1     -10.379   6.462  70.654  1.00  0.00    -0.243 A  
HETATM   23  C   UNL     1     -10.438   6.977  73.008  1.00  0.00    -0.307 A  
HETATM   24  C   UNL     1      -9.899   6.257  71.946  1.00  0.00    -0.172 A  
ENDBRANCH  15  19
ENDBRANCH  12  15
ENDBRANCH   6  11
BRANCH   7  25
HETATM   25  C   UNL     1      -7.850  13.162  67.932  1.00  0.00    -0.151 C  
HETATM   26  O   UNL     1      -6.669  12.882  67.745  1.00  0.00    -0.108 OA 
BRANCH  25  27
HETATM   27  O   UNL     1      -8.257  14.334  68.499  1.00  0.00    -0.139 OA 
BRANCH  27  28
HETATM   28  C   UNL     1      -7.231  15.051  69.192  1.00  0.00    -0.159 C  
BRANCH  28  29
HETATM   29  O   UNL     1      -7.623  16.400  69.425  1.00  0.00    -0.229 OA 
BRANCH  29  30
HETATM   30  C   UNL     1      -8.719  16.831  68.750  1.00  0.00    -0.258 C  
HETATM   31  O   UNL     1      -9.873  16.670  69.126  1.00  0.00    -0.263 OA 
BRANCH  30  32
HETATM   32  C   UNL     1      -8.328  17.578  67.457  1.00  0.00    -0.215 C  
HETATM   33  N   UNL     1      -6.860  17.649  67.371  1.00  0.00    -0.162 N  
HETATM   34  C   UNL     1      -6.176  18.769  68.073  1.00  0.00    -0.204 C  
HETATM   35  S   UNL     1      -7.551  19.897  68.384  1.00  0.00    -0.215 S  
HETATM   36  C   UNL     1      -5.312  18.939  66.821  1.00  0.00    -0.153 C  
HETATM   37  O   UNL     1      -7.921  19.797  69.785  1.00  0.00     0.105 OA 
HETATM   38  O   UNL     1      -7.282  21.190  67.788  1.00  0.00    -0.276 OA 
HETATM   39  C   UNL     1      -8.833  19.039  67.407  1.00  0.00    -0.287 C  
HETATM   40  C   UNL     1      -6.206  17.859  66.195  1.00  0.00    -0.237 C  
HETATM   41  C   UNL     1     -10.227  19.288  67.999  1.00  0.00    -0.507 C  
HETATM   42  C   UNL     1      -8.862  19.595  65.967  1.00  0.00    -0.276 C  
HETATM   43  O   UNL     1      -6.465  17.467  65.083  1.00  0.00     0.248 OA 
ENDBRANCH  30  32
ENDBRANCH  29  30
ENDBRANCH  28  29
ENDBRANCH  27  28
ENDBRANCH  25  27
ENDBRANCH   7  25
TORSDOF 9
ENDMDL
MODEL      205
REMARK 921   NORMALIZED FREE ENERGY PREDICTED BY IDOCK:   -4.77 KCAL/MOL
REMARK 922        TOTAL FREE ENERGY PREDICTED BY IDOCK:   -7.78 KCAL/MOL
REMARK 923 INTER-LIGAND FREE ENERGY PREDICTED BY IDOCK:   -6.89 KCAL/MOL
REMARK 924 INTRA-LIGAND FREE ENERGY PREDICTED BY IDOCK:   -0.89 KCAL/MOL
REMARK 927      BINDING AFFINITY PREDICTED BY RF-SCORE:    0.00 PKD
ROOT
HETATM    1  C   UNL     1      -8.397   7.620  66.571  1.00  0.00    -0.129 C  
HETATM    2  C   UNL     1      -8.589   8.323  67.932  1.00  0.00    -0.132 C  
HETATM    3  S   UNL     1      -7.977   7.150  69.232  1.00  0.00    -0.120 SA 
HETATM    4  C   UNL     1      -7.711   9.579  67.886  1.00  0.00    -0.087 C  
HETATM    5  C   UNL     1      -9.664   6.467  69.602  1.00  0.00    -0.152 C  
HETATM    6  C   UNL     1     -10.126   5.210  68.812  1.00  0.00    -0.161 C  
HETATM    7  C   UNL     1     -10.080   8.558  68.291  1.00  0.00    -0.192 C  
HETATM    8  C   UNL     1     -10.883   6.235  67.927  1.00  0.00    -0.333 C  
HETATM    9  O   UNL     1     -11.383   6.244  66.826  1.00  0.00    -0.229 OA 
HETATM   10  N   UNL     1     -10.585   7.265  68.772  1.00  0.00    -0.201 N  
ENDROOT
BRANCH   6  11
HETATM   11  N   UNL     1      -9.066   4.395  68.160  1.00  0.00    -0.120 N  
HETATM   12  C   UNL     1      -8.551   3.271  68.769  1.00  0.00    -0.084 C  
HETATM   13  O   UNL     1      -9.049   2.795  69.788  1.00  0.00    -0.097 OA 
HETATM   14  H   UNL     1      -8.714   4.673  67.244  1.00  0.00     0.000 HD 
BRANCH  12  15
HETATM   15  C   UNL     1      -7.289   2.680  68.102  1.00  0.00    -0.049 C  
HETATM   16  H2  UNL     1      -6.676   1.685  69.840  1.00  0.00     0.000 HD 
HETATM   17  N   UNL     1      -6.286   2.313  69.138  1.00  0.00    -0.028 NA 
HETATM   18  H1  UNL     1      -5.454   1.923  68.697  1.00  0.00     0.000 HD 
BRANCH  15  19
HETATM   19  C   UNL     1      -6.697   3.576  67.028  1.00  0.00    -0.049 A  
HETATM   20  C   UNL     1      -7.106   3.508  65.686  1.00  0.00    -0.066 A  
HETATM   21  C   UNL     1      -5.749   4.549  67.387  1.00  0.00    -0.022 A  
HETATM   22  C   UNL     1      -5.280   5.470  66.446  1.00  0.00    -0.005 A  
HETATM   23  C   UNL     1      -6.644   4.435  64.750  1.00  0.00    -0.044 A  
HETATM   24  C   UNL     1      -5.743   5.424  65.133  1.00  0.00    -0.017 A  
ENDBRANCH  15  19
ENDBRANCH  12  15
ENDBRANCH   6  11
BRANCH   7  25
HETATM   25  C   UNL     1     -10.328   9.566  69.435  1.00  0.00    -0.214 C  
HETATM   26  O   UNL     1      -9.651   9.667  70.454  1.00  0.00    -0.251 OA 
BRANCH  25  27
HETATM   27  O   UNL     1     -11.421  10.344  69.186  1.00  0.00    -0.238 OA 
BRANCH  27  28
HETATM   28  C   UNL     1     -11.373  11.065  67.951  1.00  0.00    -0.311 C  
BRANCH  28  29
HETATM   29  O   UNL     1     -11.248  12.464  68.184  1.00  0.00    -0.229 OA 
BRANCH  29  30
HETATM   30  C   UNL     1     -10.149  13.063  67.658  1.00  0.00    -0.217 C  
HETATM   31  O   UNL     1      -9.093  12.492  67.422  1.00  0.00    -0.171 OA 
BRANCH  30  32
HETATM   32  C   UNL     1     -10.408  14.558  67.366  1.00  0.00    -0.252 C  
HETATM   33  N   UNL     1      -9.337  15.067  66.494  1.00  0.00    -0.264 N  
HETATM   34  C   UNL     1      -8.082  15.542  67.139  1.00  0.00    -0.216 C  
HETATM   35  S   UNL     1      -8.603  15.722  68.859  1.00  0.00    -0.236 S  
HETATM   36  C   UNL     1      -8.128  16.744  66.194  1.00  0.00    -0.293 C  
HETATM   37  O   UNL     1      -8.077  14.601  69.619  1.00  0.00     0.006 OA 
HETATM   38  O   UNL     1      -8.381  17.081  69.309  1.00  0.00    -0.093 OA 
HETATM   39  C   UNL     1     -10.394  15.448  68.631  1.00  0.00    -0.234 C  
HETATM   40  C   UNL     1      -9.484  16.188  65.735  1.00  0.00    -0.219 C  
HETATM   41  C   UNL     1     -11.016  14.834  69.892  1.00  0.00    -0.229 C  
HETATM   42  C   UNL     1     -11.110  16.796  68.400  1.00  0.00    -0.266 C  
HETATM   43  O   UNL     1     -10.452  16.604  65.147  1.00  0.00    -0.647 OA 
ENDBRANCH  30  32
ENDBRANCH  29  30
ENDBRANCH  28  29
ENDBRANCH  27  28
ENDBRANCH  25  27
ENDBRANCH   7  25
TORSDOF 9
ENDMDL
MODEL      206
REMARK 921   NORMALIZED FREE ENERGY PREDICTED BY IDOCK:   -4.72 KCAL/MOL
REMARK 922        TOTAL FREE ENERGY PREDICTED BY IDOCK:   -7.72 KCAL/MOL
REMARK 923 INTER-LIGAND FREE ENERGY PREDICTED BY IDOCK:   -8.60 KCAL/MOL
REMARK 924 INTRA-LIGAND FREE ENERGY PREDICTED BY IDOCK:    0.88 KCAL/MOL
REMARK 927      BINDING AFFINITY PREDICTED BY RF-SCORE:    0.00 PKD
ROOT
HETATM    1  C   UNL     1     -10.905   9.196  66.969  1.00  0.00    -0.056 C  
HETATM    2  C   UNL     1     -10.758  10.575  67.644  1.00  0.00    -0.275 C  
HETATM    3  S   UNL     1      -8.943  10.847  67.919  1.00  0.00    -0.145 SA 
HETATM    4  C   UNL     1     -11.308  11.598  66.643  1.00  0.00    -0.338 C  
HETATM    5  C   UNL     1      -8.981  10.242  69.675  1.00  0.00    -0.118 C  
HETATM    6  C   UNL     1      -8.702   8.734  69.927  1.00  0.00    -0.135 C  
HETATM    7  C   UNL     1     -11.378  10.626  69.066  1.00  0.00    -0.277 C  
HETATM    8  C   UNL     1     -10.248   8.619  69.997  1.00  0.00    -0.194 C  
HETATM    9  O   UNL     1     -11.068   7.733  69.919  1.00  0.00    -0.230 OA 
HETATM   10  N   UNL     1     -10.404   9.974  69.952  1.00  0.00    -0.258 N  
ENDROOT
BRANCH   6  11
HETATM   11  N   UNL     1      -8.010   7.984  68.845  1.00  0.00    -0.116 N  
HETATM   12  C   UNL     1      -7.797   6.626  68.939  1.00  0.00    -0.111 C  
HETATM   13  O   UNL     1      -8.306   5.945  69.828  1.00  0.00    -0.120 OA 
HETATM   14  H   UNL     1      -7.688   8.485  68.016  1.00  0.00     0.000 HD 
BRANCH  12  15
HETATM   15  C   UNL     1      -6.848   6.032  67.874  1.00  0.00    -0.063 C  
HETATM   16  H2  UNL     1      -5.521   7.650  67.965  1.00  0.00     0.000 HD 
HETATM   17  N   UNL     1      -6.025   7.111  67.263  1.00  0.00    -0.031 NA 
HETATM   18  H1  UNL     1      -5.399   6.719  66.560  1.00  0.00     0.000 HD 
BRANCH  15  19
HETATM   19  C   UNL     1      -7.562   5.197  66.826  1.00  0.00    -0.088 A  
HETATM   20  C   UNL     1      -8.588   5.721  66.021  1.00  0.00    -0.139 A  
HETATM   21  C   UNL     1      -7.153   3.871  66.604  1.00  0.00    -0.060 A  
HETATM   22  C   UNL     1      -7.705   3.119  65.563  1.00  0.00    -0.081 A  
HETATM   23  C   UNL     1      -9.131   4.972  64.976  1.00  0.00    -0.106 A  
HETATM   24  C   UNL     1      -8.679   3.677  64.738  1.00  0.00    -0.114 A  
ENDBRANCH  15  19
ENDBRANCH  12  15
ENDBRANCH   6  11
BRANCH   7  25
HETATM   25  C   UNL     1     -11.593  12.046  69.637  1.00  0.00    -0.301 C  
HETATM   26  O   UNL     1     -12.271  12.321  70.623  1.00  0.00    -0.371 OA 
BRANCH  25  27
HETATM   27  O   UNL     1     -10.938  12.986  68.897  1.00  0.00    -0.244 OA 
BRANCH  27  28
HETATM   28  C   UNL     1     -11.524  14.290  68.933  1.00  0.00    -0.286 C  
BRANCH  28  29
HETATM   29  O   UNL     1     -10.587  15.255  69.402  1.00  0.00    -0.231 OA 
BRANCH  29  30
HETATM   30  C   UNL     1      -9.577  15.572  68.551  1.00  0.00    -0.203 C  
HETATM   31  O   UNL     1      -9.114  14.813  67.711  1.00  0.00    -0.180 OA 
BRANCH  30  32
HETATM   32  C   UNL     1      -9.102  17.027  68.757  1.00  0.00    -0.252 C  
HETATM   33  N   UNL     1     -10.135  17.944  68.249  1.00  0.00    -0.353 N  
HETATM   34  C   UNL     1     -10.114  18.278  66.799  1.00  0.00    -0.364 C  
HETATM   35  S   UNL     1      -8.458  17.737  66.324  1.00  0.00    -0.140 S  
HETATM   36  C   UNL     1     -10.360  19.735  67.198  1.00  0.00    -0.589 C  
HETATM   37  O   UNL     1      -8.573  16.479  65.606  1.00  0.00    -0.359 OA 
HETATM   38  O   UNL     1      -7.715  18.842  65.752  1.00  0.00    -0.465 OA 
HETATM   39  C   UNL     1      -7.804  17.370  67.989  1.00  0.00    -0.207 C  
HETATM   40  C   UNL     1     -10.216  19.244  68.645  1.00  0.00    -0.355 C  
HETATM   41  C   UNL     1      -6.746  16.260  67.927  1.00  0.00    -0.151 C  
HETATM   42  C   UNL     1      -7.099  18.616  68.567  1.00  0.00    -0.297 C  
HETATM   43  O   UNL     1     -10.006  19.740  69.726  1.00  0.00    -0.196 OA 
ENDBRANCH  30  32
ENDBRANCH  29  30
ENDBRANCH  28  29
ENDBRANCH  27  28
ENDBRANCH  25  27
ENDBRANCH   7  25
TORSDOF 9
ENDMDL
MODEL      207
REMARK 921   NORMALIZED FREE ENERGY PREDICTED BY IDOCK:   -4.72 KCAL/MOL
REMARK 922        TOTAL FREE ENERGY PREDICTED BY IDOCK:   -7.71 KCAL/MOL
REMARK 923 INTER-LIGAND FREE ENERGY PREDICTED BY IDOCK:   -7.43 KCAL/MOL
REMARK 924 INTRA-LIGAND FREE ENERGY PREDICTED BY IDOCK:   -0.28 KCAL/MOL
REMARK 927      BINDING AFFINITY PREDICTED BY RF-SCORE:    0.00 PKD
ROOT
HETATM    1  C   UNL     1      -8.281  15.415  69.652  1.00  0.00    -0.127 C  
HETATM    2  C   UNL     1      -7.314  14.588  68.781  1.00  0.00    -0.129 C  
HETATM    3  S   UNL     1      -7.048  15.548  67.215  1.00  0.00    -0.142 SA 
HETATM    4  C   UNL     1      -6.007  14.488  69.577  1.00  0.00    -0.107 C  
HETATM    5  C   UNL     1      -8.343  14.616  66.265  1.00  0.00     0.634 C  
HETATM    6  C   UNL     1      -9.790  15.185  66.263  1.00  0.00    -0.295 C  
HETATM    7  C   UNL     1      -7.919  13.239  68.311  1.00  0.00    -0.144 C  
HETATM    8  C   UNL     1     -10.040  14.131  67.374  1.00  0.00    -0.240 C  
HETATM    9  O   UNL     1     -10.868  13.943  68.236  1.00  0.00    -0.237 OA 
HETATM   10  N   UNL     1      -8.811  13.568  67.190  1.00  0.00    -0.221 N  
ENDROOT
BRANCH   6  11
HETATM   11  N   UNL     1      -9.953  16.617  66.631  1.00  0.00    -0.270 N  
HETATM   12  C   UNL     1     -10.473  17.530  65.739  1.00  0.00    -0.207 C  
HETATM   13  O   UNL     1     -10.978  17.185  64.671  1.00  0.00    -1.005 OA 
HETATM   14  H   UNL     1      -9.675  16.930  67.561  1.00  0.00     0.000 HD 
BRANCH  12  15
HETATM   15  C   UNL     1     -10.344  19.011  66.160  1.00  0.00    -0.468 C  
HETATM   16  H2  UNL     1     -11.994  19.616  65.023  1.00  0.00     0.000 HD 
HETATM   17  N   UNL     1     -11.022  19.887  65.168  1.00  0.00    -0.140 NA 
HETATM   18  H1  UNL     1     -10.937  20.864  65.447  1.00  0.00     0.000 HD 
BRANCH  15  19
HETATM   19  C   UNL     1      -8.911  19.443  66.416  1.00  0.00    -0.385 A  
HETATM   20  C   UNL     1      -7.828  18.921  65.687  1.00  0.00     0.198 A  
HETATM   21  C   UNL     1      -8.650  20.440  67.371  1.00  0.00    -0.403 A  
HETATM   22  C   UNL     1      -7.359  20.948  67.539  1.00  0.00    -0.334 A  
HETATM   23  C   UNL     1      -6.541  19.436  65.850  1.00  0.00    -0.254 A  
HETATM   24  C   UNL     1      -6.310  20.459  66.764  1.00  0.00    -0.254 A  
ENDBRANCH  15  19
ENDBRANCH  12  15
ENDBRANCH   6  11
BRANCH   7  25
HETATM   25  C   UNL     1      -6.898  12.217  67.760  1.00  0.00    -0.109 C  
HETATM   26  O   UNL     1      -6.051  12.450  66.903  1.00  0.00    -0.244 OA 
BRANCH  25  27
HETATM   27  O   UNL     1      -7.057  10.992  68.339  1.00  0.00    -0.068 OA 
BRANCH  27  28
HETATM   28  C   UNL     1      -6.871   9.884  67.453  1.00  0.00    -0.082 C  
BRANCH  28  29
HETATM   29  O   UNL     1      -8.055   9.099  67.366  1.00  0.00    -0.106 OA 
BRANCH  29  30
HETATM   30  C   UNL     1      -7.887   7.753  67.423  1.00  0.00    -0.118 C  
HETATM   31  O   UNL     1      -7.559   7.053  66.474  1.00  0.00    -0.085 OA 
BRANCH  30  32
HETATM   32  C   UNL     1      -8.135   7.214  68.849  1.00  0.00    -0.121 C  
HETATM   33  N   UNL     1      -8.155   5.743  68.808  1.00  0.00    -0.101 N  
HETATM   34  C   UNL     1      -9.440   5.074  68.470  1.00  0.00    -0.138 C  
HETATM   35  S   UNL     1     -10.622   6.419  68.703  1.00  0.00    -0.283 S  
HETATM   36  C   UNL     1      -9.156   4.095  69.612  1.00  0.00    -0.184 C  
HETATM   37  O   UNL     1     -11.018   6.915  67.396  1.00  0.00    -0.307 OA 
HETATM   38  O   UNL     1     -11.626   6.040  69.677  1.00  0.00    -0.321 OA 
HETATM   39  C   UNL     1      -9.495   7.646  69.447  1.00  0.00    -0.152 C  
HETATM   40  C   UNL     1      -7.937   4.979  69.914  1.00  0.00    -0.074 C  
HETATM   41  C   UNL     1      -9.950   9.075  69.118  1.00  0.00    -0.187 C  
HETATM   42  C   UNL     1      -9.518   7.522  70.986  1.00  0.00    -0.162 C  
HETATM   43  O   UNL     1      -7.187   5.155  70.843  1.00  0.00    -0.060 OA 
ENDBRANCH  30  32
ENDBRANCH  29  30
ENDBRANCH  28  29
ENDBRANCH  27  28
ENDBRANCH  25  27
ENDBRANCH   7  25
TORSDOF 9
ENDMDL
MODEL      208
REMARK 921   NORMALIZED FREE ENERGY PREDICTED BY IDOCK:   -4.71 KCAL/MOL
REMARK 922        TOTAL FREE ENERGY PREDICTED BY IDOCK:   -7.70 KCAL/MOL
REMARK 923 INTER-LIGAND FREE ENERGY PREDICTED BY IDOCK:   -7.16 KCAL/MOL
REMARK 924 INTRA-LIGAND FREE ENERGY PREDICTED BY IDOCK:   -0.54 KCAL/MOL
REMARK 927      BINDING AFFINITY PREDICTED BY RF-SCORE:    0.00 PKD
ROOT
HETATM    1  C   UNL     1      -7.118   8.253  69.321  1.00  0.00    -0.060 C  
HETATM    2  C   UNL     1      -8.281   9.250  69.131  1.00  0.00    -0.111 C  
HETATM    3  S   UNL     1      -9.628   8.733  70.297  1.00  0.00    -0.187 SA 
HETATM    4  C   UNL     1      -7.727  10.625  69.526  1.00  0.00    -0.113 C  
HETATM    5  C   UNL     1     -10.551   7.759  69.013  1.00  0.00    -0.166 C  
HETATM    6  C   UNL     1     -10.216   6.247  68.870  1.00  0.00    -0.181 C  
HETATM    7  C   UNL     1      -8.931   9.166  67.724  1.00  0.00    -0.127 C  
HETATM    8  C   UNL     1      -9.330   6.715  67.685  1.00  0.00    -0.119 C  
HETATM    9  O   UNL     1      -8.415   6.258  67.039  1.00  0.00    -0.109 OA 
HETATM   10  N   UNL     1      -9.810   7.990  67.759  1.00  0.00    -0.157 N  
ENDROOT
BRANCH   6  11
HETATM   11  N   UNL     1      -9.531   5.596  70.019  1.00  0.00    -0.153 N  
HETATM   12  C   UNL     1     -10.172   5.420  71.226  1.00  0.00    -0.223 C  
HETATM   13  O   UNL     1     -11.376   5.635  71.365  1.00  0.00    -0.173 OA 
HETATM   14  H   UNL     1      -8.569   5.273  69.911  1.00  0.00     0.000 HD 
BRANCH  12  15
HETATM   15  C   UNL     1      -9.265   4.971  72.394  1.00  0.00    -0.133 C  
HETATM   16  H2  UNL     1     -10.487   3.345  72.892  1.00  0.00     0.000 HD 
HETATM   17  N   UNL     1     -10.038   4.136  73.352  1.00  0.00    -0.133 NA 
HETATM   18  H1  UNL     1      -9.440   3.840  74.123  1.00  0.00     0.000 HD 
BRANCH  15  19
HETATM   19  C   UNL     1      -8.556   6.122  73.086  1.00  0.00    -0.117 A  
HETATM   20  C   UNL     1      -9.253   7.113  73.798  1.00  0.00    -0.253 A  
HETATM   21  C   UNL     1      -7.152   6.178  73.069  1.00  0.00    -0.080 A  
HETATM   22  C   UNL     1      -6.468   7.152  73.801  1.00  0.00    -0.065 A  
HETATM   23  C   UNL     1      -8.568   8.080  74.535  1.00  0.00    -0.012 A  
HETATM   24  C   UNL     1      -7.176   8.091  74.549  1.00  0.00    -0.209 A  
ENDBRANCH  15  19
ENDBRANCH  12  15
ENDBRANCH   6  11
BRANCH   7  25
HETATM   25  C   UNL     1      -9.833  10.364  67.346  1.00  0.00    -0.178 C  
HETATM   26  O   UNL     1     -11.058  10.338  67.278  1.00  0.00    -0.264 OA 
BRANCH  25  27
HETATM   27  O   UNL     1      -9.094  11.478  67.076  1.00  0.00    -0.167 OA 
BRANCH  27  28
HETATM   28  C   UNL     1      -9.590  12.277  65.998  1.00  0.00    -0.222 C  
BRANCH  28  29
HETATM   29  O   UNL     1     -10.353  13.375  66.488  1.00  0.00    -0.274 OA 
BRANCH  29  30
HETATM   30  C   UNL     1      -9.844  14.025  67.565  1.00  0.00    -0.236 C  
HETATM   31  O   UNL     1     -10.229  13.868  68.716  1.00  0.00    -0.233 OA 
BRANCH  30  32
HETATM   32  C   UNL     1      -8.692  14.971  67.161  1.00  0.00    -0.220 C  
HETATM   33  N   UNL     1      -7.836  15.212  68.334  1.00  0.00    -0.122 N  
HETATM   34  C   UNL     1      -8.230  16.300  69.270  1.00  0.00    -0.148 C  
HETATM   35  S   UNL     1      -9.422  17.222  68.274  1.00  0.00    -0.293 S  
HETATM   36  C   UNL     1      -6.759  16.723  69.293  1.00  0.00    -0.229 C  
HETATM   37  O   UNL     1     -10.759  16.902  68.744  1.00  0.00    -0.330 OA 
HETATM   38  O   UNL     1      -9.002  18.602  68.143  1.00  0.00    -0.293 OA 
HETATM   39  C   UNL     1      -9.170  16.362  66.683  1.00  0.00    -0.253 C  
HETATM   40  C   UNL     1      -6.549  15.642  68.223  1.00  0.00    -0.122 C  
HETATM   41  C   UNL     1     -10.456  16.379  65.845  1.00  0.00    -0.350 C  
HETATM   42  C   UNL     1      -8.094  17.093  65.852  1.00  0.00    -0.018 C  
HETATM   43  O   UNL     1      -5.709  15.370  67.401  1.00  0.00    -0.327 OA 
ENDBRANCH  30  32
ENDBRANCH  29  30
ENDBRANCH  28  29
ENDBRANCH  27  28
ENDBRANCH  25  27
ENDBRANCH   7  25
TORSDOF 9
ENDMDL
MODEL      209
REMARK 921   NORMALIZED FREE ENERGY PREDICTED BY IDOCK:   -4.69 KCAL/MOL
REMARK 922        TOTAL FREE ENERGY PREDICTED BY IDOCK:   -7.67 KCAL/MOL
REMARK 923 INTER-LIGAND FREE ENERGY PREDICTED BY IDOCK:   -7.86 KCAL/MOL
REMARK 924 INTRA-LIGAND FREE ENERGY PREDICTED BY IDOCK:    0.19 KCAL/MOL
REMARK 927      BINDING AFFINITY PREDICTED BY RF-SCORE:    0.00 PKD
ROOT
HETATM    1  C   UNL     1     -10.973  11.761  68.310  1.00  0.00    -0.274 C  
HETATM    2  C   UNL     1     -11.045  12.366  66.893  1.00  0.00    -0.287 C  
HETATM    3  S   UNL     1     -10.842  10.961  65.699  1.00  0.00     0.040 SA 
HETATM    4  C   UNL     1     -12.444  12.981  66.765  1.00  0.00     0.121 C  
HETATM    5  C   UNL     1      -9.018  11.234  65.479  1.00  0.00    -0.129 C  
HETATM    6  C   UNL     1      -8.051  10.458  66.418  1.00  0.00    -0.129 C  
HETATM    7  C   UNL     1      -9.861  13.319  66.577  1.00  0.00    -0.281 C  
HETATM    8  C   UNL     1      -8.016  11.786  67.221  1.00  0.00    -0.161 C  
HETATM    9  O   UNL     1      -7.697  12.128  68.337  1.00  0.00    -0.123 OA 
HETATM   10  N   UNL     1      -8.720  12.449  66.259  1.00  0.00     0.015 N  
ENDROOT
BRANCH   6  11
HETATM   11  N   UNL     1      -8.596   9.258  67.106  1.00  0.00    -0.127 N  
HETATM   12  C   UNL     1      -8.442   7.996  66.572  1.00  0.00    -0.136 C  
HETATM   13  O   UNL     1      -7.714   7.781  65.604  1.00  0.00    -0.091 OA 
HETATM   14  H   UNL     1      -9.093   9.370  67.990  1.00  0.00     0.000 HD 
BRANCH  12  15
HETATM   15  C   UNL     1      -9.274   6.887  67.253  1.00  0.00    -0.127 C  
HETATM   16  H2  UNL     1      -9.676   8.047  68.950  1.00  0.00     0.000 HD 
HETATM   17  N   UNL     1      -9.329   7.116  68.722  1.00  0.00    -0.136 NA 
HETATM   18  H1  UNL     1      -9.878   6.383  69.171  1.00  0.00     0.000 HD 
BRANCH  15  19
HETATM   19  C   UNL     1      -8.804   5.483  66.913  1.00  0.00    -0.112 A  
HETATM   20  C   UNL     1      -7.804   4.827  67.651  1.00  0.00    -0.090 A  
HETATM   21  C   UNL     1      -9.422   4.784  65.862  1.00  0.00    -0.171 A  
HETATM   22  C   UNL     1      -9.100   3.449  65.606  1.00  0.00    -0.151 A  
HETATM   23  C   UNL     1      -7.490   3.491  67.400  1.00  0.00    -0.066 A  
HETATM   24  C   UNL     1      -8.148   2.798  66.388  1.00  0.00    -0.083 A  
ENDBRANCH  15  19
ENDBRANCH  12  15
ENDBRANCH   6  11
BRANCH   7  25
HETATM   25  C   UNL     1     -10.062  14.228  65.344  1.00  0.00    -0.351 C  
HETATM   26  O   UNL     1     -10.599  13.893  64.292  1.00  0.00    -0.328 OA 
BRANCH  25  27
HETATM   27  O   UNL     1      -9.550  15.475  65.555  1.00  0.00    -0.312 OA 
BRANCH  27  28
HETATM   28  C   UNL     1     -10.263  16.259  66.516  1.00  0.00    -0.300 C  
BRANCH  28  29
HETATM   29  O   UNL     1      -9.465  16.495  67.671  1.00  0.00    -0.222 OA 
BRANCH  29  30
HETATM   30  C   UNL     1      -9.302  17.794  68.032  1.00  0.00    -0.276 C  
HETATM   31  O   UNL     1     -10.170  18.652  67.948  1.00  0.00    -0.354 OA 
BRANCH  30  32
HETATM   32  C   UNL     1      -7.885  18.050  68.591  1.00  0.00    -0.290 C  
HETATM   33  N   UNL     1      -7.621  19.498  68.580  1.00  0.00    -0.333 N  
HETATM   34  C   UNL     1      -7.094  20.099  67.324  1.00  0.00    -0.260 C  
HETATM   35  S   UNL     1      -6.544  18.634  66.424  1.00  0.00    -0.210 S  
HETATM   36  C   UNL     1      -6.107  20.884  68.191  1.00  0.00    -0.395 C  
HETATM   37  O   UNL     1      -7.514  18.340  65.383  1.00  0.00    -0.502 OA 
HETATM   38  O   UNL     1      -5.135  18.746  66.101  1.00  0.00    -0.137 OA 
HETATM   39  C   UNL     1      -6.760  17.400  67.752  1.00  0.00    -0.161 C  
HETATM   40  C   UNL     1      -6.670  20.073  69.367  1.00  0.00    -0.280 C  
HETATM   41  C   UNL     1      -7.073  16.017  67.166  1.00  0.00    -0.248 C  
HETATM   42  C   UNL     1      -5.449  17.251  68.554  1.00  0.00    -0.145 C  
HETATM   43  O   UNL     1      -6.329  19.804  70.493  1.00  0.00    -0.253 OA 
ENDBRANCH  30  32
ENDBRANCH  29  30
ENDBRANCH  28  29
ENDBRANCH  27  28
ENDBRANCH  25  27
ENDBRANCH   7  25
TORSDOF 9
ENDMDL
MODEL      210
REMARK 921   NORMALIZED FREE ENERGY PREDICTED BY IDOCK:   -4.67 KCAL/MOL
REMARK 922        TOTAL FREE ENERGY PREDICTED BY IDOCK:   -7.64 KCAL/MOL
REMARK 923 INTER-LIGAND FREE ENERGY PREDICTED BY IDOCK:   -7.45 KCAL/MOL
REMARK 924 INTRA-LIGAND FREE ENERGY PREDICTED BY IDOCK:   -0.19 KCAL/MOL
REMARK 927      BINDING AFFINITY PREDICTED BY RF-SCORE:    0.00 PKD
ROOT
HETATM    1  C   UNL     1      -8.819   8.113  69.848  1.00  0.00    -0.139 C  
HETATM    2  C   UNL     1      -9.605   8.899  68.778  1.00  0.00    -0.157 C  
HETATM    3  S   UNL     1     -10.625   7.662  67.844  1.00  0.00    -0.125 SA 
HETATM    4  C   UNL     1     -10.510   9.870  69.545  1.00  0.00    -0.261 C  
HETATM    5  C   UNL     1      -9.386   7.473  66.473  1.00  0.00    -0.181 C  
HETATM    6  C   UNL     1      -8.316   6.354  66.612  1.00  0.00    -0.113 C  
HETATM    7  C   UNL     1      -8.691   9.541  67.700  1.00  0.00    -0.122 C  
HETATM    8  C   UNL     1      -7.399   7.506  67.100  1.00  0.00    -0.094 C  
HETATM    9  O   UNL     1      -6.360   7.602  67.712  1.00  0.00    -0.047 OA 
HETATM   10  N   UNL     1      -8.328   8.453  66.782  1.00  0.00    -0.108 N  
ENDROOT
BRANCH   6  11
HETATM   11  N   UNL     1      -8.607   5.258  67.574  1.00  0.00    -0.105 N  
HETATM   12  C   UNL     1      -7.713   4.228  67.776  1.00  0.00    -0.080 C  
HETATM   13  O   UNL     1      -6.576   4.248  67.306  1.00  0.00    -0.044 OA 
HETATM   14  H   UNL     1      -9.484   5.268  68.095  1.00  0.00     0.000 HD 
BRANCH  12  15
HETATM   15  C   UNL     1      -8.254   3.038  68.600  1.00  0.00    -0.064 C  
HETATM   16  H2  UNL     1      -9.281   2.209  66.974  1.00  0.00     0.000 HD 
HETATM   17  N   UNL     1      -9.461   2.467  67.943  1.00  0.00    -0.331 NA 
HETATM   18  H1  UNL     1      -9.818   1.682  68.487  1.00  0.00     0.000 HD 
BRANCH  15  19
HETATM   19  C   UNL     1      -8.506   3.378  70.058  1.00  0.00    -0.094 A  
HETATM   20  C   UNL     1      -9.568   2.814  70.787  1.00  0.00    -0.187 A  
HETATM   21  C   UNL     1      -7.622   4.239  70.729  1.00  0.00    -0.052 A  
HETATM   22  C   UNL     1      -7.755   4.471  72.100  1.00  0.00    -0.090 A  
HETATM   23  C   UNL     1      -9.693   3.040  72.158  1.00  0.00    -0.231 A  
HETATM   24  C   UNL     1      -8.778   3.856  72.818  1.00  0.00    -0.104 A  
ENDBRANCH  15  19
ENDBRANCH  12  15
ENDBRANCH   6  11
BRANCH   7  25
HETATM   25  C   UNL     1      -9.365  10.628  66.831  1.00  0.00    -0.159 C  
HETATM   26  O   UNL     1      -8.804  11.298  65.969  1.00  0.00    -0.191 OA 
BRANCH  25  27
HETATM   27  O   UNL     1     -10.684  10.771  67.147  1.00  0.00    -0.244 OA 
BRANCH  27  28
HETATM   28  C   UNL     1     -11.343  11.853  66.482  1.00  0.00    -0.341 C  
BRANCH  28  29
HETATM   29  O   UNL     1     -11.151  13.076  67.186  1.00  0.00    -0.260 OA 
BRANCH  29  30
HETATM   30  C   UNL     1     -10.985  14.186  66.423  1.00  0.00    -0.311 C  
HETATM   31  O   UNL     1     -11.867  14.707  65.754  1.00  0.00    -0.346 OA 
BRANCH  30  32
HETATM   32  C   UNL     1      -9.543  14.731  66.527  1.00  0.00    -0.284 C  
HETATM   33  N   UNL     1      -8.949  14.272  67.793  1.00  0.00    -0.180 N  
HETATM   34  C   UNL     1      -9.206  15.081  69.015  1.00  0.00    -0.205 C  
HETATM   35  S   UNL     1      -9.808  16.629  68.307  1.00  0.00    -0.264 S  
HETATM   36  C   UNL     1      -7.723  14.918  69.356  1.00  0.00    -0.150 C  
HETATM   37  O   UNL     1     -11.250  16.682  68.475  1.00  0.00    -0.344 OA 
HETATM   38  O   UNL     1      -8.978  17.734  68.743  1.00  0.00    -0.277 OA 
HETATM   39  C   UNL     1      -9.464  16.276  66.549  1.00  0.00    -0.264 C  
HETATM   40  C   UNL     1      -7.602  14.222  67.992  1.00  0.00    -0.142 C  
HETATM   41  C   UNL     1     -10.457  17.012  65.640  1.00  0.00    -0.229 C  
HETATM   42  C   UNL     1      -8.058  16.790  66.171  1.00  0.00    -0.293 C  
HETATM   43  O   UNL     1      -6.715  13.937  67.225  1.00  0.00    -0.237 OA 
ENDBRANCH  30  32
ENDBRANCH  29  30
ENDBRANCH  28  29
ENDBRANCH  27  28
ENDBRANCH  25  27
ENDBRANCH   7  25
TORSDOF 9
ENDMDL
MODEL      211
REMARK 921   NORMALIZED FREE ENERGY PREDICTED BY IDOCK:   -4.64 KCAL/MOL
REMARK 922        TOTAL FREE ENERGY PREDICTED BY IDOCK:   -7.59 KCAL/MOL
REMARK 923 INTER-LIGAND FREE ENERGY PREDICTED BY IDOCK:   -6.82 KCAL/MOL
REMARK 924 INTRA-LIGAND FREE ENERGY PREDICTED BY IDOCK:   -0.78 KCAL/MOL
REMARK 927      BINDING AFFINITY PREDICTED BY RF-SCORE:    0.00 PKD
ROOT
HETATM    1  C   UNL     1      -6.788   5.484  69.677  1.00  0.00    -0.060 C  
HETATM    2  C   UNL     1      -8.010   6.321  70.110  1.00  0.00    -0.108 C  
HETATM    3  S   UNL     1      -9.504   5.517  69.358  1.00  0.00    -0.141 SA 
HETATM    4  C   UNL     1      -8.065   6.230  71.640  1.00  0.00    -0.106 C  
HETATM    5  C   UNL     1      -9.536   6.645  67.883  1.00  0.00    -0.119 C  
HETATM    6  C   UNL     1      -8.764   6.197  66.610  1.00  0.00    -0.124 C  
HETATM    7  C   UNL     1      -8.004   7.757  69.521  1.00  0.00    -0.117 C  
HETATM    8  C   UNL     1      -7.653   7.142  67.140  1.00  0.00    -0.103 C  
HETATM    9  O   UNL     1      -6.470   7.302  66.946  1.00  0.00    -0.051 OA 
HETATM   10  N   UNL     1      -8.459   7.622  68.131  1.00  0.00    -0.124 N  
ENDROOT
BRANCH   6  11
HETATM   11  N   UNL     1      -8.433   4.751  66.496  1.00  0.00    -0.110 N  
HETATM   12  C   UNL     1      -8.998   3.964  65.515  1.00  0.00    -0.133 C  
HETATM   13  O   UNL     1      -9.662   4.442  64.596  1.00  0.00    -0.156 OA 
HETATM   14  H   UNL     1      -7.776   4.334  67.155  1.00  0.00     0.000 HD 
BRANCH  12  15
HETATM   15  C   UNL     1      -8.767   2.445  65.675  1.00  0.00    -0.121 C  
HETATM   16  H2  UNL     1     -10.032   1.951  64.081  1.00  0.00     0.000 HD 
HETATM   17  N   UNL     1      -9.887   1.688  65.055  1.00  0.00    -0.320 NA 
HETATM   18  H1  UNL     1      -9.735   0.685  65.161  1.00  0.00     0.000 HD 
BRANCH  15  19
HETATM   19  C   UNL     1      -8.517   2.020  67.111  1.00  0.00    -0.099 A  
HETATM   20  C   UNL     1      -7.229   1.742  67.599  1.00  0.00    -0.046 A  
HETATM   21  C   UNL     1      -9.597   1.953  68.008  1.00  0.00    -0.108 A  
HETATM   22  C   UNL     1      -9.383   1.689  69.364  1.00  0.00    -0.165 A  
HETATM   23  C   UNL     1      -7.016   1.486  68.954  1.00  0.00    -0.036 A  
HETATM   24  C   UNL     1      -8.091   1.474  69.839  1.00  0.00    -0.055 A  
ENDBRANCH  15  19
ENDBRANCH  12  15
ENDBRANCH   6  11
BRANCH   7  25
HETATM   25  C   UNL     1      -8.980   8.746  70.197  1.00  0.00    -0.166 C  
HETATM   26  O   UNL     1     -10.084   8.459  70.651  1.00  0.00    -0.188 OA 
BRANCH  25  27
HETATM   27  O   UNL     1      -8.470  10.011  70.221  1.00  0.00    -0.128 OA 
BRANCH  27  28
HETATM   28  C   UNL     1      -8.401  10.652  68.943  1.00  0.00    -0.150 C  
BRANCH  28  29
HETATM   29  O   UNL     1      -9.685  10.700  68.329  1.00  0.00    -0.152 OA 
BRANCH  29  30
HETATM   30  C   UNL     1     -10.514  11.689  68.749  1.00  0.00    -0.204 C  
HETATM   31  O   UNL     1     -11.545  11.509  69.383  1.00  0.00    -0.265 OA 
BRANCH  30  32
HETATM   32  C   UNL     1      -9.978  13.081  68.349  1.00  0.00    -0.216 C  
HETATM   33  N   UNL     1     -10.792  14.115  69.009  1.00  0.00    -0.254 N  
HETATM   34  C   UNL     1     -12.047  14.546  68.335  1.00  0.00    -0.214 C  
HETATM   35  S   UNL     1     -11.803  13.903  66.666  1.00  0.00    -0.441 S  
HETATM   36  C   UNL     1     -11.652  15.987  68.667  1.00  0.00    -0.343 C  
HETATM   37  O   UNL     1     -12.621  12.712  66.507  1.00  0.00    -0.252 OA 
HETATM   38  O   UNL     1     -11.881  14.979  65.698  1.00  0.00    -0.212 OA 
HETATM   39  C   UNL     1     -10.066  13.367  66.831  1.00  0.00    -0.255 C  
HETATM   40  C   UNL     1     -10.344  15.387  69.199  1.00  0.00    -0.240 C  
HETATM   41  C   UNL     1      -9.770  12.179  65.906  1.00  0.00    -0.253 C  
HETATM   42  C   UNL     1      -9.117  14.506  66.399  1.00  0.00    -0.217 C  
HETATM   43  O   UNL     1      -9.236  15.786  69.466  1.00  0.00    -0.260 OA 
ENDBRANCH  30  32
ENDBRANCH  29  30
ENDBRANCH  28  29
ENDBRANCH  27  28
ENDBRANCH  25  27
ENDBRANCH   7  25
TORSDOF 9
ENDMDL
MODEL      212
REMARK 921   NORMALIZED FREE ENERGY PREDICTED BY IDOCK:   -4.64 KCAL/MOL
REMARK 922        TOTAL FREE ENERGY PREDICTED BY IDOCK:   -7.59 KCAL/MOL
REMARK 923 INTER-LIGAND FREE ENERGY PREDICTED BY IDOCK:   -6.69 KCAL/MOL
REMARK 924 INTRA-LIGAND FREE ENERGY PREDICTED BY IDOCK:   -0.89 KCAL/MOL
REMARK 927      BINDING AFFINITY PREDICTED BY RF-SCORE:    0.00 PKD
ROOT
HETATM    1  C   UNL     1      -8.999  12.442  67.673  1.00  0.00    -0.183 C  
HETATM    2  C   UNL     1      -7.706  11.669  68.003  1.00  0.00    -0.121 C  
HETATM    3  S   UNL     1      -7.091  10.947  66.409  1.00  0.00    -0.116 SA 
HETATM    4  C   UNL     1      -6.715  12.710  68.538  1.00  0.00    -0.089 C  
HETATM    5  C   UNL     1      -7.885   9.292  66.695  1.00  0.00    -0.104 C  
HETATM    6  C   UNL     1      -9.320   9.072  66.139  1.00  0.00    -0.232 C  
HETATM    7  C   UNL     1      -7.948  10.440  68.919  1.00  0.00    -0.123 C  
HETATM    8  C   UNL     1      -9.764   9.386  67.592  1.00  0.00    -0.155 C  
HETATM    9  O   UNL     1     -10.789   9.714  68.145  1.00  0.00    -0.237 OA 
HETATM   10  N   UNL     1      -8.477   9.385  68.043  1.00  0.00    -0.120 N  
ENDROOT
BRANCH   6  11
HETATM   11  N   UNL     1      -9.779   9.998  65.069  1.00  0.00    -0.309 N  
HETATM   12  C   UNL     1      -9.224   9.963  63.807  1.00  0.00    -0.243 C  
HETATM   13  O   UNL     1      -8.454   9.071  63.456  1.00  0.00    -0.192 OA 
HETATM   14  H   UNL     1     -10.519  10.670  65.272  1.00  0.00     0.000 HD 
BRANCH  12  15
HETATM   15  C   UNL     1      -9.612  11.142  62.886  1.00  0.00    -0.348 C  
HETATM   16  H2  UNL     1      -7.720  11.236  61.992  1.00  0.00     0.000 HD 
HETATM   17  N   UNL     1      -8.391  11.863  62.436  1.00  0.00    -0.230 NA 
HETATM   18  H1  UNL     1      -8.646  12.640  61.828  1.00  0.00     0.000 HD 
BRANCH  15  19
HETATM   19  C   UNL     1     -10.633  12.081  63.502  1.00  0.00    -0.514 A  
HETATM   20  C   UNL     1     -12.017  11.883  63.360  1.00  0.00    -0.528 A  
HETATM   21  C   UNL     1     -10.192  13.157  64.293  1.00  0.00    -0.283 A  
HETATM   22  C   UNL     1     -11.108  13.962  64.976  1.00  0.00    -0.353 A  
HETATM   23  C   UNL     1     -12.929  12.683  64.050  1.00  0.00    -0.136 A  
HETATM   24  C   UNL     1     -12.474  13.712  64.869  1.00  0.00    -0.423 A  
ENDBRANCH  15  19
ENDBRANCH  12  15
ENDBRANCH   6  11
BRANCH   7  25
HETATM   25  C   UNL     1      -6.679   9.852  69.578  1.00  0.00    -0.057 C  
HETATM   26  O   UNL     1      -5.621   9.620  69.002  1.00  0.00    -0.036 OA 
BRANCH  25  27
HETATM   27  O   UNL     1      -6.877   9.601  70.904  1.00  0.00    -0.201 OA 
BRANCH  27  28
HETATM   28  C   UNL     1      -6.319   8.369  71.369  1.00  0.00    -0.045 C  
BRANCH  28  29
HETATM   29  O   UNL     1      -7.274   7.315  71.287  1.00  0.00    -0.070 OA 
BRANCH  29  30
HETATM   30  C   UNL     1      -7.011   6.338  70.382  1.00  0.00    -0.063 C  
HETATM   31  O   UNL     1      -6.330   6.487  69.377  1.00  0.00    -0.032 OA 
BRANCH  30  32
HETATM   32  C   UNL     1      -7.658   4.998  70.797  1.00  0.00    -0.074 C  
HETATM   33  N   UNL     1      -6.872   3.891  70.229  1.00  0.00    -0.033 N  
HETATM   34  C   UNL     1      -7.180   3.462  68.838  1.00  0.00    -0.049 C  
HETATM   35  S   UNL     1      -8.791   4.230  68.568  1.00  0.00    -0.109 S  
HETATM   36  C   UNL     1      -7.091   2.017  69.333  1.00  0.00    -0.036 C  
HETATM   37  O   UNL     1      -8.609   5.398  67.723  1.00  0.00    -0.106 OA 
HETATM   38  O   UNL     1      -9.774   3.223  68.224  1.00  0.00    -0.127 OA 
HETATM   39  C   UNL     1      -9.101   4.816  70.270  1.00  0.00    -0.115 C  
HETATM   40  C   UNL     1      -6.921   2.626  70.732  1.00  0.00    -0.033 C  
HETATM   41  C   UNL     1      -9.977   6.077  70.261  1.00  0.00    -0.236 C  
HETATM   42  C   UNL     1      -9.880   3.746  71.064  1.00  0.00    -0.204 C  
HETATM   43  O   UNL     1      -7.023   2.250  71.874  1.00  0.00    -0.025 OA 
ENDBRANCH  30  32
ENDBRANCH  29  30
ENDBRANCH  28  29
ENDBRANCH  27  28
ENDBRANCH  25  27
ENDBRANCH   7  25
TORSDOF 9
ENDMDL
MODEL      213
REMARK 921   NORMALIZED FREE ENERGY PREDICTED BY IDOCK:   -4.63 KCAL/MOL
REMARK 922        TOTAL FREE ENERGY PREDICTED BY IDOCK:   -7.57 KCAL/MOL
REMARK 923 INTER-LIGAND FREE ENERGY PREDICTED BY IDOCK:   -7.53 KCAL/MOL
REMARK 924 INTRA-LIGAND FREE ENERGY PREDICTED BY IDOCK:   -0.03 KCAL/MOL
REMARK 927      BINDING AFFINITY PREDICTED BY RF-SCORE:    0.00 PKD
ROOT
HETATM    1  C   UNL     1      -8.080   7.118  68.692  1.00  0.00    -0.124 C  
HETATM    2  C   UNL     1      -8.953   8.388  68.625  1.00  0.00    -0.140 C  
HETATM    3  S   UNL     1     -10.251   8.080  67.336  1.00  0.00    -0.287 SA 
HETATM    4  C   UNL     1      -9.595   8.534  70.009  1.00  0.00    -0.170 C  
HETATM    5  C   UNL     1      -9.303   8.932  65.984  1.00  0.00    -0.242 C  
HETATM    6  C   UNL     1      -8.355   8.066  65.108  1.00  0.00    -0.130 C  
HETATM    7  C   UNL     1      -8.180   9.631  68.108  1.00  0.00    -0.106 C  
HETATM    8  C   UNL     1      -7.245   8.611  66.045  1.00  0.00    -0.084 C  
HETATM    9  O   UNL     1      -6.109   8.307  66.332  1.00  0.00    -0.047 OA 
HETATM   10  N   UNL     1      -8.107   9.480  66.649  1.00  0.00    -0.108 N  
ENDROOT
BRANCH   6  11
HETATM   11  N   UNL     1      -8.588   6.597  65.109  1.00  0.00    -0.340 N  
HETATM   12  C   UNL     1      -8.071   5.790  64.118  1.00  0.00    -0.120 C  
HETATM   13  O   UNL     1      -7.263   6.209  63.290  1.00  0.00    -0.049 OA 
HETATM   14  H   UNL     1      -9.142   6.178  65.857  1.00  0.00     0.000 HD 
BRANCH  12  15
HETATM   15  C   UNL     1      -8.605   4.340  64.104  1.00  0.00    -0.115 C  
HETATM   16  H2  UNL     1     -10.105   4.767  62.707  1.00  0.00     0.000 HD 
HETATM   17  N   UNL     1     -10.010   4.316  63.616  1.00  0.00    -0.350 NA 
HETATM   18  H1  UNL     1     -10.362   3.359  63.607  1.00  0.00     0.000 HD 
BRANCH  15  19
HETATM   19  C   UNL     1      -8.452   3.626  65.435  1.00  0.00    -0.106 A  
HETATM   20  C   UNL     1      -9.507   3.524  66.357  1.00  0.00    -0.164 A  
HETATM   21  C   UNL     1      -7.236   2.993  65.743  1.00  0.00    -0.070 A  
HETATM   22  C   UNL     1      -7.106   2.223  66.902  1.00  0.00    -0.048 A  
HETATM   23  C   UNL     1      -9.379   2.747  67.509  1.00  0.00    -0.201 A  
HETATM   24  C   UNL     1      -8.183   2.085  67.774  1.00  0.00    -0.074 A  
ENDBRANCH  15  19
ENDBRANCH  12  15
ENDBRANCH   6  11
BRANCH   7  25
HETATM   25  C   UNL     1      -8.873  10.988  68.364  1.00  0.00    -0.151 C  
HETATM   26  O   UNL     1      -9.857  11.161  69.078  1.00  0.00    -0.189 OA 
BRANCH  25  27
HETATM   27  O   UNL     1      -8.263  11.997  67.678  1.00  0.00    -0.138 OA 
BRANCH  27  28
HETATM   28  C   UNL     1      -9.158  12.900  67.021  1.00  0.00    -0.228 C  
BRANCH  28  29
HETATM   29  O   UNL     1      -9.594  13.922  67.912  1.00  0.00    -0.213 OA 
BRANCH  29  30
HETATM   30  C   UNL     1      -8.712  14.926  68.150  1.00  0.00    -0.164 C  
HETATM   31  O   UNL     1      -7.942  14.962  69.101  1.00  0.00    -0.162 OA 
BRANCH  30  32
HETATM   32  C   UNL     1      -8.781  16.009  67.051  1.00  0.00    -0.210 C  
HETATM   33  N   UNL     1      -7.934  17.146  67.447  1.00  0.00    -0.177 N  
HETATM   34  C   UNL     1      -8.533  18.185  68.329  1.00  0.00    -0.284 C  
HETATM   35  S   UNL     1     -10.295  17.823  68.173  1.00  0.00    -0.389 S  
HETATM   36  C   UNL     1      -7.882  19.234  67.425  1.00  0.00    -0.283 C  
HETATM   37  O   UNL     1     -10.734  17.141  69.379  1.00  0.00    -0.288 OA 
HETATM   38  O   UNL     1     -11.005  18.991  67.692  1.00  0.00    -0.407 OA 
HETATM   39  C   UNL     1     -10.201  16.583  66.836  1.00  0.00    -0.296 C  
HETATM   40  C   UNL     1      -7.457  18.049  66.546  1.00  0.00    -0.240 C  
HETATM   41  C   UNL     1     -11.356  15.578  66.942  1.00  0.00    -0.079 C  
HETATM   42  C   UNL     1     -10.345  17.274  65.462  1.00  0.00    -0.108 C  
HETATM   43  O   UNL     1      -7.078  17.886  65.412  1.00  0.00    -0.452 OA 
ENDBRANCH  30  32
ENDBRANCH  29  30
ENDBRANCH  28  29
ENDBRANCH  27  28
ENDBRANCH  25  27
ENDBRANCH   7  25
TORSDOF 9
ENDMDL
MODEL      214
REMARK 921   NORMALIZED FREE ENERGY PREDICTED BY IDOCK:   -4.62 KCAL/MOL
REMARK 922        TOTAL FREE ENERGY PREDICTED BY IDOCK:   -7.56 KCAL/MOL
REMARK 923 INTER-LIGAND FREE ENERGY PREDICTED BY IDOCK:   -7.09 KCAL/MOL
REMARK 924 INTRA-LIGAND FREE ENERGY PREDICTED BY IDOCK:   -0.47 KCAL/MOL
REMARK 927      BINDING AFFINITY PREDICTED BY RF-SCORE:    0.00 PKD
ROOT
HETATM    1  C   UNL     1      -7.679   7.461  70.448  1.00  0.00    -0.093 C  
HETATM    2  C   UNL     1      -8.661   8.440  69.773  1.00  0.00    -0.133 C  
HETATM    3  S   UNL     1     -10.186   8.485  70.830  1.00  0.00    -0.206 SA 
HETATM    4  C   UNL     1      -7.966   9.807  69.776  1.00  0.00    -0.169 C  
HETATM    5  C   UNL     1     -11.093   7.225  69.810  1.00  0.00    -0.182 C  
HETATM    6  C   UNL     1     -10.961   5.730  70.219  1.00  0.00    -0.276 C  
HETATM    7  C   UNL     1      -9.161   7.944  68.390  1.00  0.00    -0.134 C  
HETATM    8  C   UNL     1      -9.895   5.677  69.092  1.00  0.00    -0.162 C  
HETATM    9  O   UNL     1      -8.989   4.941  68.775  1.00  0.00    -0.099 OA 
HETATM   10  N   UNL     1     -10.196   6.941  68.674  1.00  0.00    -0.166 N  
ENDROOT
BRANCH   6  11
HETATM   11  N   UNL     1     -10.503   5.448  71.606  1.00  0.00    -0.225 N  
HETATM   12  C   UNL     1     -11.384   5.458  72.666  1.00  0.00    -0.266 C  
HETATM   13  O   UNL     1     -12.602   5.532  72.503  1.00  0.00     0.080 OA 
HETATM   14  H   UNL     1      -9.518   5.243  71.776  1.00  0.00     0.000 HD 
BRANCH  12  15
HETATM   15  C   UNL     1     -10.732   5.405  74.066  1.00  0.00    -0.210 C  
HETATM   16  H2  UNL     1     -10.690   7.489  74.269  1.00  0.00     0.000 HD 
HETATM   17  N   UNL     1     -10.056   6.696  74.365  1.00  0.00    -0.406 NA 
HETATM   18  H1  UNL     1      -9.625   6.661  75.288  1.00  0.00     0.000 HD 
BRANCH  15  19
HETATM   19  C   UNL     1      -9.803   4.219  74.255  1.00  0.00    -0.169 A  
HETATM   20  C   UNL     1     -10.274   2.896  74.292  1.00  0.00    -0.200 A  
HETATM   21  C   UNL     1      -8.417   4.434  74.340  1.00  0.00    -0.093 A  
HETATM   22  C   UNL     1      -7.529   3.356  74.388  1.00  0.00    -0.053 A  
HETATM   23  C   UNL     1      -9.386   1.820  74.331  1.00  0.00    -0.083 A  
HETATM   24  C   UNL     1      -8.013   2.050  74.364  1.00  0.00    -0.045 A  
ENDBRANCH  15  19
ENDBRANCH  12  15
ENDBRANCH   6  11
BRANCH   7  25
HETATM   25  C   UNL     1      -9.839   9.021  67.513  1.00  0.00    -0.179 C  
HETATM   26  O   UNL     1     -10.992   9.422  67.642  1.00  0.00    -0.223 OA 
BRANCH  25  27
HETATM   27  O   UNL     1      -8.995   9.479  66.544  1.00  0.00    -0.142 OA 
BRANCH  27  28
HETATM   28  C   UNL     1      -8.508  10.808  66.755  1.00  0.00    -0.134 C  
BRANCH  28  29
HETATM   29  O   UNL     1      -9.361  11.765  66.134  1.00  0.00    -0.221 OA 
BRANCH  29  30
HETATM   30  C   UNL     1      -9.145  13.064  66.465  1.00  0.00    -0.127 C  
HETATM   31  O   UNL     1      -8.079  13.509  66.870  1.00  0.00    -0.058 OA 
BRANCH  30  32
HETATM   32  C   UNL     1     -10.409  13.921  66.239  1.00  0.00    -0.293 C  
HETATM   33  N   UNL     1     -10.010  15.227  65.689  1.00  0.00    -0.351 N  
HETATM   34  C   UNL     1      -9.614  16.293  66.649  1.00  0.00    -0.246 C  
HETATM   35  S   UNL     1     -10.257  15.640  68.205  1.00  0.00    -0.232 S  
HETATM   36  C   UNL     1     -10.456  17.264  65.818  1.00  0.00    -0.237 C  
HETATM   37  O   UNL     1      -9.145  15.112  68.977  1.00  0.00    -0.197 OA 
HETATM   38  O   UNL     1     -11.180  16.585  68.800  1.00  0.00    -0.333 OA 
HETATM   39  C   UNL     1     -11.194  14.222  67.538  1.00  0.00    -0.307 C  
HETATM   40  C   UNL     1     -10.875  16.028  65.008  1.00  0.00    -0.404 C  
HETATM   41  C   UNL     1     -11.261  13.082  68.562  1.00  0.00    -0.309 C  
HETATM   42  C   UNL     1     -12.653  14.640  67.251  1.00  0.00     0.596 C  
HETATM   43  O   UNL     1     -11.761  15.737  64.241  1.00  0.00    -0.400 OA 
ENDBRANCH  30  32
ENDBRANCH  29  30
ENDBRANCH  28  29
ENDBRANCH  27  28
ENDBRANCH  25  27
ENDBRANCH   7  25
TORSDOF 9
ENDMDL
MODEL      215
REMARK 921   NORMALIZED FREE ENERGY PREDICTED BY IDOCK:   -4.58 KCAL/MOL
REMARK 922        TOTAL FREE ENERGY PREDICTED BY IDOCK:   -7.49 KCAL/MOL
REMARK 923 INTER-LIGAND FREE ENERGY PREDICTED BY IDOCK:   -6.97 KCAL/MOL
REMARK 924 INTRA-LIGAND FREE ENERGY PREDICTED BY IDOCK:   -0.53 KCAL/MOL
REMARK 927      BINDING AFFINITY PREDICTED BY RF-SCORE:    0.00 PKD
ROOT
HETATM    1  C   UNL     1      -8.838   5.192  68.260  1.00  0.00    -0.107 C  
HETATM    2  C   UNL     1      -8.310   6.567  67.801  1.00  0.00    -0.119 C  
HETATM    3  S   UNL     1      -7.465   7.332  69.265  1.00  0.00    -0.098 SA 
HETATM    4  C   UNL     1      -7.297   6.280  66.686  1.00  0.00    -0.078 C  
HETATM    5  C   UNL     1      -8.950   8.325  69.774  1.00  0.00    -0.146 C  
HETATM    6  C   UNL     1      -9.936   7.683  70.791  1.00  0.00    -0.181 C  
HETATM    7  C   UNL     1      -9.443   7.565  67.440  1.00  0.00    -0.142 C  
HETATM    8  C   UNL     1     -10.769   7.336  69.528  1.00  0.00    -0.232 C  
HETATM    9  O   UNL     1     -11.664   6.571  69.250  1.00  0.00    -0.250 OA 
HETATM   10  N   UNL     1      -9.952   8.073  68.721  1.00  0.00    -0.183 N  
ENDROOT
BRANCH   6  11
HETATM   11  N   UNL     1      -9.424   6.548  71.604  1.00  0.00    -0.157 N  
HETATM   12  C   UNL     1      -8.823   6.759  72.827  1.00  0.00    -0.121 C  
HETATM   13  O   UNL     1      -8.831   7.859  73.378  1.00  0.00    -0.207 OA 
HETATM   14  H   UNL     1      -9.518   5.596  71.251  1.00  0.00     0.000 HD 
BRANCH  12  15
HETATM   15  C   UNL     1      -8.114   5.527  73.434  1.00  0.00    -0.114 C  
HETATM   16  H2  UNL     1      -7.212   6.636  74.964  1.00  0.00     0.000 HD 
HETATM   17  N   UNL     1      -6.948   5.958  74.250  1.00  0.00    -0.080 NA 
HETATM   18  H1  UNL     1      -6.480   5.145  74.650  1.00  0.00     0.000 HD 
BRANCH  15  19
HETATM   19  C   UNL     1      -7.732   4.481  72.401  1.00  0.00    -0.085 A  
HETATM   20  C   UNL     1      -8.575   3.406  72.074  1.00  0.00    -0.101 A  
HETATM   21  C   UNL     1      -6.520   4.613  71.702  1.00  0.00    -0.023 A  
HETATM   22  C   UNL     1      -6.199   3.739  70.659  1.00  0.00    -0.019 A  
HETATM   23  C   UNL     1      -8.258   2.540  71.027  1.00  0.00    -0.070 A  
HETATM   24  C   UNL     1      -7.077   2.715  70.310  1.00  0.00    -0.033 A  
ENDBRANCH  15  19
ENDBRANCH  12  15
ENDBRANCH   6  11
BRANCH   7  25
HETATM   25  C   UNL     1      -8.992   8.805  66.636  1.00  0.00    -0.139 C  
HETATM   26  O   UNL     1      -9.298   9.048  65.472  1.00  0.00    -0.230 OA 
BRANCH  25  27
HETATM   27  O   UNL     1      -8.185   9.616  67.380  1.00  0.00    -0.113 OA 
BRANCH  27  28
HETATM   28  C   UNL     1      -8.216  10.996  67.006  1.00  0.00    -0.138 C  
BRANCH  28  29
HETATM   29  O   UNL     1      -9.328  11.659  67.601  1.00  0.00    -0.171 OA 
BRANCH  29  30
HETATM   30  C   UNL     1     -10.172  12.295  66.749  1.00  0.00    -0.211 C  
HETATM   31  O   UNL     1     -11.098  11.757  66.157  1.00  0.00    -0.300 OA 
BRANCH  30  32
HETATM   32  C   UNL     1      -9.834  13.798  66.640  1.00  0.00    -0.284 C  
HETATM   33  N   UNL     1      -9.086  14.209  67.839  1.00  0.00    -0.182 N  
HETATM   34  C   UNL     1      -9.865  14.602  69.044  1.00  0.00    -0.177 C  
HETATM   35  S   UNL     1     -11.511  14.856  68.346  1.00  0.00    -0.331 S  
HETATM   36  C   UNL     1      -8.906  15.785  69.198  1.00  0.00    -0.250 C  
HETATM   37  O   UNL     1     -12.340  13.715  68.695  1.00  0.00    -0.258 OA 
HETATM   38  O   UNL     1     -11.968  16.204  68.617  1.00  0.00    -0.254 OA 
HETATM   39  C   UNL     1     -11.082  14.711  66.577  1.00  0.00    -0.329 C  
HETATM   40  C   UNL     1      -8.301  15.322  67.865  1.00  0.00    -0.148 C  
HETATM   41  C   UNL     1     -12.270  14.171  65.770  1.00  0.00    -0.458 C  
HETATM   42  C   UNL     1     -10.754  16.104  65.997  1.00  0.00    -0.245 C  
HETATM   43  O   UNL     1      -7.600  15.796  67.005  1.00  0.00    -0.205 OA 
ENDBRANCH  30  32
ENDBRANCH  29  30
ENDBRANCH  28  29
ENDBRANCH  27  28
ENDBRANCH  25  27
ENDBRANCH   7  25
TORSDOF 9
ENDMDL
MODEL      216
REMARK 921   NORMALIZED FREE ENERGY PREDICTED BY IDOCK:   -4.57 KCAL/MOL
REMARK 922        TOTAL FREE ENERGY PREDICTED BY IDOCK:   -7.48 KCAL/MOL
REMARK 923 INTER-LIGAND FREE ENERGY PREDICTED BY IDOCK:   -6.84 KCAL/MOL
REMARK 924 INTRA-LIGAND FREE ENERGY PREDICTED BY IDOCK:   -0.64 KCAL/MOL
REMARK 927      BINDING AFFINITY PREDICTED BY RF-SCORE:    0.00 PKD
ROOT
HETATM    1  C   UNL     1     -11.483  10.606  66.798  1.00  0.00     0.415 C  
HETATM    2  C   UNL     1     -10.930  11.630  65.785  1.00  0.00    -0.274 C  
HETATM    3  S   UNL     1      -9.171  11.148  65.441  1.00  0.00    -0.179 SA 
HETATM    4  C   UNL     1     -11.785  11.479  64.521  1.00  0.00    -0.089 C  
HETATM    5  C   UNL     1      -8.462  12.332  66.684  1.00  0.00    -0.056 C  
HETATM    6  C   UNL     1      -8.228  11.810  68.130  1.00  0.00    -0.153 C  
HETATM    7  C   UNL     1     -10.833  13.067  66.363  1.00  0.00    -0.278 C  
HETATM    8  C   UNL     1      -9.579  12.511  68.434  1.00  0.00    -0.176 C  
HETATM    9  O   UNL     1     -10.417  12.462  69.306  1.00  0.00     0.015 OA 
HETATM   10  N   UNL     1      -9.623  13.083  67.196  1.00  0.00    -0.223 N  
ENDROOT
BRANCH   6  11
HETATM   11  N   UNL     1      -8.167  10.336  68.314  1.00  0.00    -0.113 N  
HETATM   12  C   UNL     1      -7.622   9.780  69.452  1.00  0.00    -0.104 C  
HETATM   13  O   UNL     1      -7.318  10.460  70.431  1.00  0.00    -0.245 OA 
HETATM   14  H   UNL     1      -8.535   9.724  67.585  1.00  0.00     0.000 HD 
BRANCH  12  15
HETATM   15  C   UNL     1      -7.391   8.253  69.393  1.00  0.00    -0.074 C  
HETATM   16  H2  UNL     1      -5.722   8.421  68.139  1.00  0.00     0.000 HD 
HETATM   17  N   UNL     1      -6.598   7.901  68.185  1.00  0.00    -0.058 NA 
HETATM   18  H1  UNL     1      -6.446   6.894  68.146  1.00  0.00     0.000 HD 
BRANCH  15  19
HETATM   19  C   UNL     1      -8.673   7.444  69.488  1.00  0.00    -0.137 A  
HETATM   20  C   UNL     1      -9.325   6.935  68.352  1.00  0.00    -0.129 A  
HETATM   21  C   UNL     1      -9.203   7.137  70.753  1.00  0.00    -0.157 A  
HETATM   22  C   UNL     1     -10.307   6.290  70.877  1.00  0.00    -0.253 A  
HETATM   23  C   UNL     1     -10.422   6.082  68.479  1.00  0.00    -0.287 A  
HETATM   24  C   UNL     1     -10.904   5.748  69.741  1.00  0.00    -0.419 A  
ENDBRANCH  15  19
ENDBRANCH  12  15
ENDBRANCH   6  11
BRANCH   7  25
HETATM   25  C   UNL     1     -10.645  14.185  65.313  1.00  0.00    -0.373 C  
HETATM   26  O   UNL     1     -10.282  14.018  64.153  1.00  0.00    -0.070 OA 
BRANCH  25  27
HETATM   27  O   UNL     1     -10.920  15.414  65.839  1.00  0.00    -0.325 OA 
BRANCH  27  28
HETATM   28  C   UNL     1     -10.288  16.507  65.166  1.00  0.00    -0.020 C  
BRANCH  28  29
HETATM   29  O   UNL     1      -8.896  16.549  65.464  1.00  0.00    -0.325 OA 
BRANCH  29  30
HETATM   30  C   UNL     1      -8.442  17.690  66.044  1.00  0.00    -0.043 C  
HETATM   31  O   UNL     1      -8.336  18.766  65.470  1.00  0.00    -0.198 OA 
BRANCH  30  32
HETATM   32  C   UNL     1      -8.100  17.467  67.533  1.00  0.00    -0.196 C  
HETATM   33  N   UNL     1      -9.151  16.638  68.146  1.00  0.00    -0.209 N  
HETATM   34  C   UNL     1     -10.367  17.325  68.660  1.00  0.00    -0.357 C  
HETATM   35  S   UNL     1      -9.814  19.043  68.724  1.00  0.00    -0.413 S  
HETATM   36  C   UNL     1     -10.263  16.438  69.903  1.00  0.00    -0.045 C  
HETATM   37  O   UNL     1     -10.395  19.756  67.600  1.00  0.00    -0.410 OA 
HETATM   38  O   UNL     1      -9.950  19.562  70.071  1.00  0.00     0.083 OA 
HETATM   39  C   UNL     1      -8.046  18.774  68.360  1.00  0.00    -0.340 C  
HETATM   40  C   UNL     1      -8.948  15.932  69.293  1.00  0.00    -0.251 C  
HETATM   41  C   UNL     1      -7.444  19.993  67.648  1.00  0.00    -0.327 C  
HETATM   42  C   UNL     1      -7.255  18.597  69.674  1.00  0.00     0.176 C  
HETATM   43  O   UNL     1      -7.965  15.349  69.681  1.00  0.00    -0.222 OA 
ENDBRANCH  30  32
ENDBRANCH  29  30
ENDBRANCH  28  29
ENDBRANCH  27  28
ENDBRANCH  25  27
ENDBRANCH   7  25
TORSDOF 9
ENDMDL
MODEL      217
REMARK 921   NORMALIZED FREE ENERGY PREDICTED BY IDOCK:   -4.57 KCAL/MOL
REMARK 922        TOTAL FREE ENERGY PREDICTED BY IDOCK:   -7.48 KCAL/MOL
REMARK 923 INTER-LIGAND FREE ENERGY PREDICTED BY IDOCK:   -7.15 KCAL/MOL
REMARK 924 INTRA-LIGAND FREE ENERGY PREDICTED BY IDOCK:   -0.33 KCAL/MOL
REMARK 927      BINDING AFFINITY PREDICTED BY RF-SCORE:    0.00 PKD
ROOT
HETATM    1  C   UNL     1     -11.031   6.870  67.436  1.00  0.00    -0.374 C  
HETATM    2  C   UNL     1     -10.283   8.183  67.748  1.00  0.00    -0.228 C  
HETATM    3  S   UNL     1      -8.628   7.705  68.438  1.00  0.00    -0.124 SA 
HETATM    4  C   UNL     1     -10.116   8.904  66.406  1.00  0.00    -0.333 C  
HETATM    5  C   UNL     1      -9.170   7.858  70.208  1.00  0.00    -0.152 C  
HETATM    6  C   UNL     1      -9.729   6.586  70.907  1.00  0.00    -0.176 C  
HETATM    7  C   UNL     1     -10.950   9.011  68.878  1.00  0.00     0.054 C  
HETATM    8  C   UNL     1     -11.114   7.199  70.570  1.00  0.00    -0.271 C  
HETATM    9  O   UNL     1     -12.255   6.803  70.497  1.00  0.00    -0.363 OA 
HETATM   10  N   UNL     1     -10.553   8.365  70.137  1.00  0.00    -0.229 N  
ENDROOT
BRANCH   6  11
HETATM   11  N   UNL     1      -9.394   5.275  70.290  1.00  0.00    -0.152 N  
HETATM   12  C   UNL     1      -8.180   4.665  70.523  1.00  0.00    -0.085 C  
HETATM   13  O   UNL     1      -7.391   5.081  71.370  1.00  0.00    -0.071 OA 
HETATM   14  H   UNL     1     -10.075   4.818  69.683  1.00  0.00     0.000 HD 
BRANCH  12  15
HETATM   15  C   UNL     1      -7.871   3.448  69.621  1.00  0.00    -0.050 C  
HETATM   16  H2  UNL     1      -6.386   2.711  70.901  1.00  0.00     0.000 HD 
HETATM   17  N   UNL     1      -6.507   2.928  69.913  1.00  0.00    -0.028 NA 
HETATM   18  H1  UNL     1      -6.303   2.126  69.318  1.00  0.00     0.000 HD 
BRANCH  15  19
HETATM   19  C   UNL     1      -8.070   3.726  68.142  1.00  0.00    -0.085 A  
HETATM   20  C   UNL     1      -9.207   3.288  67.443  1.00  0.00    -0.233 A  
HETATM   21  C   UNL     1      -7.119   4.497  67.450  1.00  0.00    -0.065 A  
HETATM   22  C   UNL     1      -7.337   4.875  66.123  1.00  0.00    -0.078 A  
HETATM   23  C   UNL     1      -9.427   3.675  66.120  1.00  0.00    -0.171 A  
HETATM   24  C   UNL     1      -8.499   4.480  65.465  1.00  0.00    -0.121 A  
ENDBRANCH  15  19
ENDBRANCH  12  15
ENDBRANCH   6  11
BRANCH   7  25
HETATM   25  C   UNL     1     -10.478  10.479  68.983  1.00  0.00    -0.217 C  
HETATM   26  O   UNL     1     -11.041  11.363  69.620  1.00  0.00    -0.238 OA 
BRANCH  25  27
HETATM   27  O   UNL     1      -9.342  10.690  68.257  1.00  0.00    -0.146 OA 
BRANCH  27  28
HETATM   28  C   UNL     1      -8.485  11.712  68.773  1.00  0.00    -0.025 C  
BRANCH  28  29
HETATM   29  O   UNL     1      -8.633  12.920  68.033  1.00  0.00    -0.169 OA 
BRANCH  29  30
HETATM   30  C   UNL     1      -7.839  13.955  68.411  1.00  0.00    -0.138 C  
HETATM   31  O   UNL     1      -6.616  13.943  68.368  1.00  0.00    -0.085 OA 
BRANCH  30  32
HETATM   32  C   UNL     1      -8.676  15.166  68.877  1.00  0.00    -0.205 C  
HETATM   33  N   UNL     1     -10.091  14.770  68.952  1.00  0.00    -0.234 N  
HETATM   34  C   UNL     1     -10.902  14.851  67.707  1.00  0.00    -0.286 C  
HETATM   35  S   UNL     1      -9.861  15.892  66.662  1.00  0.00    -0.269 S  
HETATM   36  C   UNL     1     -12.014  15.479  68.550  1.00  0.00    -0.179 C  
HETATM   37  O   UNL     1      -9.203  15.047  65.680  1.00  0.00    -0.170 OA 
HETATM   38  O   UNL     1     -10.593  17.069  66.241  1.00  0.00    -0.282 OA 
HETATM   39  C   UNL     1      -8.617  16.371  67.908  1.00  0.00    -0.175 C  
HETATM   40  C   UNL     1     -11.001  15.448  69.704  1.00  0.00    -0.284 C  
HETATM   41  C   UNL     1      -7.257  16.636  67.248  1.00  0.00    -0.199 C  
HETATM   42  C   UNL     1      -9.035  17.689  68.595  1.00  0.00    -0.261 C  
HETATM   43  O   UNL     1     -10.874  15.984  70.778  1.00  0.00    -0.252 OA 
ENDBRANCH  30  32
ENDBRANCH  29  30
ENDBRANCH  28  29
ENDBRANCH  27  28
ENDBRANCH  25  27
ENDBRANCH   7  25
TORSDOF 9
ENDMDL
MODEL      218
REMARK 921   NORMALIZED FREE ENERGY PREDICTED BY IDOCK:   -4.55 KCAL/MOL
REMARK 922        TOTAL FREE ENERGY PREDICTED BY IDOCK:   -7.45 KCAL/MOL
REMARK 923 INTER-LIGAND FREE ENERGY PREDICTED BY IDOCK:   -7.00 KCAL/MOL
REMARK 924 INTRA-LIGAND FREE ENERGY PREDICTED BY IDOCK:   -0.46 KCAL/MOL
REMARK 927      BINDING AFFINITY PREDICTED BY RF-SCORE:    0.00 PKD
ROOT
HETATM    1  C   UNL     1      -8.405   7.871  69.163  1.00  0.00    -0.133 C  
HETATM    2  C   UNL     1      -8.854   8.414  67.790  1.00  0.00    -0.137 C  
HETATM    3  S   UNL     1      -9.534   6.973  66.840  1.00  0.00    -0.167 SA 
HETATM    4  C   UNL     1      -9.960   9.435  68.080  1.00  0.00    -0.202 C  
HETATM    5  C   UNL     1      -7.944   6.644  65.938  1.00  0.00    -0.112 C  
HETATM    6  C   UNL     1      -6.944   5.638  66.575  1.00  0.00    -0.064 C  
HETATM    7  C   UNL     1      -7.674   8.929  66.924  1.00  0.00    -0.098 C  
HETATM    8  C   UNL     1      -6.229   6.915  67.092  1.00  0.00    -0.040 C  
HETATM    9  O   UNL     1      -5.418   7.181  67.950  1.00  0.00    -0.019 OA 
HETATM   10  N   UNL     1      -7.040   7.731  66.358  1.00  0.00    -0.069 N  
ENDROOT
BRANCH   6  11
HETATM   11  N   UNL     1      -7.487   4.700  67.593  1.00  0.00    -0.077 N  
HETATM   12  C   UNL     1      -7.609   3.352  67.330  1.00  0.00    -0.078 C  
HETATM   13  O   UNL     1      -7.129   2.837  66.321  1.00  0.00    -0.055 OA 
HETATM   14  H   UNL     1      -7.773   5.059  68.504  1.00  0.00     0.000 HD 
BRANCH  12  15
HETATM   15  C   UNL     1      -8.420   2.549  68.371  1.00  0.00    -0.069 C  
HETATM   16  H2  UNL     1      -9.670   1.689  66.928  1.00  0.00     0.000 HD 
HETATM   17  N   UNL     1      -9.751   2.185  67.814  1.00  0.00    -0.361 NA 
HETATM   18  H1  UNL     1     -10.286   1.655  68.501  1.00  0.00     0.000 HD 
BRANCH  15  19
HETATM   19  C   UNL     1      -8.537   3.245  69.715  1.00  0.00    -0.111 A  
HETATM   20  C   UNL     1      -7.628   3.012  70.762  1.00  0.00    -0.040 A  
HETATM   21  C   UNL     1      -9.548   4.201  69.912  1.00  0.00    -0.282 A  
HETATM   22  C   UNL     1      -9.604   4.948  71.091  1.00  0.00    -0.232 A  
HETATM   23  C   UNL     1      -7.680   3.766  71.935  1.00  0.00    -0.058 A  
HETATM   24  C   UNL     1      -8.658   4.744  72.094  1.00  0.00    -0.123 A  
ENDBRANCH  15  19
ENDBRANCH  12  15
ENDBRANCH   6  11
BRANCH   7  25
HETATM   25  C   UNL     1      -8.080   9.808  65.719  1.00  0.00    -0.119 C  
HETATM   26  O   UNL     1      -7.449  10.773  65.298  1.00  0.00    -0.050 OA 
BRANCH  25  27
HETATM   27  O   UNL     1      -9.256   9.389  65.170  1.00  0.00    -0.229 OA 
BRANCH  27  28
HETATM   28  C   UNL     1      -9.860  10.321  64.268  1.00  0.00    -0.288 C  
BRANCH  28  29
HETATM   29  O   UNL     1     -10.731  11.209  64.962  1.00  0.00    -0.289 OA 
BRANCH  29  30
HETATM   30  C   UNL     1     -10.825  12.468  64.463  1.00  0.00    -0.328 C  
HETATM   31  O   UNL     1     -11.475  12.775  63.473  1.00  0.00    -0.463 OA 
BRANCH  30  32
HETATM   32  C   UNL     1     -10.028  13.475  65.321  1.00  0.00    -0.183 C  
HETATM   33  N   UNL     1      -9.847  12.915  66.670  1.00  0.00    -0.244 N  
HETATM   34  C   UNL     1     -10.935  13.127  67.662  1.00  0.00    -0.262 C  
HETATM   35  S   UNL     1     -11.888  14.447  66.882  1.00  0.00    -0.385 S  
HETATM   36  C   UNL     1      -9.848  13.465  68.685  1.00  0.00    -0.116 C  
HETATM   37  O   UNL     1     -13.091  13.870  66.308  1.00  0.00    -0.131 OA 
HETATM   38  O   UNL     1     -11.974  15.592  67.767  1.00  0.00    -0.101 OA 
HETATM   39  C   UNL     1     -10.746  14.832  65.510  1.00  0.00    -0.357 C  
HETATM   40  C   UNL     1      -8.865  13.343  67.512  1.00  0.00    -0.210 C  
HETATM   41  C   UNL     1     -11.516  15.361  64.292  1.00  0.00    -0.178 C  
HETATM   42  C   UNL     1      -9.770  15.951  65.932  1.00  0.00    -0.386 C  
HETATM   43  O   UNL     1      -7.734  13.689  67.271  1.00  0.00    -0.154 OA 
ENDBRANCH  30  32
ENDBRANCH  29  30
ENDBRANCH  28  29
ENDBRANCH  27  28
ENDBRANCH  25  27
ENDBRANCH   7  25
TORSDOF 9
ENDMDL
MODEL      219
REMARK 921   NORMALIZED FREE ENERGY PREDICTED BY IDOCK:   -4.54 KCAL/MOL
REMARK 922        TOTAL FREE ENERGY PREDICTED BY IDOCK:   -7.43 KCAL/MOL
REMARK 923 INTER-LIGAND FREE ENERGY PREDICTED BY IDOCK:   -8.49 KCAL/MOL
REMARK 924 INTRA-LIGAND FREE ENERGY PREDICTED BY IDOCK:    1.05 KCAL/MOL
REMARK 927      BINDING AFFINITY PREDICTED BY RF-SCORE:    0.00 PKD
ROOT
HETATM    1  C   UNL     1      -9.787  13.618  68.268  1.00  0.00    -0.232 C  
HETATM    2  C   UNL     1     -10.220  13.144  66.864  1.00  0.00    -0.245 C  
HETATM    3  S   UNL     1     -11.978  12.569  67.010  1.00  0.00    -0.097 SA 
HETATM    4  C   UNL     1     -10.132  14.377  65.956  1.00  0.00    -0.338 C  
HETATM    5  C   UNL     1     -11.518  10.783  67.224  1.00  0.00     0.052 C  
HETATM    6  C   UNL     1     -11.318  10.254  68.673  1.00  0.00    -0.166 C  
HETATM    7  C   UNL     1      -9.441  11.894  66.377  1.00  0.00    -0.228 C  
HETATM    8  C   UNL     1      -9.810  10.468  68.377  1.00  0.00    -0.161 C  
HETATM    9  O   UNL     1      -8.793  10.567  69.025  1.00  0.00    -0.159 OA 
HETATM   10  N   UNL     1     -10.052  10.748  67.064  1.00  0.00    -0.200 N  
ENDROOT
BRANCH   6  11
HETATM   11  N   UNL     1     -11.919  11.056  69.772  1.00  0.00    -0.328 N  
HETATM   12  C   UNL     1     -11.926  10.595  71.071  1.00  0.00    -0.339 C  
HETATM   13  O   UNL     1     -11.300   9.592  71.413  1.00  0.00    -0.361 OA 
HETATM   14  H   UNL     1     -12.332  11.964  69.562  1.00  0.00     0.000 HD 
BRANCH  12  15
HETATM   15  C   UNL     1     -12.804  11.404  72.053  1.00  0.00    -0.159 C  
HETATM   16  H2  UNL     1     -13.925   9.734  72.634  1.00  0.00     0.000 HD 
HETATM   17  N   UNL     1     -14.082  10.687  72.308  1.00  0.00     0.009 NA 
HETATM   18  H1  UNL     1     -14.661  11.222  72.955  1.00  0.00     0.000 HD 
BRANCH  15  19
HETATM   19  C   UNL     1     -13.034  12.840  71.614  1.00  0.00    -0.402 A  
HETATM   20  C   UNL     1     -13.746  13.760  72.402  1.00  0.00    -0.692 A  
HETATM   21  C   UNL     1     -12.471  13.292  70.408  1.00  0.00    -0.295 A  
HETATM   22  C   UNL     1     -12.559  14.637  70.040  1.00  0.00    -0.276 A  
HETATM   23  C   UNL     1     -13.825  15.104  72.037  1.00  0.00    -0.608 A  
HETATM   24  C   UNL     1     -13.219  15.546  70.864  1.00  0.00    -0.474 A  
ENDBRANCH  15  19
ENDBRANCH  12  15
ENDBRANCH   6  11
BRANCH   7  25
HETATM   25  C   UNL     1      -9.557  11.597  64.864  1.00  0.00    -0.150 C  
HETATM   26  O   UNL     1      -9.657  12.442  63.979  1.00  0.00    -0.057 OA 
BRANCH  25  27
HETATM   27  O   UNL     1      -9.548  10.256  64.617  1.00  0.00    -0.264 OA 
BRANCH  27  28
HETATM   28  C   UNL     1      -8.252   9.700  64.376  1.00  0.00    -0.157 C  
BRANCH  28  29
HETATM   29  O   UNL     1      -8.292   8.278  64.426  1.00  0.00    -0.151 OA 
BRANCH  29  30
HETATM   30  C   UNL     1      -7.593   7.694  65.434  1.00  0.00    -0.094 C  
HETATM   31  O   UNL     1      -6.576   8.157  65.933  1.00  0.00    -0.045 OA 
BRANCH  30  32
HETATM   32  C   UNL     1      -8.262   6.381  65.896  1.00  0.00    -0.130 C  
HETATM   33  N   UNL     1      -9.572   6.693  66.490  1.00  0.00    -0.162 N  
HETATM   34  C   UNL     1      -9.611   7.068  67.929  1.00  0.00    -0.123 C  
HETATM   35  S   UNL     1      -7.987   6.516  68.493  1.00  0.00    -0.111 S  
HETATM   36  C   UNL     1     -10.826   6.149  68.069  1.00  0.00    -0.398 C  
HETATM   37  O   UNL     1      -7.130   7.680  68.643  1.00  0.00    -0.076 OA 
HETATM   38  O   UNL     1      -8.131   5.568  69.580  1.00  0.00    -0.098 OA 
HETATM   39  C   UNL     1      -7.463   5.628  66.986  1.00  0.00    -0.084 C  
HETATM   40  C   UNL     1     -10.561   5.764  66.606  1.00  0.00    -0.280 C  
HETATM   41  C   UNL     1      -5.935   5.657  66.840  1.00  0.00    -0.018 C  
HETATM   42  C   UNL     1      -7.867   4.141  67.081  1.00  0.00    -0.096 C  
HETATM   43  O   UNL     1     -10.874   4.867  65.861  1.00  0.00    -0.289 OA 
ENDBRANCH  30  32
ENDBRANCH  29  30
ENDBRANCH  28  29
ENDBRANCH  27  28
ENDBRANCH  25  27
ENDBRANCH   7  25
TORSDOF 9
ENDMDL
MODEL      220
REMARK 921   NORMALIZED FREE ENERGY PREDICTED BY IDOCK:   -4.53 KCAL/MOL
REMARK 922        TOTAL FREE ENERGY PREDICTED BY IDOCK:   -7.42 KCAL/MOL
REMARK 923 INTER-LIGAND FREE ENERGY PREDICTED BY IDOCK:   -7.48 KCAL/MOL
REMARK 924 INTRA-LIGAND FREE ENERGY PREDICTED BY IDOCK:    0.06 KCAL/MOL
REMARK 927      BINDING AFFINITY PREDICTED BY RF-SCORE:    0.00 PKD
ROOT
HETATM    1  C   UNL     1      -8.838  11.385  65.164  1.00  0.00     0.104 C  
HETATM    2  C   UNL     1      -9.217  10.515  66.380  1.00  0.00    -0.166 C  
HETATM    3  S   UNL     1     -10.057  11.634  67.599  1.00  0.00    -0.191 SA 
HETATM    4  C   UNL     1     -10.199   9.460  65.856  1.00  0.00    -0.123 C  
HETATM    5  C   UNL     1      -8.513  11.941  68.585  1.00  0.00    -0.045 C  
HETATM    6  C   UNL     1      -7.638  13.166  68.198  1.00  0.00    -0.141 C  
HETATM    7  C   UNL     1      -7.984   9.964  67.144  1.00  0.00    -0.109 C  
HETATM    8  C   UNL     1      -6.782  12.119  67.437  1.00  0.00    -0.143 C  
HETATM    9  O   UNL     1      -5.948  12.135  66.561  1.00  0.00    -0.171 OA 
HETATM   10  N   UNL     1      -7.490  11.078  67.965  1.00  0.00    -0.088 N  
ENDROOT
BRANCH   6  11
HETATM   11  N   UNL     1      -8.288  14.232  67.390  1.00  0.00    -0.187 N  
HETATM   12  C   UNL     1      -9.146  15.144  67.968  1.00  0.00    -0.180 C  
HETATM   13  O   UNL     1      -9.285  15.229  69.187  1.00  0.00    -0.208 OA 
HETATM   14  H   UNL     1      -8.097  14.291  66.390  1.00  0.00     0.000 HD 
BRANCH  12  15
HETATM   15  C   UNL     1      -9.941  16.022  66.975  1.00  0.00    -0.257 C  
HETATM   16  H2  UNL     1     -10.022  14.525  65.513  1.00  0.00     0.000 HD 
HETATM   17  N   UNL     1      -9.771  15.510  65.588  1.00  0.00    -0.337 NA 
HETATM   18  H1  UNL     1     -10.295  16.089  64.933  1.00  0.00     0.000 HD 
BRANCH  15  19
HETATM   19  C   UNL     1      -9.614  17.501  67.080  1.00  0.00    -0.268 A  
HETATM   20  C   UNL     1      -8.313  17.965  67.336  1.00  0.00    -0.227 A  
HETATM   21  C   UNL     1     -10.627  18.449  66.858  1.00  0.00    -0.381 A  
HETATM   22  C   UNL     1     -10.332  19.814  66.822  1.00  0.00    -0.604 A  
HETATM   23  C   UNL     1      -8.018  19.328  67.292  1.00  0.00    -0.285 A  
HETATM   24  C   UNL     1      -9.024  20.252  67.020  1.00  0.00    -0.451 A  
ENDBRANCH  15  19
ENDBRANCH  12  15
ENDBRANCH   6  11
BRANCH   7  25
HETATM   25  C   UNL     1      -8.282   8.809  68.126  1.00  0.00    -0.114 C  
HETATM   26  O   UNL     1      -8.453   8.929  69.335  1.00  0.00    -0.119 OA 
BRANCH  25  27
HETATM   27  O   UNL     1      -8.321   7.606  67.483  1.00  0.00    -0.119 OA 
BRANCH  27  28
HETATM   28  C   UNL     1      -9.059   6.587  68.165  1.00  0.00    -0.114 C  
BRANCH  28  29
HETATM   29  O   UNL     1      -8.359   6.141  69.322  1.00  0.00    -0.114 OA 
BRANCH  29  30
HETATM   30  C   UNL     1      -8.827   5.008  69.906  1.00  0.00    -0.102 C  
HETATM   31  O   UNL     1      -8.363   3.891  69.723  1.00  0.00    -0.056 OA 
BRANCH  30  32
HETATM   32  C   UNL     1     -10.005   5.310  70.857  1.00  0.00    -0.208 C  
HETATM   33  N   UNL     1      -9.932   6.719  71.278  1.00  0.00    -0.177 N  
HETATM   34  C   UNL     1      -9.071   7.052  72.445  1.00  0.00    -0.132 C  
HETATM   35  S   UNL     1      -8.811   5.423  73.181  1.00  0.00    -0.118 S  
HETATM   36  C   UNL     1     -10.207   7.947  72.945  1.00  0.00    -0.397 C  
HETATM   37  O   UNL     1      -7.469   4.977  72.849  1.00  0.00    -0.088 OA 
HETATM   38  O   UNL     1      -9.265   5.418  74.557  1.00  0.00    -0.119 OA 
HETATM   39  C   UNL     1      -9.984   4.471  72.157  1.00  0.00    -0.183 C  
HETATM   40  C   UNL     1     -11.012   7.395  71.759  1.00  0.00    -0.234 C  
HETATM   41  C   UNL     1      -9.522   3.015  72.009  1.00  0.00    -0.204 C  
HETATM   42  C   UNL     1     -11.368   4.425  72.841  1.00  0.00    -0.113 C  
HETATM   43  O   UNL     1     -12.173   7.330  71.438  1.00  0.00    -0.312 OA 
ENDBRANCH  30  32
ENDBRANCH  29  30
ENDBRANCH  28  29
ENDBRANCH  27  28
ENDBRANCH  25  27
ENDBRANCH   7  25
TORSDOF 9
ENDMDL
MODEL      221
REMARK 921   NORMALIZED FREE ENERGY PREDICTED BY IDOCK:   -4.49 KCAL/MOL
REMARK 922        TOTAL FREE ENERGY PREDICTED BY IDOCK:   -7.36 KCAL/MOL
REMARK 923 INTER-LIGAND FREE ENERGY PREDICTED BY IDOCK:   -6.60 KCAL/MOL
REMARK 924 INTRA-LIGAND FREE ENERGY PREDICTED BY IDOCK:   -0.75 KCAL/MOL
REMARK 927      BINDING AFFINITY PREDICTED BY RF-SCORE:    0.00 PKD
ROOT
HETATM    1  C   UNL     1      -9.856   4.968  68.549  1.00  0.00    -0.216 C  
HETATM    2  C   UNL     1      -9.102   4.025  69.509  1.00  0.00    -0.126 C  
HETATM    3  S   UNL     1      -9.630   4.476  71.230  1.00  0.00    -0.183 SA 
HETATM    4  C   UNL     1      -9.566   2.606  69.160  1.00  0.00    -0.043 C  
HETATM    5  C   UNL     1      -8.170   5.584  71.532  1.00  0.00    -0.119 C  
HETATM    6  C   UNL     1      -8.322   7.092  71.186  1.00  0.00    -0.113 C  
HETATM    7  C   UNL     1      -7.566   4.250  69.502  1.00  0.00    -0.054 C  
HETATM    8  C   UNL     1      -7.586   6.706  69.876  1.00  0.00    -0.100 C  
HETATM    9  O   UNL     1      -7.433   7.192  68.778  1.00  0.00    -0.097 OA 
HETATM   10  N   UNL     1      -7.333   5.443  70.327  1.00  0.00    -0.066 N  
ENDROOT
BRANCH   6  11
HETATM   11  N   UNL     1      -9.707   7.620  71.061  1.00  0.00    -0.164 N  
HETATM   12  C   UNL     1     -10.448   7.952  72.175  1.00  0.00    -0.249 C  
HETATM   13  O   UNL     1      -9.955   7.989  73.301  1.00  0.00    -0.299 OA 
HETATM   14  H   UNL     1     -10.116   7.740  70.134  1.00  0.00     0.000 HD 
BRANCH  12  15
HETATM   15  C   UNL     1     -11.943   8.238  71.909  1.00  0.00    -0.330 C  
HETATM   16  H2  UNL     1     -12.334   6.290  71.249  1.00  0.00     0.000 HD 
HETATM   17  N   UNL     1     -12.490   7.249  70.942  1.00  0.00    -0.555 NA 
HETATM   18  H1  UNL     1     -13.477   7.438  70.767  1.00  0.00     0.000 HD 
BRANCH  15  19
HETATM   19  C   UNL     1     -12.218   9.668  71.478  1.00  0.00    -0.483 A  
HETATM   20  C   UNL     1     -13.104  10.506  72.177  1.00  0.00    -0.413 A  
HETATM   21  C   UNL     1     -11.526  10.202  70.377  1.00  0.00    -0.400 A  
HETATM   22  C   UNL     1     -11.663  11.549  70.034  1.00  0.00    -0.414 A  
HETATM   23  C   UNL     1     -13.232  11.853  71.839  1.00  0.00    -0.467 A  
HETATM   24  C   UNL     1     -12.501  12.378  70.777  1.00  0.00    -0.356 A  
ENDBRANCH  15  19
ENDBRANCH  12  15
ENDBRANCH   6  11
BRANCH   7  25
HETATM   25  C   UNL     1      -6.734   3.117  70.144  1.00  0.00    -0.033 C  
HETATM   26  O   UNL     1      -6.403   3.058  71.324  1.00  0.00    -0.018 OA 
BRANCH  25  27
HETATM   27  O   UNL     1      -6.388   2.170  69.225  1.00  0.00    -0.028 OA 
BRANCH  27  28
HETATM   28  C   UNL     1      -6.035   2.687  67.938  1.00  0.00    -0.024 C  
BRANCH  28  29
HETATM   29  O   UNL     1      -6.872   2.139  66.924  1.00  0.00    -0.038 OA 
BRANCH  29  30
HETATM   30  C   UNL     1      -6.794   2.725  65.702  1.00  0.00    -0.048 C  
HETATM   31  O   UNL     1      -5.972   2.435  64.843  1.00  0.00    -0.017 OA 
BRANCH  30  32
HETATM   32  C   UNL     1      -7.896   3.792  65.517  1.00  0.00    -0.093 C  
HETATM   33  N   UNL     1      -8.767   3.391  64.400  1.00  0.00    -0.093 N  
HETATM   34  C   UNL     1      -8.349   3.769  63.023  1.00  0.00    -0.085 C  
HETATM   35  S   UNL     1      -7.098   5.028  63.355  1.00  0.00    -0.048 S  
HETATM   36  C   UNL     1      -9.801   4.179  62.765  1.00  0.00    -0.133 C  
HETATM   37  O   UNL     1      -5.786   4.441  63.143  1.00  0.00    -0.015 OA 
HETATM   38  O   UNL     1      -7.457   6.273  62.707  1.00  0.00    -0.055 OA 
HETATM   39  C   UNL     1      -7.349   5.193  65.156  1.00  0.00    -0.068 C  
HETATM   40  C   UNL     1     -10.032   3.872  64.252  1.00  0.00    -0.193 C  
HETATM   41  C   UNL     1      -6.045   5.605  65.853  1.00  0.00    -0.029 C  
HETATM   42  C   UNL     1      -8.375   6.310  65.447  1.00  0.00    -0.148 C  
HETATM   43  O   UNL     1     -10.864   4.135  65.085  1.00  0.00    -0.193 OA 
ENDBRANCH  30  32
ENDBRANCH  29  30
ENDBRANCH  28  29
ENDBRANCH  27  28
ENDBRANCH  25  27
ENDBRANCH   7  25
TORSDOF 9
ENDMDL
MODEL      222
REMARK 921   NORMALIZED FREE ENERGY PREDICTED BY IDOCK:   -4.48 KCAL/MOL
REMARK 922        TOTAL FREE ENERGY PREDICTED BY IDOCK:   -7.34 KCAL/MOL
REMARK 923 INTER-LIGAND FREE ENERGY PREDICTED BY IDOCK:   -7.18 KCAL/MOL
REMARK 924 INTRA-LIGAND FREE ENERGY PREDICTED BY IDOCK:   -0.16 KCAL/MOL
REMARK 927      BINDING AFFINITY PREDICTED BY RF-SCORE:    0.00 PKD
ROOT
HETATM    1  C   UNL     1     -11.582  11.171  67.319  1.00  0.00    -0.098 C  
HETATM    2  C   UNL     1     -11.218  12.158  66.190  1.00  0.00    -0.338 C  
HETATM    3  S   UNL     1     -10.164  11.225  64.981  1.00  0.00    -0.302 SA 
HETATM    4  C   UNL     1     -12.546  12.566  65.540  1.00  0.00    -0.045 C  
HETATM    5  C   UNL     1      -8.563  11.821  65.711  1.00  0.00     0.219 C  
HETATM    6  C   UNL     1      -7.905  10.952  66.820  1.00  0.00    -0.141 C  
HETATM    7  C   UNL     1     -10.317  13.327  66.670  1.00  0.00    -0.274 C  
HETATM    8  C   UNL     1      -8.568  11.965  67.791  1.00  0.00    -0.154 C  
HETATM    9  O   UNL     1      -8.849  11.998  68.967  1.00  0.00     0.132 OA 
HETATM   10  N   UNL     1      -8.959  12.774  66.764  1.00  0.00    -0.212 N  
ENDROOT
BRANCH   6  11
HETATM   11  N   UNL     1      -8.339   9.532  66.912  1.00  0.00    -0.116 N  
HETATM   12  C   UNL     1      -7.685   8.538  66.216  1.00  0.00    -0.094 C  
HETATM   13  O   UNL     1      -6.624   8.742  65.626  1.00  0.00    -0.062 OA 
HETATM   14  H   UNL     1      -9.135   9.289  67.501  1.00  0.00     0.000 HD 
BRANCH  12  15
HETATM   15  C   UNL     1      -8.397   7.167  66.202  1.00  0.00    -0.133 C  
HETATM   16  H2  UNL     1     -10.134   7.930  65.316  1.00  0.00     0.000 HD 
HETATM   17  N   UNL     1      -9.870   7.355  66.115  1.00  0.00    -0.435 NA 
HETATM   18  H1  UNL     1     -10.339   6.450  66.106  1.00  0.00     0.000 HD 
BRANCH  15  19
HETATM   19  C   UNL     1      -8.005   6.270  67.363  1.00  0.00    -0.109 A  
HETATM   20  C   UNL     1      -7.514   4.967  67.172  1.00  0.00    -0.087 A  
HETATM   21  C   UNL     1      -8.076   6.769  68.675  1.00  0.00    -0.120 A  
HETATM   22  C   UNL     1      -7.604   6.014  69.752  1.00  0.00    -0.081 A  
HETATM   23  C   UNL     1      -7.035   4.219  68.248  1.00  0.00    -0.052 A  
HETATM   24  C   UNL     1      -7.066   4.747  69.535  1.00  0.00    -0.054 A  
ENDBRANCH  15  19
ENDBRANCH  12  15
ENDBRANCH   6  11
BRANCH   7  25
HETATM   25  C   UNL     1     -10.225  14.526  65.699  1.00  0.00    -0.357 C  
HETATM   26  O   UNL     1      -9.709  14.501  64.585  1.00  0.00     0.028 OA 
BRANCH  25  27
HETATM   27  O   UNL     1     -10.784  15.647  66.237  1.00  0.00    -0.308 OA 
BRANCH  27  28
HETATM   28  C   UNL     1     -10.424  16.868  65.583  1.00  0.00    -0.238 C  
BRANCH  28  29
HETATM   29  O   UNL     1      -9.321  17.488  66.237  1.00  0.00    -0.358 OA 
BRANCH  29  30
HETATM   30  C   UNL     1      -9.518  18.760  66.667  1.00  0.00    -0.330 C  
HETATM   31  O   UNL     1     -10.591  19.204  67.055  1.00  0.00    -0.413 OA 
BRANCH  30  32
HETATM   32  C   UNL     1      -8.207  19.576  66.633  1.00  0.00    -0.311 C  
HETATM   33  N   UNL     1      -7.346  19.053  65.560  1.00  0.00    -0.108 N  
HETATM   34  C   UNL     1      -6.467  17.895  65.877  1.00  0.00    -0.259 C  
HETATM   35  S   UNL     1      -6.497  17.898  67.682  1.00  0.00    -0.181 S  
HETATM   36  C   UNL     1      -5.348  18.622  65.127  1.00  0.00    -0.229 C  
HETATM   37  O   UNL     1      -7.369  16.825  68.130  1.00  0.00    -0.163 OA 
HETATM   38  O   UNL     1      -5.151  18.015  68.205  1.00  0.00    -0.152 OA 
HETATM   39  C   UNL     1      -7.380  19.475  67.937  1.00  0.00    -0.275 C  
HETATM   40  C   UNL     1      -6.341  19.787  65.007  1.00  0.00    -0.279 C  
HETATM   41  C   UNL     1      -8.186  19.445  69.243  1.00  0.00    -0.069 C  
HETATM   42  C   UNL     1      -6.368  20.633  68.073  1.00  0.00    -0.357 C  
HETATM   43  O   UNL     1      -6.286  20.969  64.767  1.00  0.00    -0.258 OA 
ENDBRANCH  30  32
ENDBRANCH  29  30
ENDBRANCH  28  29
ENDBRANCH  27  28
ENDBRANCH  25  27
ENDBRANCH   7  25
TORSDOF 9
ENDMDL
MODEL      223
REMARK 921   NORMALIZED FREE ENERGY PREDICTED BY IDOCK:   -4.47 KCAL/MOL
REMARK 922        TOTAL FREE ENERGY PREDICTED BY IDOCK:   -7.33 KCAL/MOL
REMARK 923 INTER-LIGAND FREE ENERGY PREDICTED BY IDOCK:   -7.23 KCAL/MOL
REMARK 924 INTRA-LIGAND FREE ENERGY PREDICTED BY IDOCK:   -0.10 KCAL/MOL
REMARK 927      BINDING AFFINITY PREDICTED BY RF-SCORE:    0.00 PKD
ROOT
HETATM    1  C   UNL     1     -11.174  10.166  66.837  1.00  0.00     0.190 C  
HETATM    2  C   UNL     1     -10.763  11.652  66.809  1.00  0.00    -0.260 C  
HETATM    3  S   UNL     1      -9.038  11.719  66.128  1.00  0.00    -0.143 SA 
HETATM    4  C   UNL     1     -11.743  12.345  65.855  1.00  0.00    -0.476 C  
HETATM    5  C   UNL     1      -8.234  11.761  67.801  1.00  0.00    -0.144 C  
HETATM    6  C   UNL     1      -7.832  10.404  68.446  1.00  0.00    -0.104 C  
HETATM    7  C   UNL     1     -10.646  12.279  68.224  1.00  0.00    -0.227 C  
HETATM    8  C   UNL     1      -9.162  10.560  69.230  1.00  0.00    -0.148 C  
HETATM    9  O   UNL     1      -9.900   9.837  69.860  1.00  0.00    -0.216 OA 
HETATM   10  N   UNL     1      -9.355  11.825  68.758  1.00  0.00    -0.078 N  
ENDROOT
BRANCH   6  11
HETATM   11  N   UNL     1      -7.709   9.234  67.536  1.00  0.00    -0.092 N  
HETATM   12  C   UNL     1      -6.600   8.415  67.571  1.00  0.00    -0.058 C  
HETATM   13  O   UNL     1      -5.747   8.507  68.453  1.00  0.00    -0.037 OA 
HETATM   14  H   UNL     1      -8.458   9.033  66.874  1.00  0.00     0.000 HD 
BRANCH  12  15
HETATM   15  C   UNL     1      -6.490   7.406  66.406  1.00  0.00    -0.048 C  
HETATM   16  H2  UNL     1      -4.962   6.309  67.326  1.00  0.00     0.000 HD 
HETATM   17  N   UNL     1      -5.158   6.744  66.425  1.00  0.00    -0.016 NA 
HETATM   18  H1  UNL     1      -5.086   6.078  65.656  1.00  0.00     0.000 HD 
BRANCH  15  19
HETATM   19  C   UNL     1      -6.806   8.012  65.049  1.00  0.00    -0.055 A  
HETATM   20  C   UNL     1      -8.066   7.879  64.443  1.00  0.00    -0.103 A  
HETATM   21  C   UNL     1      -5.830   8.782  64.394  1.00  0.00    -0.065 A  
HETATM   22  C   UNL     1      -6.131   9.456  63.207  1.00  0.00    -0.091 A  
HETATM   23  C   UNL     1      -8.368   8.560  63.263  1.00  0.00    -0.107 A  
HETATM   24  C   UNL     1      -7.406   9.359  62.653  1.00  0.00    -0.099 A  
ENDBRANCH  15  19
ENDBRANCH  12  15
ENDBRANCH   6  11
BRANCH   7  25
HETATM   25  C   UNL     1     -10.604  13.823  68.256  1.00  0.00    -0.255 C  
HETATM   26  O   UNL     1     -10.872  14.522  69.229  1.00  0.00    -0.252 OA 
BRANCH  25  27
HETATM   27  O   UNL     1     -10.238  14.337  67.047  1.00  0.00    -0.256 OA 
BRANCH  27  28
HETATM   28  C   UNL     1     -10.459  15.744  66.903  1.00  0.00    -0.315 C  
BRANCH  28  29
HETATM   29  O   UNL     1      -9.340  16.374  66.288  1.00  0.00    -0.272 OA 
BRANCH  29  30
HETATM   30  C   UNL     1      -9.492  17.684  65.966  1.00  0.00    -0.066 C  
HETATM   31  O   UNL     1     -10.560  18.210  65.682  1.00  0.00    -0.611 OA 
BRANCH  30  32
HETATM   32  C   UNL     1      -8.147  18.440  66.032  1.00  0.00    -0.084 C  
HETATM   33  N   UNL     1      -7.072  17.480  66.331  1.00  0.00    -0.257 N  
HETATM   34  C   UNL     1      -6.811  17.151  67.759  1.00  0.00    -0.152 C  
HETATM   35  S   UNL     1      -7.679  18.490  68.605  1.00  0.00    -0.289 S  
HETATM   36  C   UNL     1      -5.318  17.280  67.447  1.00  0.00    -0.153 C  
HETATM   37  O   UNL     1      -8.921  17.965  69.145  1.00  0.00    -0.074 OA 
HETATM   38  O   UNL     1      -6.761  19.221  69.456  1.00  0.00    -0.308 OA 
HETATM   39  C   UNL     1      -8.091  19.510  67.148  1.00  0.00    -0.271 C  
HETATM   40  C   UNL     1      -5.765  17.737  66.051  1.00  0.00    -0.206 C  
HETATM   41  C   UNL     1      -9.385  20.302  67.386  1.00  0.00    -0.531 C  
HETATM   42  C   UNL     1      -6.979  20.552  66.900  1.00  0.00    -0.342 C  
HETATM   43  O   UNL     1      -5.272  18.323  65.118  1.00  0.00    -0.160 OA 
ENDBRANCH  30  32
ENDBRANCH  29  30
ENDBRANCH  28  29
ENDBRANCH  27  28
ENDBRANCH  25  27
ENDBRANCH   7  25
TORSDOF 9
ENDMDL
MODEL      224
REMARK 921   NORMALIZED FREE ENERGY PREDICTED BY IDOCK:   -4.47 KCAL/MOL
REMARK 922        TOTAL FREE ENERGY PREDICTED BY IDOCK:   -7.33 KCAL/MOL
REMARK 923 INTER-LIGAND FREE ENERGY PREDICTED BY IDOCK:   -7.37 KCAL/MOL
REMARK 924 INTRA-LIGAND FREE ENERGY PREDICTED BY IDOCK:    0.05 KCAL/MOL
REMARK 927      BINDING AFFINITY PREDICTED BY RF-SCORE:    0.00 PKD
ROOT
HETATM    1  C   UNL     1     -11.369  13.933  64.957  1.00  0.00    -0.336 C  
HETATM    2  C   UNL     1     -11.195  12.402  65.032  1.00  0.00    -0.312 C  
HETATM    3  S   UNL     1     -11.723  11.885  66.734  1.00  0.00    -0.081 SA 
HETATM    4  C   UNL     1     -12.140  11.816  63.976  1.00  0.00    -0.361 C  
HETATM    5  C   UNL     1      -9.996  11.888  67.417  1.00  0.00    -0.190 C  
HETATM    6  C   UNL     1      -9.479  13.200  68.073  1.00  0.00    -0.220 C  
HETATM    7  C   UNL     1      -9.713  11.952  64.931  1.00  0.00    -0.137 C  
HETATM    8  C   UNL     1      -8.792  13.432  66.701  1.00  0.00    -0.060 C  
HETATM    9  O   UNL     1      -8.310  14.369  66.107  1.00  0.00     0.541 OA 
HETATM   10  N   UNL     1      -9.132  12.186  66.260  1.00  0.00    -0.182 N  
ENDROOT
BRANCH   6  11
HETATM   11  N   UNL     1     -10.503  14.191  68.500  1.00  0.00    -0.246 N  
HETATM   12  C   UNL     1     -10.246  15.097  69.506  1.00  0.00    -0.233 C  
HETATM   13  O   UNL     1      -9.120  15.244  69.981  1.00  0.00    -0.060 OA 
HETATM   14  H   UNL     1     -11.413  14.201  68.039  1.00  0.00     0.000 HD 
BRANCH  12  15
HETATM   15  C   UNL     1     -11.475  15.883  70.016  1.00  0.00    -0.354 C  
HETATM   16  H2  UNL     1     -10.406  17.670  70.236  1.00  0.00     0.000 HD 
HETATM   17  N   UNL     1     -11.036  17.081  70.780  1.00  0.00    -0.093 NA 
HETATM   18  H1  UNL     1     -11.847  17.600  71.116  1.00  0.00     0.000 HD 
BRANCH  15  19
HETATM   19  C   UNL     1     -12.452  15.030  70.806  1.00  0.00    -0.411 A  
HETATM   20  C   UNL     1     -12.287  13.643  70.955  1.00  0.00    -0.450 A  
HETATM   21  C   UNL     1     -13.530  15.647  71.464  1.00  0.00    -0.502 A  
HETATM   22  C   UNL     1     -14.372  14.908  72.300  1.00  0.00    -0.522 A  
HETATM   23  C   UNL     1     -13.123  12.909  71.797  1.00  0.00    -0.458 A  
HETATM   24  C   UNL     1     -14.156  13.544  72.481  1.00  0.00    -0.463 A  
ENDBRANCH  15  19
ENDBRANCH  12  15
ENDBRANCH   6  11
BRANCH   7  25
HETATM   25  C   UNL     1      -9.503  10.450  64.631  1.00  0.00    -0.280 C  
HETATM   26  O   UNL     1      -8.976   9.994  63.620  1.00  0.00    -0.214 OA 
BRANCH  25  27
HETATM   27  O   UNL     1      -9.993   9.667  65.635  1.00  0.00    -0.305 OA 
BRANCH  27  28
HETATM   28  C   UNL     1      -9.190   8.525  65.948  1.00  0.00    -0.182 C  
BRANCH  28  29
HETATM   29  O   UNL     1      -8.757   8.565  67.304  1.00  0.00    -0.128 OA 
BRANCH  29  30
HETATM   30  C   UNL     1      -9.009   7.455  68.046  1.00  0.00    -0.132 C  
HETATM   31  O   UNL     1     -10.101   7.168  68.517  1.00  0.00    -0.158 OA 
BRANCH  30  32
HETATM   32  C   UNL     1      -7.745   6.581  68.197  1.00  0.00    -0.105 C  
HETATM   33  N   UNL     1      -8.148   5.168  68.278  1.00  0.00    -0.087 N  
HETATM   34  C   UNL     1      -8.525   4.628  69.612  1.00  0.00    -0.074 C  
HETATM   35  S   UNL     1      -7.861   5.892  70.717  1.00  0.00    -0.104 S  
HETATM   36  C   UNL     1      -7.692   3.389  69.274  1.00  0.00    -0.051 C  
HETATM   37  O   UNL     1      -8.963   6.707  71.199  1.00  0.00    -0.144 OA 
HETATM   38  O   UNL     1      -6.926   5.298  71.652  1.00  0.00    -0.061 OA 
HETATM   39  C   UNL     1      -6.939   6.874  69.485  1.00  0.00    -0.063 C  
HETATM   40  C   UNL     1      -7.290   4.147  68.001  1.00  0.00    -0.064 C  
HETATM   41  C   UNL     1      -6.861   8.347  69.909  1.00  0.00    -0.043 C  
HETATM   42  C   UNL     1      -5.484   6.368  69.387  1.00  0.00    -0.013 C  
HETATM   43  O   UNL     1      -6.417   4.071  67.171  1.00  0.00    -0.039 OA 
ENDBRANCH  30  32
ENDBRANCH  29  30
ENDBRANCH  28  29
ENDBRANCH  27  28
ENDBRANCH  25  27
ENDBRANCH   7  25
TORSDOF 9
ENDMDL
MODEL      225
REMARK 921   NORMALIZED FREE ENERGY PREDICTED BY IDOCK:   -4.46 KCAL/MOL
REMARK 922        TOTAL FREE ENERGY PREDICTED BY IDOCK:   -7.31 KCAL/MOL
REMARK 923 INTER-LIGAND FREE ENERGY PREDICTED BY IDOCK:   -7.43 KCAL/MOL
REMARK 924 INTRA-LIGAND FREE ENERGY PREDICTED BY IDOCK:    0.12 KCAL/MOL
REMARK 927      BINDING AFFINITY PREDICTED BY RF-SCORE:    0.00 PKD
ROOT
HETATM    1  C   UNL     1      -6.624   9.882  64.403  1.00  0.00    -0.125 C  
HETATM    2  C   UNL     1      -7.597   8.750  64.793  1.00  0.00    -0.107 C  
HETATM    3  S   UNL     1      -9.222   9.553  65.192  1.00  0.00    -0.230 SA 
HETATM    4  C   UNL     1      -7.730   7.860  63.551  1.00  0.00    -0.136 C  
HETATM    5  C   UNL     1      -8.902   9.602  67.021  1.00  0.00    -0.131 C  
HETATM    6  C   UNL     1      -8.230  10.876  67.605  1.00  0.00    -0.116 C  
HETATM    7  C   UNL     1      -7.192   8.022  66.102  1.00  0.00    -0.070 C  
HETATM    8  C   UNL     1      -6.929  10.033  67.537  1.00  0.00    -0.086 C  
HETATM    9  O   UNL     1      -5.739  10.251  67.557  1.00  0.00    -0.045 OA 
HETATM   10  N   UNL     1      -7.615   8.903  67.198  1.00  0.00    -0.091 N  
ENDROOT
BRANCH   6  11
HETATM   11  N   UNL     1      -8.288  12.110  66.777  1.00  0.00    -0.320 N  
HETATM   12  C   UNL     1      -8.861  13.268  67.258  1.00  0.00    -0.216 C  
HETATM   13  O   UNL     1      -9.197  13.390  68.436  1.00  0.00    -0.195 OA 
HETATM   14  H   UNL     1      -7.896  12.100  65.835  1.00  0.00     0.000 HD 
BRANCH  12  15
HETATM   15  C   UNL     1      -9.083  14.380  66.208  1.00  0.00    -0.095 C  
HETATM   16  H2  UNL     1      -8.523  15.913  67.520  1.00  0.00     0.000 HD 
HETATM   17  N   UNL     1      -9.287  15.689  66.883  1.00  0.00    -0.223 NA 
HETATM   18  H1  UNL     1      -9.433  16.423  66.190  1.00  0.00     0.000 HD 
BRANCH  15  19
HETATM   19  C   UNL     1     -10.195  14.067  65.223  1.00  0.00    -0.383 A  
HETATM   20  C   UNL     1     -10.089  13.037  64.273  1.00  0.00    -0.216 A  
HETATM   21  C   UNL     1     -11.400  14.788  65.290  1.00  0.00    -0.363 A  
HETATM   22  C   UNL     1     -12.485  14.440  64.483  1.00  0.00    -0.362 A  
HETATM   23  C   UNL     1     -11.177  12.686  63.473  1.00  0.00    -0.489 A  
HETATM   24  C   UNL     1     -12.380  13.377  63.589  1.00  0.00    -0.422 A  
ENDBRANCH  15  19
ENDBRANCH  12  15
ENDBRANCH   6  11
BRANCH   7  25
HETATM   25  C   UNL     1      -7.896   6.668  66.345  1.00  0.00    -0.104 C  
HETATM   26  O   UNL     1      -7.356   5.567  66.293  1.00  0.00    -0.076 OA 
BRANCH  25  27
HETATM   27  O   UNL     1      -9.222   6.837  66.616  1.00  0.00    -0.149 OA 
BRANCH  27  28
HETATM   28  C   UNL     1      -9.654   6.273  67.858  1.00  0.00    -0.118 C  
BRANCH  28  29
HETATM   29  O   UNL     1      -8.687   6.493  68.880  1.00  0.00    -0.127 OA 
BRANCH  29  30
HETATM   30  C   UNL     1      -8.626   5.554  69.859  1.00  0.00    -0.120 C  
HETATM   31  O   UNL     1      -8.070   4.470  69.747  1.00  0.00    -0.060 OA 
BRANCH  30  32
HETATM   32  C   UNL     1      -9.324   6.039  71.148  1.00  0.00    -0.160 C  
HETATM   33  N   UNL     1     -10.178   7.194  70.825  1.00  0.00    -0.198 N  
HETATM   34  C   UNL     1      -9.547   8.541  70.813  1.00  0.00    -0.180 C  
HETATM   35  S   UNL     1      -8.001   8.228  71.692  1.00  0.00    -0.138 S  
HETATM   36  C   UNL     1     -10.773   9.050  71.574  1.00  0.00    -0.421 C  
HETATM   37  O   UNL     1      -6.922   8.173  70.721  1.00  0.00    -0.040 OA 
HETATM   38  O   UNL     1      -7.901   9.092  72.851  1.00  0.00    -0.274 OA 
HETATM   39  C   UNL     1      -8.343   6.521  72.242  1.00  0.00    -0.106 C  
HETATM   40  C   UNL     1     -11.215   7.580  71.618  1.00  0.00    -0.243 C  
HETATM   41  C   UNL     1      -7.040   5.720  72.376  1.00  0.00    -0.085 C  
HETATM   42  C   UNL     1      -8.994   6.536  73.642  1.00  0.00    -0.140 C  
HETATM   43  O   UNL     1     -11.993   6.914  72.256  1.00  0.00    -0.272 OA 
ENDBRANCH  30  32
ENDBRANCH  29  30
ENDBRANCH  28  29
ENDBRANCH  27  28
ENDBRANCH  25  27
ENDBRANCH   7  25
TORSDOF 9
ENDMDL
MODEL      226
REMARK 921   NORMALIZED FREE ENERGY PREDICTED BY IDOCK:   -4.46 KCAL/MOL
REMARK 922        TOTAL FREE ENERGY PREDICTED BY IDOCK:   -7.31 KCAL/MOL
REMARK 923 INTER-LIGAND FREE ENERGY PREDICTED BY IDOCK:   -8.38 KCAL/MOL
REMARK 924 INTRA-LIGAND FREE ENERGY PREDICTED BY IDOCK:    1.07 KCAL/MOL
REMARK 927      BINDING AFFINITY PREDICTED BY RF-SCORE:    0.00 PKD
ROOT
HETATM    1  C   UNL     1      -8.101  13.965  67.902  1.00  0.00    -0.158 C  
HETATM    2  C   UNL     1      -9.261  13.083  67.395  1.00  0.00    -0.208 C  
HETATM    3  S   UNL     1     -10.138  14.055  66.080  1.00  0.00    -0.322 SA 
HETATM    4  C   UNL     1      -8.610  11.832  66.794  1.00  0.00    -0.185 C  
HETATM    5  C   UNL     1     -11.437  14.706  67.237  1.00  0.00    -0.372 C  
HETATM    6  C   UNL     1     -11.166  16.068  67.937  1.00  0.00    -0.276 C  
HETATM    7  C   UNL     1     -10.346  12.824  68.475  1.00  0.00    -0.221 C  
HETATM    8  C   UNL     1     -10.731  15.187  69.138  1.00  0.00    -0.253 C  
HETATM    9  O   UNL     1     -10.084  15.339  70.149  1.00  0.00    -0.238 OA 
HETATM   10  N   UNL     1     -11.160  14.046  68.526  1.00  0.00    -0.246 N  
ENDROOT
BRANCH   6  11
HETATM   11  N   UNL     1     -10.135  16.948  67.325  1.00  0.00    -0.279 N  
HETATM   12  C   UNL     1      -9.952  18.243  67.760  1.00  0.00    -0.332 C  
HETATM   13  O   UNL     1     -10.505  18.678  68.770  1.00  0.00    -0.245 OA 
HETATM   14  H   UNL     1      -9.552  16.587  66.570  1.00  0.00     0.000 HD 
BRANCH  12  15
HETATM   15  C   UNL     1      -9.036  19.113  66.870  1.00  0.00    -0.305 C  
HETATM   16  H2  UNL     1     -10.639  19.987  65.845  1.00  0.00     0.000 HD 
HETATM   17  N   UNL     1      -9.758  19.520  65.635  1.00  0.00    -0.309 NA 
HETATM   18  H1  UNL     1      -9.153  20.094  65.048  1.00  0.00     0.000 HD 
BRANCH  15  19
HETATM   19  C   UNL     1      -7.699  18.462  66.561  1.00  0.00    -0.278 A  
HETATM   20  C   UNL     1      -7.500  17.075  66.660  1.00  0.00    -0.300 A  
HETATM   21  C   UNL     1      -6.634  19.257  66.103  1.00  0.00    -0.228 A  
HETATM   22  C   UNL     1      -5.434  18.672  65.690  1.00  0.00    -0.208 A  
HETATM   23  C   UNL     1      -6.304  16.492  66.239  1.00  0.00     0.667 A  
HETATM   24  C   UNL     1      -5.277  17.289  65.740  1.00  0.00     0.268 A  
ENDBRANCH  15  19
ENDBRANCH  12  15
ENDBRANCH   6  11
BRANCH   7  25
HETATM   25  C   UNL     1     -11.324  11.670  68.158  1.00  0.00    -0.292 C  
HETATM   26  O   UNL     1     -12.234  11.715  67.335  1.00  0.00    -0.458 OA 
BRANCH  25  27
HETATM   27  O   UNL     1     -11.065  10.573  68.925  1.00  0.00    -0.230 OA 
BRANCH  27  28
HETATM   28  C   UNL     1     -11.123  10.802  70.336  1.00  0.00    -0.096 C  
BRANCH  28  29
HETATM   29  O   UNL     1     -12.028   9.898  70.962  1.00  0.00    -0.311 OA 
BRANCH  29  30
HETATM   30  C   UNL     1     -11.487   8.756  71.457  1.00  0.00    -0.305 C  
HETATM   31  O   UNL     1     -11.832   8.220  72.502  1.00  0.00    -0.387 OA 
BRANCH  30  32
HETATM   32  C   UNL     1     -10.394   8.197  70.520  1.00  0.00    -0.202 C  
HETATM   33  N   UNL     1     -11.039   7.541  69.371  1.00  0.00    -0.074 N  
HETATM   34  C   UNL     1     -11.453   6.119  69.525  1.00  0.00    -0.229 C  
HETATM   35  S   UNL     1     -10.531   5.629  70.998  1.00  0.00    -0.249 S  
HETATM   36  C   UNL     1     -10.869   5.866  68.134  1.00  0.00    -0.323 C  
HETATM   37  O   UNL     1     -11.449   5.583  72.123  1.00  0.00    -0.213 OA 
HETATM   38  O   UNL     1      -9.679   4.495  70.700  1.00  0.00    -0.179 OA 
HETATM   39  C   UNL     1      -9.498   7.124  71.182  1.00  0.00    -0.157 C  
HETATM   40  C   UNL     1     -10.389   7.324  68.194  1.00  0.00    -0.194 C  
HETATM   41  C   UNL     1      -9.142   7.362  72.656  1.00  0.00    -0.181 C  
HETATM   42  C   UNL     1      -8.161   6.939  70.432  1.00  0.00    -0.124 C  
HETATM   43  O   UNL     1      -9.578   8.008  67.619  1.00  0.00    -0.145 OA 
ENDBRANCH  30  32
ENDBRANCH  29  30
ENDBRANCH  28  29
ENDBRANCH  27  28
ENDBRANCH  25  27
ENDBRANCH   7  25
TORSDOF 9
ENDMDL
MODEL      227
REMARK 921   NORMALIZED FREE ENERGY PREDICTED BY IDOCK:   -4.46 KCAL/MOL
REMARK 922        TOTAL FREE ENERGY PREDICTED BY IDOCK:   -7.31 KCAL/MOL
REMARK 923 INTER-LIGAND FREE ENERGY PREDICTED BY IDOCK:   -6.70 KCAL/MOL
REMARK 924 INTRA-LIGAND FREE ENERGY PREDICTED BY IDOCK:   -0.61 KCAL/MOL
REMARK 927      BINDING AFFINITY PREDICTED BY RF-SCORE:    0.00 PKD
ROOT
HETATM    1  C   UNL     1      -7.837  14.452  69.659  1.00  0.00     0.280 C  
HETATM    2  C   UNL     1      -8.521  13.763  68.459  1.00  0.00    -0.117 C  
HETATM    3  S   UNL     1      -8.192  14.823  66.973  1.00  0.00    -0.116 SA 
HETATM    4  C   UNL     1      -7.836  12.399  68.308  1.00  0.00    -0.150 C  
HETATM    5  C   UNL     1      -9.812  15.725  67.090  1.00  0.00    -0.226 C  
HETATM    6  C   UNL     1      -9.849  17.044  67.912  1.00  0.00    -0.269 C  
HETATM    7  C   UNL     1     -10.068  13.729  68.578  1.00  0.00    -0.225 C  
HETATM    8  C   UNL     1     -10.423  16.144  69.038  1.00  0.00    -0.261 C  
HETATM    9  O   UNL     1     -10.560  16.218  70.238  1.00  0.00    -0.236 OA 
HETATM   10  N   UNL     1     -10.529  15.072  68.200  1.00  0.00    -0.241 N  
ENDROOT
BRANCH   6  11
HETATM   11  N   UNL     1      -8.547  17.715  68.171  1.00  0.00    -0.253 N  
HETATM   12  C   UNL     1      -8.427  19.087  68.116  1.00  0.00    -0.316 C  
HETATM   13  O   UNL     1      -9.406  19.826  68.018  1.00  0.00    -0.339 OA 
HETATM   14  H   UNL     1      -7.728  17.150  68.394  1.00  0.00     0.000 HD 
BRANCH  12  15
HETATM   15  C   UNL     1      -6.978  19.623  68.149  1.00  0.00    -0.284 C  
HETATM   16  H2  UNL     1      -7.315  20.808  69.842  1.00  0.00     0.000 HD 
HETATM   17  N   UNL     1      -6.922  20.902  68.907  1.00  0.00     0.373 NA 
HETATM   18  H1  UNL     1      -5.966  21.256  68.929  1.00  0.00     0.000 HD 
BRANCH  15  19
HETATM   19  C   UNL     1      -6.348  19.748  66.773  1.00  0.00    -0.192 A  
HETATM   20  C   UNL     1      -6.314  18.678  65.863  1.00  0.00    -0.268 A  
HETATM   21  C   UNL     1      -5.828  20.988  66.362  1.00  0.00    -0.305 A  
HETATM   22  C   UNL     1      -5.358  21.167  65.059  1.00  0.00    -0.227 A  
HETATM   23  C   UNL     1      -5.852  18.862  64.559  1.00  0.00    -0.271 A  
HETATM   24  C   UNL     1      -5.388  20.109  64.153  1.00  0.00    -0.224 A  
ENDBRANCH  15  19
ENDBRANCH  12  15
ENDBRANCH   6  11
BRANCH   7  25
HETATM   25  C   UNL     1     -10.778  12.747  67.617  1.00  0.00    -0.219 C  
HETATM   26  O   UNL     1     -10.851  12.873  66.398  1.00  0.00    -0.270 OA 
BRANCH  25  27
HETATM   27  O   UNL     1     -11.340  11.706  68.295  1.00  0.00    -0.237 OA 
BRANCH  27  28
HETATM   28  C   UNL     1     -10.994  10.411  67.794  1.00  0.00    -0.309 C  
BRANCH  28  29
HETATM   29  O   UNL     1     -10.185   9.704  68.729  1.00  0.00    -0.182 OA 
BRANCH  29  30
HETATM   30  C   UNL     1     -10.162   8.353  68.601  1.00  0.00    -0.201 C  
HETATM   31  O   UNL     1     -10.665   7.735  67.673  1.00  0.00    -0.225 OA 
BRANCH  30  32
HETATM   32  C   UNL     1      -9.394   7.689  69.765  1.00  0.00    -0.150 C  
HETATM   33  N   UNL     1      -8.690   8.732  70.529  1.00  0.00    -0.158 N  
HETATM   34  C   UNL     1      -7.345   9.154  70.052  1.00  0.00    -0.070 C  
HETATM   35  S   UNL     1      -6.921   7.811  68.922  1.00  0.00    -0.067 S  
HETATM   36  C   UNL     1      -6.884   9.105  71.511  1.00  0.00    -0.005 C  
HETATM   37  O   UNL     1      -7.094   8.284  67.559  1.00  0.00    -0.080 OA 
HETATM   38  O   UNL     1      -5.678   7.188  69.330  1.00  0.00    -0.018 OA 
HETATM   39  C   UNL     1      -8.310   6.688  69.302  1.00  0.00    -0.124 C  
HETATM   40  C   UNL     1      -8.281   8.544  71.815  1.00  0.00    -0.155 C  
HETATM   41  C   UNL     1      -8.666   5.829  68.080  1.00  0.00    -0.107 C  
HETATM   42  C   UNL     1      -7.906   5.708  70.424  1.00  0.00    -0.102 C  
HETATM   43  O   UNL     1      -8.810   7.941  72.717  1.00  0.00    -0.151 OA 
ENDBRANCH  30  32
ENDBRANCH  29  30
ENDBRANCH  28  29
ENDBRANCH  27  28
ENDBRANCH  25  27
ENDBRANCH   7  25
TORSDOF 9
ENDMDL
MODEL      228
REMARK 921   NORMALIZED FREE ENERGY PREDICTED BY IDOCK:   -4.43 KCAL/MOL
REMARK 922        TOTAL FREE ENERGY PREDICTED BY IDOCK:   -7.27 KCAL/MOL
REMARK 923 INTER-LIGAND FREE ENERGY PREDICTED BY IDOCK:   -7.50 KCAL/MOL
REMARK 924 INTRA-LIGAND FREE ENERGY PREDICTED BY IDOCK:    0.23 KCAL/MOL
REMARK 927      BINDING AFFINITY PREDICTED BY RF-SCORE:    0.00 PKD
ROOT
HETATM    1  C   UNL     1      -8.516   7.431  70.558  1.00  0.00    -0.137 C  
HETATM    2  C   UNL     1      -9.929   8.050  70.542  1.00  0.00    -0.190 C  
HETATM    3  S   UNL     1     -11.026   6.860  69.635  1.00  0.00    -0.249 SA 
HETATM    4  C   UNL     1     -10.358   8.163  72.010  1.00  0.00    -0.320 C  
HETATM    5  C   UNL     1     -10.866   7.742  68.008  1.00  0.00     0.021 C  
HETATM    6  C   UNL     1      -9.730   7.290  67.047  1.00  0.00    -0.181 C  
HETATM    7  C   UNL     1     -10.010   9.361  69.715  1.00  0.00    -0.200 C  
HETATM    8  C   UNL     1      -8.964   8.507  67.630  1.00  0.00    -0.135 C  
HETATM    9  O   UNL     1      -7.813   8.878  67.681  1.00  0.00    -0.100 OA 
HETATM   10  N   UNL     1     -10.065   8.944  68.307  1.00  0.00    -0.180 N  
ENDROOT
BRANCH   6  11
HETATM   11  N   UNL     1      -9.147   5.941  67.279  1.00  0.00    -0.112 N  
HETATM   12  C   UNL     1      -9.809   4.799  66.884  1.00  0.00    -0.205 C  
HETATM   13  O   UNL     1     -10.818   4.838  66.181  1.00  0.00    -0.258 OA 
HETATM   14  H   UNL     1      -8.240   5.860  67.739  1.00  0.00     0.000 HD 
BRANCH  12  15
HETATM   15  C   UNL     1      -9.213   3.475  67.416  1.00  0.00    -0.194 C  
HETATM   16  H2  UNL     1      -9.239   4.112  69.410  1.00  0.00     0.000 HD 
HETATM   17  N   UNL     1      -8.588   3.694  68.747  1.00  0.00    -0.082 NA 
HETATM   18  H1  UNL     1      -8.195   2.820  69.098  1.00  0.00     0.000 HD 
BRANCH  15  19
HETATM   19  C   UNL     1      -8.260   2.807  66.441  1.00  0.00    -0.086 A  
HETATM   20  C   UNL     1      -8.394   2.941  65.049  1.00  0.00    -0.092 A  
HETATM   21  C   UNL     1      -7.168   2.074  66.937  1.00  0.00    -0.052 A  
HETATM   22  C   UNL     1      -6.204   1.555  66.068  1.00  0.00    -0.022 A  
HETATM   23  C   UNL     1      -7.426   2.429  64.184  1.00  0.00    -0.059 A  
HETATM   24  C   UNL     1      -6.324   1.749  64.694  1.00  0.00    -0.018 A  
ENDBRANCH  15  19
ENDBRANCH  12  15
ENDBRANCH   6  11
BRANCH   7  25
HETATM   25  C   UNL     1     -11.276  10.213  69.959  1.00  0.00    -0.299 C  
HETATM   26  O   UNL     1     -11.787  10.430  71.053  1.00  0.00    -0.343 OA 
BRANCH  25  27
HETATM   27  O   UNL     1     -11.783  10.699  68.789  1.00  0.00    -0.274 OA 
BRANCH  27  28
HETATM   28  C   UNL     1     -11.832  12.126  68.706  1.00  0.00    -0.303 C  
BRANCH  28  29
HETATM   29  O   UNL     1     -10.990  12.604  67.662  1.00  0.00    -0.227 OA 
BRANCH  29  30
HETATM   30  C   UNL     1     -10.986  13.946  67.462  1.00  0.00    -0.276 C  
HETATM   31  O   UNL     1     -11.982  14.657  67.500  1.00  0.00    -0.375 OA 
BRANCH  30  32
HETATM   32  C   UNL     1      -9.557  14.474  67.206  1.00  0.00    -0.226 C  
HETATM   33  N   UNL     1      -8.820  14.494  68.480  1.00  0.00    -0.180 N  
HETATM   34  C   UNL     1      -8.968  15.691  69.350  1.00  0.00    -0.265 C  
HETATM   35  S   UNL     1      -9.684  16.888  68.204  1.00  0.00    -0.263 S  
HETATM   36  C   UNL     1      -7.453  15.644  69.563  1.00  0.00    -0.192 C  
HETATM   37  O   UNL     1     -11.102  17.016  68.497  1.00  0.00    -0.300 OA 
HETATM   38  O   UNL     1      -8.844  18.066  68.121  1.00  0.00    -0.259 OA 
HETATM   39  C   UNL     1      -9.519  15.922  66.664  1.00  0.00    -0.241 C  
HETATM   40  C   UNL     1      -7.459  14.503  68.535  1.00  0.00    -0.123 C  
HETATM   41  C   UNL     1     -10.623  16.295  65.665  1.00  0.00    -0.360 C  
HETATM   42  C   UNL     1      -8.176  16.249  65.975  1.00  0.00    -0.013 C  
HETATM   43  O   UNL     1      -6.650  13.950  67.830  1.00  0.00    -0.129 OA 
ENDBRANCH  30  32
ENDBRANCH  29  30
ENDBRANCH  28  29
ENDBRANCH  27  28
ENDBRANCH  25  27
ENDBRANCH   7  25
TORSDOF 9
ENDMDL
MODEL      229
REMARK 921   NORMALIZED FREE ENERGY PREDICTED BY IDOCK:   -4.42 KCAL/MOL
REMARK 922        TOTAL FREE ENERGY PREDICTED BY IDOCK:   -7.25 KCAL/MOL
REMARK 923 INTER-LIGAND FREE ENERGY PREDICTED BY IDOCK:   -7.68 KCAL/MOL
REMARK 924 INTRA-LIGAND FREE ENERGY PREDICTED BY IDOCK:    0.43 KCAL/MOL
REMARK 927      BINDING AFFINITY PREDICTED BY RF-SCORE:    0.00 PKD
ROOT
HETATM    1  C   UNL     1      -8.639  10.864  65.208  1.00  0.00    -0.103 C  
HETATM    2  C   UNL     1      -9.070  10.159  66.511  1.00  0.00    -0.144 C  
HETATM    3  S   UNL     1      -9.972  11.420  67.530  1.00  0.00    -0.184 SA 
HETATM    4  C   UNL     1     -10.020   9.032  66.088  1.00  0.00    -0.311 C  
HETATM    5  C   UNL     1      -8.478  11.874  68.536  1.00  0.00    -0.113 C  
HETATM    6  C   UNL     1      -7.592  13.048  68.028  1.00  0.00    -0.139 C  
HETATM    7  C   UNL     1      -7.870   9.730  67.397  1.00  0.00    -0.099 C  
HETATM    8  C   UNL     1      -6.696  11.918  67.455  1.00  0.00    -0.126 C  
HETATM    9  O   UNL     1      -5.822  11.828  66.623  1.00  0.00    -0.163 OA 
HETATM   10  N   UNL     1      -7.422  10.949  68.083  1.00  0.00    -0.088 N  
ENDROOT
BRANCH   6  11
HETATM   11  N   UNL     1      -8.210  13.989  67.057  1.00  0.00    -0.375 N  
HETATM   12  C   UNL     1      -9.098  14.960  67.468  1.00  0.00    -0.183 C  
HETATM   13  O   UNL     1      -9.293  15.206  68.658  1.00  0.00    -0.184 OA 
HETATM   14  H   UNL     1      -7.973  13.915  66.067  1.00  0.00     0.000 HD 
BRANCH  12  15
HETATM   15  C   UNL     1      -9.851  15.688  66.332  1.00  0.00    -0.274 C  
HETATM   16  H2  UNL     1      -9.796  14.030  65.055  1.00  0.00     0.000 HD 
HETATM   17  N   UNL     1      -9.577  15.025  65.029  1.00  0.00    -0.229 NA 
HETATM   18  H1  UNL     1     -10.074  15.506  64.279  1.00  0.00     0.000 HD 
BRANCH  15  19
HETATM   19  C   UNL     1      -9.572  17.180  66.281  1.00  0.00    -0.273 A  
HETATM   20  C   UNL     1     -10.594  18.129  66.110  1.00  0.00    -0.289 A  
HETATM   21  C   UNL     1      -8.259  17.644  66.468  1.00  0.00    -0.307 A  
HETATM   22  C   UNL     1      -7.990  19.012  66.552  1.00  0.00    -0.294 A  
HETATM   23  C   UNL     1     -10.326  19.495  66.204  1.00  0.00    -0.614 A  
HETATM   24  C   UNL     1      -9.027  19.936  66.439  1.00  0.00    -0.434 A  
ENDBRANCH  15  19
ENDBRANCH  12  15
ENDBRANCH   6  11
BRANCH   7  25
HETATM   25  C   UNL     1      -8.207   8.712  68.510  1.00  0.00    -0.122 C  
HETATM   26  O   UNL     1      -7.795   7.557  68.566  1.00  0.00    -0.117 OA 
BRANCH  25  27
HETATM   27  O   UNL     1      -9.047   9.250  69.440  1.00  0.00    -0.141 OA 
BRANCH  27  28
HETATM   28  C   UNL     1      -8.809   8.816  70.782  1.00  0.00    -0.191 C  
BRANCH  28  29
HETATM   29  O   UNL     1      -9.388   7.535  71.013  1.00  0.00    -0.155 OA 
BRANCH  29  30
HETATM   30  C   UNL     1      -9.993   7.358  72.215  1.00  0.00    -0.169 C  
HETATM   31  O   UNL     1     -10.853   8.098  72.675  1.00  0.00    -0.337 OA 
BRANCH  30  32
HETATM   32  C   UNL     1      -9.480   6.085  72.922  1.00  0.00    -0.150 C  
HETATM   33  N   UNL     1      -8.165   5.727  72.368  1.00  0.00    -0.107 N  
HETATM   34  C   UNL     1      -8.134   4.898  71.132  1.00  0.00    -0.101 C  
HETATM   35  S   UNL     1      -9.823   4.264  71.077  1.00  0.00    -0.155 S  
HETATM   36  C   UNL     1      -7.025   4.074  71.791  1.00  0.00    -0.037 C  
HETATM   37  O   UNL     1     -10.559   5.001  70.063  1.00  0.00    -0.245 OA 
HETATM   38  O   UNL     1      -9.814   2.815  71.066  1.00  0.00    -0.134 OA 
HETATM   39  C   UNL     1     -10.388   4.850  72.711  1.00  0.00    -0.190 C  
HETATM   40  C   UNL     1      -7.281   4.935  73.036  1.00  0.00    -0.085 C  
HETATM   41  C   UNL     1     -11.898   5.120  72.702  1.00  0.00    -0.056 C  
HETATM   42  C   UNL     1     -10.143   3.760  73.777  1.00  0.00    -0.185 C  
HETATM   43  O   UNL     1      -7.039   4.868  74.217  1.00  0.00    -0.075 OA 
ENDBRANCH  30  32
ENDBRANCH  29  30
ENDBRANCH  28  29
ENDBRANCH  27  28
ENDBRANCH  25  27
ENDBRANCH   7  25
TORSDOF 9
ENDMDL
MODEL      230
REMARK 921   NORMALIZED FREE ENERGY PREDICTED BY IDOCK:   -4.38 KCAL/MOL
REMARK 922        TOTAL FREE ENERGY PREDICTED BY IDOCK:   -7.19 KCAL/MOL
REMARK 923 INTER-LIGAND FREE ENERGY PREDICTED BY IDOCK:   -7.64 KCAL/MOL
REMARK 924 INTRA-LIGAND FREE ENERGY PREDICTED BY IDOCK:    0.45 KCAL/MOL
REMARK 927      BINDING AFFINITY PREDICTED BY RF-SCORE:    0.00 PKD
ROOT
HETATM    1  C   UNL     1     -11.460  12.421  69.115  1.00  0.00    -0.358 C  
HETATM    2  C   UNL     1     -10.506  11.413  68.441  1.00  0.00    -0.200 C  
HETATM    3  S   UNL     1      -8.879  12.278  68.222  1.00  0.00    -0.149 SA 
HETATM    4  C   UNL     1     -10.364  10.244  69.422  1.00  0.00    -0.256 C  
HETATM    5  C   UNL     1      -9.227  12.778  66.468  1.00  0.00    -0.189 C  
HETATM    6  C   UNL     1      -9.895  14.162  66.227  1.00  0.00    -0.306 C  
HETATM    7  C   UNL     1     -10.941  11.033  67.000  1.00  0.00    -0.272 C  
HETATM    8  C   UNL     1     -11.203  13.337  66.110  1.00  0.00    -0.296 C  
HETATM    9  O   UNL     1     -12.391  13.562  66.165  1.00  0.00    -0.426 OA 
HETATM   10  N   UNL     1     -10.525  12.154  66.147  1.00  0.00    -0.242 N  
ENDROOT
BRANCH   6  11
HETATM   11  N   UNL     1      -9.809  15.154  67.333  1.00  0.00    -0.223 N  
HETATM   12  C   UNL     1     -10.163  16.472  67.140  1.00  0.00    -0.284 C  
HETATM   13  O   UNL     1     -10.717  16.856  66.110  1.00  0.00    -0.239 OA 
HETATM   14  H   UNL     1      -9.483  14.853  68.251  1.00  0.00     0.000 HD 
BRANCH  12  15
HETATM   15  C   UNL     1      -9.781  17.432  68.289  1.00  0.00    -0.299 C  
HETATM   16  H2  UNL     1     -11.615  17.195  69.272  1.00  0.00     0.000 HD 
HETATM   17  N   UNL     1     -11.007  17.949  68.953  1.00  0.00    -0.053 NA 
HETATM   18  H1  UNL     1     -10.755  18.583  69.711  1.00  0.00     0.000 HD 
BRANCH  15  19
HETATM   19  C   UNL     1      -8.852  18.552  67.857  1.00  0.00    -0.301 A  
HETATM   20  C   UNL     1      -8.531  18.784  66.509  1.00  0.00    -0.310 A  
HETATM   21  C   UNL     1      -8.333  19.430  68.824  1.00  0.00    -0.379 A  
HETATM   22  C   UNL     1      -7.579  20.544  68.446  1.00  0.00     0.093 A  
HETATM   23  C   UNL     1      -7.785  19.901  66.132  1.00  0.00    -0.339 A  
HETATM   24  C   UNL     1      -7.322  20.789  67.099  1.00  0.00    -0.385 A  
ENDBRANCH  15  19
ENDBRANCH  12  15
ENDBRANCH   6  11
BRANCH   7  25
HETATM   25  C   UNL     1     -10.256   9.775  66.419  1.00  0.00    -0.217 C  
HETATM   26  O   UNL     1      -9.192   9.764  65.806  1.00  0.00    -0.163 OA 
BRANCH  25  27
HETATM   27  O   UNL     1     -10.991   8.652  66.657  1.00  0.00     0.071 OA 
BRANCH  27  28
HETATM   28  C   UNL     1     -10.298   7.422  66.424  1.00  0.00     0.141 C  
BRANCH  28  29
HETATM   29  O   UNL     1     -10.986   6.329  67.023  1.00  0.00    -0.355 OA 
BRANCH  29  30
HETATM   30  C   UNL     1     -10.402   5.781  68.119  1.00  0.00    -0.212 C  
HETATM   31  O   UNL     1     -10.896   5.774  69.239  1.00  0.00    -0.311 OA 
BRANCH  30  32
HETATM   32  C   UNL     1      -9.041   5.140  67.771  1.00  0.00    -0.111 C  
HETATM   33  N   UNL     1      -9.277   3.840  67.122  1.00  0.00    -0.168 N  
HETATM   34  C   UNL     1      -9.468   2.651  67.997  1.00  0.00    -0.149 C  
HETATM   35  S   UNL     1      -8.848   3.261  69.579  1.00  0.00    -0.103 S  
HETATM   36  C   UNL     1      -8.539   1.887  67.051  1.00  0.00    -0.114 C  
HETATM   37  O   UNL     1      -9.984   3.554  70.437  1.00  0.00    -0.078 OA 
HETATM   38  O   UNL     1      -7.771   2.415  70.054  1.00  0.00    -0.043 OA 
HETATM   39  C   UNL     1      -8.157   4.850  69.007  1.00  0.00    -0.079 C  
HETATM   40  C   UNL     1      -8.341   3.233  66.340  1.00  0.00    -0.099 C  
HETATM   41  C   UNL     1      -8.203   5.900  70.126  1.00  0.00    -0.118 C  
HETATM   42  C   UNL     1      -6.670   4.676  68.630  1.00  0.00    -0.050 C  
HETATM   43  O   UNL     1      -7.546   3.713  65.570  1.00  0.00    -0.076 OA 
ENDBRANCH  30  32
ENDBRANCH  29  30
ENDBRANCH  28  29
ENDBRANCH  27  28
ENDBRANCH  25  27
ENDBRANCH   7  25
TORSDOF 9
ENDMDL
MODEL      231
REMARK 921   NORMALIZED FREE ENERGY PREDICTED BY IDOCK:   -4.35 KCAL/MOL
REMARK 922        TOTAL FREE ENERGY PREDICTED BY IDOCK:   -7.14 KCAL/MOL
REMARK 923 INTER-LIGAND FREE ENERGY PREDICTED BY IDOCK:   -6.37 KCAL/MOL
REMARK 924 INTRA-LIGAND FREE ENERGY PREDICTED BY IDOCK:   -0.77 KCAL/MOL
REMARK 927      BINDING AFFINITY PREDICTED BY RF-SCORE:    0.00 PKD
ROOT
HETATM    1  C   UNL     1      -9.780   7.860  71.308  1.00  0.00    -0.187 C  
HETATM    2  C   UNL     1      -9.457   7.815  69.800  1.00  0.00    -0.160 C  
HETATM    3  S   UNL     1      -8.605   6.198  69.482  1.00  0.00    -0.128 SA 
HETATM    4  C   UNL     1     -10.808   7.862  69.077  1.00  0.00    -0.029 C  
HETATM    5  C   UNL     1      -6.898   6.920  69.597  1.00  0.00    -0.051 C  
HETATM    6  C   UNL     1      -6.200   6.912  70.986  1.00  0.00    -0.036 C  
HETATM    7  C   UNL     1      -8.425   8.890  69.367  1.00  0.00    -0.124 C  
HETATM    8  C   UNL     1      -6.682   8.385  71.063  1.00  0.00    -0.049 C  
HETATM    9  O   UNL     1      -6.839   9.213  71.931  1.00  0.00    -0.288 OA 
HETATM   10  N   UNL     1      -7.111   8.369  69.768  1.00  0.00    -0.051 N  
ENDROOT
BRANCH   6  11
HETATM   11  N   UNL     1      -6.731   5.966  72.003  1.00  0.00    -0.062 N  
HETATM   12  C   UNL     1      -6.169   5.876  73.259  1.00  0.00    -0.058 C  
HETATM   13  O   UNL     1      -5.323   6.677  73.655  1.00  0.00    -0.041 OA 
HETATM   14  H   UNL     1      -7.527   5.372  71.768  1.00  0.00     0.000 HD 
BRANCH  12  15
HETATM   15  C   UNL     1      -6.651   4.681  74.112  1.00  0.00    -0.063 C  
HETATM   16  H2  UNL     1      -4.757   3.789  74.170  1.00  0.00     0.000 HD 
HETATM   17  N   UNL     1      -5.720   3.531  73.956  1.00  0.00    -0.003 NA 
HETATM   18  H1  UNL     1      -6.038   2.743  74.519  1.00  0.00     0.000 HD 
BRANCH  15  19
HETATM   19  C   UNL     1      -8.092   4.288  73.842  1.00  0.00    -0.092 A  
HETATM   20  C   UNL     1      -9.177   4.983  74.403  1.00  0.00    -0.116 A  
HETATM   21  C   UNL     1      -8.365   3.230  72.958  1.00  0.00    -0.081 A  
HETATM   22  C   UNL     1      -9.679   2.927  72.592  1.00  0.00    -0.191 A  
HETATM   23  C   UNL     1     -10.488   4.685  74.029  1.00  0.00    -0.322 A  
HETATM   24  C   UNL     1     -10.738   3.667  73.113  1.00  0.00    -0.268 A  
ENDBRANCH  15  19
ENDBRANCH  12  15
ENDBRANCH   6  11
BRANCH   7  25
HETATM   25  C   UNL     1      -8.339   9.140  67.844  1.00  0.00    -0.117 C  
HETATM   26  O   UNL     1      -8.367   8.271  66.977  1.00  0.00    -0.119 OA 
BRANCH  25  27
HETATM   27  O   UNL     1      -8.211  10.468  67.563  1.00  0.00    -0.114 OA 
BRANCH  27  28
HETATM   28  C   UNL     1      -9.060  11.326  68.332  1.00  0.00    -0.170 C  
BRANCH  28  29
HETATM   29  O   UNL     1     -10.431  11.010  68.116  1.00  0.00    -0.175 OA 
BRANCH  29  30
HETATM   30  C   UNL     1     -11.162  11.938  67.447  1.00  0.00    -0.305 C  
HETATM   31  O   UNL     1     -12.342  12.181  67.664  1.00  0.00    -0.325 OA 
BRANCH  30  32
HETATM   32  C   UNL     1     -10.308  12.673  66.391  1.00  0.00    -0.249 C  
HETATM   33  N   UNL     1     -10.726  14.083  66.335  1.00  0.00    -0.277 N  
HETATM   34  C   UNL     1     -11.878  14.432  65.459  1.00  0.00    -0.357 C  
HETATM   35  S   UNL     1     -12.007  12.959  64.423  1.00  0.00    -0.426 S  
HETATM   36  C   UNL     1     -11.066  15.638  64.982  1.00  0.00    -0.399 C  
HETATM   37  O   UNL     1     -13.134  12.168  64.885  1.00  0.00    -0.507 OA 
HETATM   38  O   UNL     1     -11.888  13.320  63.025  1.00  0.00    -0.283 OA 
HETATM   39  C   UNL     1     -10.478  12.116  64.958  1.00  0.00    -0.290 C  
HETATM   40  C   UNL     1      -9.925  15.064  65.834  1.00  0.00    -0.326 C  
HETATM   41  C   UNL     1     -10.627  10.592  64.843  1.00  0.00    -0.192 C  
HETATM   42  C   UNL     1      -9.305  12.513  64.037  1.00  0.00     0.641 C  
HETATM   43  O   UNL     1      -8.728  15.200  65.909  1.00  0.00     0.015 OA 
ENDBRANCH  30  32
ENDBRANCH  29  30
ENDBRANCH  28  29
ENDBRANCH  27  28
ENDBRANCH  25  27
ENDBRANCH   7  25
TORSDOF 9
ENDMDL
MODEL      232
REMARK 921   NORMALIZED FREE ENERGY PREDICTED BY IDOCK:   -4.30 KCAL/MOL
REMARK 922        TOTAL FREE ENERGY PREDICTED BY IDOCK:   -7.06 KCAL/MOL
REMARK 923 INTER-LIGAND FREE ENERGY PREDICTED BY IDOCK:   -6.47 KCAL/MOL
REMARK 924 INTRA-LIGAND FREE ENERGY PREDICTED BY IDOCK:   -0.59 KCAL/MOL
REMARK 927      BINDING AFFINITY PREDICTED BY RF-SCORE:    0.00 PKD
ROOT
HETATM    1  C   UNL     1      -6.955  10.802  65.927  1.00  0.00    -0.079 C  
HETATM    2  C   UNL     1      -7.675  10.153  67.127  1.00  0.00    -0.092 C  
HETATM    3  S   UNL     1      -9.332  10.975  67.267  1.00  0.00    -0.156 SA 
HETATM    4  C   UNL     1      -7.840   8.671  66.771  1.00  0.00    -0.094 C  
HETATM    5  C   UNL     1      -8.770  12.194  68.551  1.00  0.00    -0.079 C  
HETATM    6  C   UNL     1      -8.230  13.567  68.059  1.00  0.00    -0.163 C  
HETATM    7  C   UNL     1      -6.981  10.446  68.484  1.00  0.00    -0.062 C  
HETATM    8  C   UNL     1      -6.836  12.915  68.262  1.00  0.00    -0.093 C  
HETATM    9  O   UNL     1      -5.704  13.132  67.895  1.00  0.00    -0.105 OA 
HETATM   10  N   UNL     1      -7.378  11.811  68.852  1.00  0.00    -0.111 N  
ENDROOT
BRANCH   6  11
HETATM   11  N   UNL     1      -8.596  13.981  66.678  1.00  0.00    -0.446 N  
HETATM   12  C   UNL     1      -9.630  14.863  66.447  1.00  0.00    -0.293 C  
HETATM   13  O   UNL     1     -10.186  15.472  67.360  1.00  0.00    -0.248 OA 
HETATM   14  H   UNL     1      -8.072  13.607  65.887  1.00  0.00     0.000 HD 
BRANCH  12  15
HETATM   15  C   UNL     1     -10.061  14.999  64.969  1.00  0.00    -0.253 C  
HETATM   16  H2  UNL     1     -10.243  17.083  65.078  1.00  0.00     0.000 HD 
HETATM   17  N   UNL     1     -10.789  16.281  64.764  1.00  0.00    -0.783 NA 
HETATM   18  H1  UNL     1     -11.073  16.371  63.789  1.00  0.00     0.000 HD 
BRANCH  15  19
HETATM   19  C   UNL     1     -10.852  13.808  64.458  1.00  0.00    -0.399 A  
HETATM   20  C   UNL     1     -10.235  12.710  63.834  1.00  0.00    -0.340 A  
HETATM   21  C   UNL     1     -12.242  13.763  64.660  1.00  0.00    -0.440 A  
HETATM   22  C   UNL     1     -12.977  12.626  64.315  1.00  0.00    -0.204 A  
HETATM   23  C   UNL     1     -10.969  11.572  63.498  1.00  0.00    -0.453 A  
HETATM   24  C   UNL     1     -12.337  11.524  63.752  1.00  0.00    -0.097 A  
ENDBRANCH  15  19
ENDBRANCH  12  15
ENDBRANCH   6  11
BRANCH   7  25
HETATM   25  C   UNL     1      -7.424   9.541  69.656  1.00  0.00    -0.092 C  
HETATM   26  O   UNL     1      -8.166   9.877  70.574  1.00  0.00    -0.206 OA 
BRANCH  25  27
HETATM   27  O   UNL     1      -6.872   8.296  69.561  1.00  0.00    -0.041 OA 
BRANCH  27  28
HETATM   28  C   UNL     1      -7.188   7.418  70.646  1.00  0.00    -0.068 C  
BRANCH  28  29
HETATM   29  O   UNL     1      -7.375   6.085  70.181  1.00  0.00    -0.073 OA 
BRANCH  29  30
HETATM   30  C   UNL     1      -8.507   5.852  69.469  1.00  0.00    -0.114 C  
HETATM   31  O   UNL     1      -9.379   6.684  69.259  1.00  0.00    -0.143 OA 
BRANCH  30  32
HETATM   32  C   UNL     1      -8.545   4.406  68.928  1.00  0.00    -0.084 C  
HETATM   33  N   UNL     1      -7.441   3.641  69.530  1.00  0.00    -0.052 N  
HETATM   34  C   UNL     1      -6.107   3.714  68.876  1.00  0.00    -0.028 C  
HETATM   35  S   UNL     1      -6.531   4.398  67.260  1.00  0.00    -0.043 S  
HETATM   36  C   UNL     1      -6.003   2.199  69.066  1.00  0.00    -0.024 C  
HETATM   37  O   UNL     1      -6.154   5.801  67.240  1.00  0.00    -0.023 OA 
HETATM   38  O   UNL     1      -6.088   3.506  66.208  1.00  0.00    -0.023 OA 
HETATM   39  C   UNL     1      -8.349   4.311  67.396  1.00  0.00    -0.099 C  
HETATM   40  C   UNL     1      -7.443   2.280  69.591  1.00  0.00    -0.043 C  
HETATM   41  C   UNL     1      -9.012   5.418  66.565  1.00  0.00    -0.120 C  
HETATM   42  C   UNL     1      -8.859   2.969  66.827  1.00  0.00    -0.159 C  
HETATM   43  O   UNL     1      -8.357   1.514  69.775  1.00  0.00    -0.044 OA 
ENDBRANCH  30  32
ENDBRANCH  29  30
ENDBRANCH  28  29
ENDBRANCH  27  28
ENDBRANCH  25  27
ENDBRANCH   7  25
TORSDOF 9
ENDMDL
MODEL      233
REMARK 921   NORMALIZED FREE ENERGY PREDICTED BY IDOCK:   -4.29 KCAL/MOL
REMARK 922        TOTAL FREE ENERGY PREDICTED BY IDOCK:   -7.06 KCAL/MOL
REMARK 923 INTER-LIGAND FREE ENERGY PREDICTED BY IDOCK:   -5.89 KCAL/MOL
REMARK 924 INTRA-LIGAND FREE ENERGY PREDICTED BY IDOCK:   -1.17 KCAL/MOL
REMARK 927      BINDING AFFINITY PREDICTED BY RF-SCORE:    0.00 PKD
ROOT
HETATM    1  C   UNL     1      -9.554   5.989  68.289  1.00  0.00    -0.126 C  
HETATM    2  C   UNL     1      -8.986   4.637  67.810  1.00  0.00    -0.113 C  
HETATM    3  S   UNL     1      -9.371   3.394  69.132  1.00  0.00    -0.142 SA 
HETATM    4  C   UNL     1      -9.739   4.297  66.518  1.00  0.00    -0.236 C  
HETATM    5  C   UNL     1      -7.710   3.547  69.948  1.00  0.00    -0.047 C  
HETATM    6  C   UNL     1      -7.558   4.587  71.094  1.00  0.00    -0.071 C  
HETATM    7  C   UNL     1      -7.438   4.629  67.708  1.00  0.00    -0.077 C  
HETATM    8  C   UNL     1      -6.947   5.486  69.987  1.00  0.00    -0.061 C  
HETATM    9  O   UNL     1      -6.724   6.666  69.838  1.00  0.00    -0.047 OA 
HETATM   10  N   UNL     1      -6.946   4.465  69.083  1.00  0.00    -0.050 N  
ENDROOT
BRANCH   6  11
HETATM   11  N   UNL     1      -8.809   5.061  71.746  1.00  0.00    -0.132 N  
HETATM   12  C   UNL     1      -8.771   5.898  72.840  1.00  0.00    -0.124 C  
HETATM   13  O   UNL     1      -7.728   6.425  73.225  1.00  0.00    -0.097 OA 
HETATM   14  H   UNL     1      -9.711   4.760  71.376  1.00  0.00     0.000 HD 
BRANCH  12  15
HETATM   15  C   UNL     1     -10.122   6.097  73.564  1.00  0.00    -0.210 C  
HETATM   16  H2  UNL     1      -9.998   4.270  74.578  1.00  0.00     0.000 HD 
HETATM   17  N   UNL     1     -10.665   4.785  74.005  1.00  0.00    -0.294 NA 
HETATM   18  H1  UNL     1     -11.557   4.916  74.482  1.00  0.00     0.000 HD 
BRANCH  15  19
HETATM   19  C   UNL     1     -11.133   6.887  72.751  1.00  0.00    -0.304 A  
HETATM   20  C   UNL     1     -12.342   6.326  72.307  1.00  0.00    -0.147 A  
HETATM   21  C   UNL     1     -10.888   8.243  72.474  1.00  0.00    -0.421 A  
HETATM   22  C   UNL     1     -11.854   9.027  71.839  1.00  0.00    -0.447 A  
HETATM   23  C   UNL     1     -13.309   7.113  71.681  1.00  0.00    -0.397 A  
HETATM   24  C   UNL     1     -13.072   8.466  71.460  1.00  0.00    -0.316 A  
ENDBRANCH  15  19
ENDBRANCH  12  15
ENDBRANCH   6  11
BRANCH   7  25
HETATM   25  C   UNL     1      -6.840   3.457  66.897  1.00  0.00    -0.053 C  
HETATM   26  O   UNL     1      -6.431   2.400  67.369  1.00  0.00    -0.031 OA 
BRANCH  25  27
HETATM   27  O   UNL     1      -6.804   3.741  65.563  1.00  0.00    -0.051 OA 
BRANCH  27  28
HETATM   28  C   UNL     1      -6.296   5.039  65.242  1.00  0.00    -0.035 C  
BRANCH  28  29
HETATM   29  O   UNL     1      -7.285   5.822  64.579  1.00  0.00    -0.058 OA 
BRANCH  29  30
HETATM   30  C   UNL     1      -7.030   7.152  64.481  1.00  0.00    -0.051 C  
HETATM   31  O   UNL     1      -6.341   7.664  63.609  1.00  0.00    -0.053 OA 
BRANCH  30  32
HETATM   32  C   UNL     1      -7.744   7.946  65.596  1.00  0.00    -0.096 C  
HETATM   33  N   UNL     1      -8.652   8.926  64.979  1.00  0.00    -0.176 N  
HETATM   34  C   UNL     1      -8.086  10.243  64.580  1.00  0.00    -0.154 C  
HETATM   35  S   UNL     1      -6.523  10.256  65.483  1.00  0.00    -0.123 S  
HETATM   36  C   UNL     1      -9.331  10.890  65.191  1.00  0.00    -0.252 C  
HETATM   37  O   UNL     1      -5.447   9.980  64.546  1.00  0.00    -0.074 OA 
HETATM   38  O   UNL     1      -6.458  11.413  66.353  1.00  0.00    -0.116 OA 
HETATM   39  C   UNL     1      -6.780   8.758  66.494  1.00  0.00    -0.071 C  
HETATM   40  C   UNL     1      -9.703   9.473  65.652  1.00  0.00    -0.290 C  
HETATM   41  C   UNL     1      -5.440   8.084  66.822  1.00  0.00    -0.032 C  
HETATM   42  C   UNL     1      -7.424   9.135  67.845  1.00  0.00    -0.084 C  
HETATM   43  O   UNL     1     -10.445   8.978  66.465  1.00  0.00    -0.234 OA 
ENDBRANCH  30  32
ENDBRANCH  29  30
ENDBRANCH  28  29
ENDBRANCH  27  28
ENDBRANCH  25  27
ENDBRANCH   7  25
TORSDOF 9
ENDMDL
MODEL      234
REMARK 921   NORMALIZED FREE ENERGY PREDICTED BY IDOCK:   -4.29 KCAL/MOL
REMARK 922        TOTAL FREE ENERGY PREDICTED BY IDOCK:   -7.05 KCAL/MOL
REMARK 923 INTER-LIGAND FREE ENERGY PREDICTED BY IDOCK:   -7.67 KCAL/MOL
REMARK 924 INTRA-LIGAND FREE ENERGY PREDICTED BY IDOCK:    0.62 KCAL/MOL
REMARK 927      BINDING AFFINITY PREDICTED BY RF-SCORE:    0.00 PKD
ROOT
HETATM    1  C   UNL     1     -10.251   7.966  69.901  1.00  0.00    -0.210 C  
HETATM    2  C   UNL     1     -10.508   9.272  69.121  1.00  0.00    -0.217 C  
HETATM    3  S   UNL     1     -10.744   8.797  67.343  1.00  0.00    -0.035 SA 
HETATM    4  C   UNL     1     -11.803   9.859  69.696  1.00  0.00     0.047 C  
HETATM    5  C   UNL     1      -8.977   9.134  66.879  1.00  0.00    -0.123 C  
HETATM    6  C   UNL     1      -7.968   7.955  66.967  1.00  0.00    -0.112 C  
HETATM    7  C   UNL     1      -9.285  10.226  69.110  1.00  0.00    -0.194 C  
HETATM    8  C   UNL     1      -7.588   8.586  68.333  1.00  0.00    -0.096 C  
HETATM    9  O   UNL     1      -7.013   8.229  69.336  1.00  0.00    -0.049 OA 
HETATM   10  N   UNL     1      -8.364   9.685  68.101  1.00  0.00    -0.117 N  
ENDROOT
BRANCH   6  11
HETATM   11  N   UNL     1      -8.535   6.580  66.984  1.00  0.00    -0.112 N  
HETATM   12  C   UNL     1      -8.668   5.847  65.825  1.00  0.00    -0.151 C  
HETATM   13  O   UNL     1      -8.179   6.217  64.758  1.00  0.00    -0.137 OA 
HETATM   14  H   UNL     1      -8.831   6.172  67.871  1.00  0.00     0.000 HD 
BRANCH  12  15
HETATM   15  C   UNL     1      -9.503   4.553  65.955  1.00  0.00    -0.173 C  
HETATM   16  H2  UNL     1     -11.162   5.367  64.970  1.00  0.00     0.000 HD 
HETATM   17  N   UNL     1     -10.953   4.864  65.832  1.00  0.00    -0.809 NA 
HETATM   18  H1  UNL     1     -11.503   4.010  65.918  1.00  0.00     0.000 HD 
BRANCH  15  19
HETATM   19  C   UNL     1      -9.196   3.761  67.214  1.00  0.00    -0.208 A  
HETATM   20  C   UNL     1      -9.733   4.104  68.466  1.00  0.00    -0.148 A  
HETATM   21  C   UNL     1      -8.395   2.609  67.126  1.00  0.00    -0.096 A  
HETATM   22  C   UNL     1      -8.199   1.790  68.241  1.00  0.00    -0.071 A  
HETATM   23  C   UNL     1      -9.544   3.280  69.576  1.00  0.00    -0.127 A  
HETATM   24  C   UNL     1      -8.789   2.116  69.461  1.00  0.00    -0.140 A  
ENDBRANCH  15  19
ENDBRANCH  12  15
ENDBRANCH   6  11
BRANCH   7  25
HETATM   25  C   UNL     1      -9.589  11.678  68.676  1.00  0.00    -0.133 C  
HETATM   26  O   UNL     1      -8.773  12.466  68.208  1.00  0.00    -0.183 OA 
BRANCH  25  27
HETATM   27  O   UNL     1     -10.897  11.998  68.890  1.00  0.00    -0.220 OA 
BRANCH  27  28
HETATM   28  C   UNL     1     -11.106  13.257  69.538  1.00  0.00    -0.023 C  
BRANCH  28  29
HETATM   29  O   UNL     1     -11.977  14.084  68.772  1.00  0.00    -0.338 OA 
BRANCH  29  30
HETATM   30  C   UNL     1     -11.724  15.418  68.811  1.00  0.00    -0.351 C  
HETATM   31  O   UNL     1     -11.633  16.077  69.838  1.00  0.00    -0.324 OA 
BRANCH  30  32
HETATM   32  C   UNL     1     -11.536  15.997  67.392  1.00  0.00     0.238 C  
HETATM   33  N   UNL     1     -11.192  14.903  66.470  1.00  0.00    -0.343 N  
HETATM   34  C   UNL     1      -9.760  14.511  66.361  1.00  0.00    -0.296 C  
HETATM   35  S   UNL     1      -8.936  15.928  67.118  1.00  0.00    -0.219 S  
HETATM   36  C   UNL     1      -9.958  14.458  64.844  1.00  0.00    -0.124 C  
HETATM   37  O   UNL     1      -8.505  15.551  68.453  1.00  0.00    -0.154 OA 
HETATM   38  O   UNL     1      -7.998  16.518  66.184  1.00  0.00    -0.312 OA 
HETATM   39  C   UNL     1     -10.385  17.025  67.289  1.00  0.00    -0.311 C  
HETATM   40  C   UNL     1     -11.367  15.000  65.123  1.00  0.00    -0.372 C  
HETATM   41  C   UNL     1     -10.217  17.967  68.489  1.00  0.00    -0.392 C  
HETATM   42  C   UNL     1     -10.519  17.924  66.041  1.00  0.00    -0.293 C  
HETATM   43  O   UNL     1     -12.243  15.540  64.492  1.00  0.00    -0.239 OA 
ENDBRANCH  30  32
ENDBRANCH  29  30
ENDBRANCH  28  29
ENDBRANCH  27  28
ENDBRANCH  25  27
ENDBRANCH   7  25
TORSDOF 9
ENDMDL
MODEL      235
REMARK 921   NORMALIZED FREE ENERGY PREDICTED BY IDOCK:   -4.28 KCAL/MOL
REMARK 922        TOTAL FREE ENERGY PREDICTED BY IDOCK:   -7.04 KCAL/MOL
REMARK 923 INTER-LIGAND FREE ENERGY PREDICTED BY IDOCK:   -6.81 KCAL/MOL
REMARK 924 INTRA-LIGAND FREE ENERGY PREDICTED BY IDOCK:   -0.24 KCAL/MOL
REMARK 927      BINDING AFFINITY PREDICTED BY RF-SCORE:    0.00 PKD
ROOT
HETATM    1  C   UNL     1      -9.580   7.168  71.723  1.00  0.00    -0.161 C  
HETATM    2  C   UNL     1      -9.312   7.627  70.275  1.00  0.00    -0.157 C  
HETATM    3  S   UNL     1      -8.701   6.142  69.345  1.00  0.00    -0.123 SA 
HETATM    4  C   UNL     1     -10.665   8.089  69.720  1.00  0.00    -0.231 C  
HETATM    5  C   UNL     1      -6.908   6.569  69.574  1.00  0.00    -0.065 C  
HETATM    6  C   UNL     1      -6.176   5.982  70.814  1.00  0.00    -0.038 C  
HETATM    7  C   UNL     1      -8.155   8.656  70.167  1.00  0.00    -0.113 C  
HETATM    8  C   UNL     1      -6.448   7.376  71.439  1.00  0.00    -0.036 C  
HETATM    9  O   UNL     1      -6.463   7.852  72.552  1.00  0.00    -0.059 OA 
HETATM   10  N   UNL     1      -6.914   7.875  70.258  1.00  0.00    -0.048 N  
ENDROOT
BRANCH   6  11
HETATM   11  N   UNL     1      -6.802   4.805  71.473  1.00  0.00    -0.041 N  
HETATM   12  C   UNL     1      -6.235   4.224  72.588  1.00  0.00    -0.017 C  
HETATM   13  O   UNL     1      -5.293   4.742  73.186  1.00  0.00    -0.008 OA 
HETATM   14  H   UNL     1      -7.666   4.419  71.093  1.00  0.00     0.000 HD 
BRANCH  12  15
HETATM   15  C   UNL     1      -6.844   2.867  73.005  1.00  0.00    -0.027 C  
HETATM   16  H2  UNL     1      -5.364   1.753  72.028  1.00  0.00     0.000 HD 
HETATM   17  N   UNL     1      -6.381   1.793  72.086  1.00  0.00    -0.013 NA 
HETATM   18  H1  UNL     1      -6.783   0.898  72.361  1.00  0.00     0.000 HD 
BRANCH  15  19
HETATM   19  C   UNL     1      -8.357   2.896  73.130  1.00  0.00    -0.075 A  
HETATM   20  C   UNL     1      -9.188   2.036  72.392  1.00  0.00    -0.121 A  
HETATM   21  C   UNL     1      -8.956   3.769  74.054  1.00  0.00    -0.089 A  
HETATM   22  C   UNL     1     -10.334   3.730  74.283  1.00  0.00    -0.256 A  
HETATM   23  C   UNL     1     -10.562   1.992  72.628  1.00  0.00    -0.206 A  
HETATM   24  C   UNL     1     -11.134   2.828  73.583  1.00  0.00    -0.320 A  
ENDBRANCH  15  19
ENDBRANCH  12  15
ENDBRANCH   6  11
BRANCH   7  25
HETATM   25  C   UNL     1      -8.081   9.422  68.827  1.00  0.00    -0.103 C  
HETATM   26  O   UNL     1      -7.597   8.988  67.785  1.00  0.00    -0.091 OA 
BRANCH  25  27
HETATM   27  O   UNL     1      -8.616  10.672  68.936  1.00  0.00    -0.145 OA 
BRANCH  27  28
HETATM   28  C   UNL     1      -9.183  11.188  67.729  1.00  0.00    -0.153 C  
BRANCH  28  29
HETATM   29  O   UNL     1      -8.311  12.138  67.123  1.00  0.00    -0.170 OA 
BRANCH  29  30
HETATM   30  C   UNL     1      -8.428  13.419  67.557  1.00  0.00    -0.192 C  
HETATM   31  O   UNL     1      -7.495  14.109  67.945  1.00  0.00    -0.119 OA 
BRANCH  30  32
HETATM   32  C   UNL     1      -9.890  13.912  67.472  1.00  0.00    -0.236 C  
HETATM   33  N   UNL     1     -10.237  14.139  66.060  1.00  0.00    -0.297 N  
HETATM   34  C   UNL     1      -9.893  15.458  65.463  1.00  0.00    -0.324 C  
HETATM   35  S   UNL     1      -9.576  16.452  66.937  1.00  0.00    -0.254 S  
HETATM   36  C   UNL     1     -11.282  15.457  64.822  1.00  0.00    -0.404 C  
HETATM   37  O   UNL     1      -8.139  16.613  67.084  1.00  0.00    -0.163 OA 
HETATM   38  O   UNL     1     -10.448  17.609  66.957  1.00  0.00    -0.336 OA 
HETATM   39  C   UNL     1     -10.135  15.256  68.198  1.00  0.00    -0.229 C  
HETATM   40  C   UNL     1     -11.525  14.168  65.620  1.00  0.00    -0.325 C  
HETATM   41  C   UNL     1      -9.373  15.457  69.515  1.00  0.00    -0.252 C  
HETATM   42  C   UNL     1     -11.629  15.481  68.515  1.00  0.00    -0.379 C  
HETATM   43  O   UNL     1     -12.479  13.517  65.971  1.00  0.00    -0.432 OA 
ENDBRANCH  30  32
ENDBRANCH  29  30
ENDBRANCH  28  29
ENDBRANCH  27  28
ENDBRANCH  25  27
ENDBRANCH   7  25
TORSDOF 9
ENDMDL
MODEL      236
REMARK 921   NORMALIZED FREE ENERGY PREDICTED BY IDOCK:   -4.27 KCAL/MOL
REMARK 922        TOTAL FREE ENERGY PREDICTED BY IDOCK:   -7.03 KCAL/MOL
REMARK 923 INTER-LIGAND FREE ENERGY PREDICTED BY IDOCK:   -7.85 KCAL/MOL
REMARK 924 INTRA-LIGAND FREE ENERGY PREDICTED BY IDOCK:    0.82 KCAL/MOL
REMARK 927      BINDING AFFINITY PREDICTED BY RF-SCORE:    0.00 PKD
ROOT
HETATM    1  C   UNL     1      -9.496   7.126  68.778  1.00  0.00    -0.141 C  
HETATM    2  C   UNL     1      -8.352   8.017  69.305  1.00  0.00    -0.134 C  
HETATM    3  S   UNL     1      -7.837   7.316  70.944  1.00  0.00    -0.094 SA 
HETATM    4  C   UNL     1      -7.213   7.890  68.285  1.00  0.00    -0.090 C  
HETATM    5  C   UNL     1      -8.896   8.482  71.927  1.00  0.00    -0.216 C  
HETATM    6  C   UNL     1     -10.338   8.025  72.285  1.00  0.00    -0.271 C  
HETATM    7  C   UNL     1      -8.807   9.465  69.627  1.00  0.00    -0.172 C  
HETATM    8  C   UNL     1     -10.749   8.894  71.067  1.00  0.00    -0.247 C  
HETATM    9  O   UNL     1     -11.715   8.994  70.345  1.00  0.00    -0.198 OA 
HETATM   10  N   UNL     1      -9.486   9.392  70.928  1.00  0.00    -0.246 N  
ENDROOT
BRANCH   6  11
HETATM   11  N   UNL     1     -10.623   6.567  72.211  1.00  0.00    -0.207 N  
HETATM   12  C   UNL     1     -10.436   5.746  73.302  1.00  0.00    -0.233 C  
HETATM   13  O   UNL     1     -10.191   6.193  74.422  1.00  0.00    -0.303 OA 
HETATM   14  H   UNL     1     -10.962   6.167  71.336  1.00  0.00     0.000 HD 
BRANCH  12  15
HETATM   15  C   UNL     1     -10.521   4.231  73.009  1.00  0.00    -0.180 C  
HETATM   16  H2  UNL     1     -12.358   4.011  73.991  1.00  0.00     0.000 HD 
HETATM   17  N   UNL     1     -11.437   3.572  73.979  1.00  0.00     0.152 NA 
HETATM   18  H1  UNL     1     -11.493   2.573  73.785  1.00  0.00     0.000 HD 
BRANCH  15  19
HETATM   19  C   UNL     1      -9.166   3.550  72.953  1.00  0.00    -0.125 A  
HETATM   20  C   UNL     1      -7.981   4.204  73.332  1.00  0.00    -0.089 A  
HETATM   21  C   UNL     1      -9.087   2.201  72.566  1.00  0.00    -0.108 A  
HETATM   22  C   UNL     1      -7.873   1.512  72.626  1.00  0.00    -0.044 A  
HETATM   23  C   UNL     1      -6.771   3.511  73.399  1.00  0.00    -0.035 A  
HETATM   24  C   UNL     1      -6.720   2.162  73.061  1.00  0.00    -0.022 A  
ENDBRANCH  15  19
ENDBRANCH  12  15
ENDBRANCH   6  11
BRANCH   7  25
HETATM   25  C   UNL     1      -7.662  10.489  69.800  1.00  0.00    -0.067 C  
HETATM   26  O   UNL     1      -6.770  10.425  70.641  1.00  0.00    -0.313 OA 
BRANCH  25  27
HETATM   27  O   UNL     1      -7.763  11.507  68.897  1.00  0.00    -0.132 OA 
BRANCH  27  28
HETATM   28  C   UNL     1      -9.092  11.997  68.695  1.00  0.00    -0.025 C  
BRANCH  28  29
HETATM   29  O   UNL     1      -9.657  11.457  67.504  1.00  0.00    -0.165 OA 
BRANCH  29  30
HETATM   30  C   UNL     1      -9.215  11.991  66.336  1.00  0.00    -0.216 C  
HETATM   31  O   UNL     1      -8.563  11.383  65.498  1.00  0.00    -0.060 OA 
BRANCH  30  32
HETATM   32  C   UNL     1      -9.663  13.461  66.184  1.00  0.00    -0.250 C  
HETATM   33  N   UNL     1     -10.292  13.902  67.439  1.00  0.00    -0.251 N  
HETATM   34  C   UNL     1     -11.740  13.614  67.629  1.00  0.00    -0.363 C  
HETATM   35  S   UNL     1     -12.256  13.215  65.946  1.00  0.00    -0.405 S  
HETATM   36  C   UNL     1     -11.887  15.042  68.159  1.00  0.00    -0.286 C  
HETATM   37  O   UNL     1     -12.411  11.774  65.841  1.00  0.00    -0.165 OA 
HETATM   38  O   UNL     1     -13.325  14.099  65.527  1.00  0.00    -0.656 OA 
HETATM   39  C   UNL     1     -10.719  13.675  65.074  1.00  0.00    -0.367 C  
HETATM   40  C   UNL     1     -10.411  15.217  67.774  1.00  0.00    -0.247 C  
HETATM   41  C   UNL     1     -10.540  12.832  63.804  1.00  0.00    -0.370 C  
HETATM   42  C   UNL     1     -10.791  15.148  64.617  1.00  0.00    -0.285 C  
HETATM   43  O   UNL     1      -9.655  16.137  67.581  1.00  0.00    -0.221 OA 
ENDBRANCH  30  32
ENDBRANCH  29  30
ENDBRANCH  28  29
ENDBRANCH  27  28
ENDBRANCH  25  27
ENDBRANCH   7  25
TORSDOF 9
ENDMDL
MODEL      237
REMARK 921   NORMALIZED FREE ENERGY PREDICTED BY IDOCK:   -4.26 KCAL/MOL
REMARK 922        TOTAL FREE ENERGY PREDICTED BY IDOCK:   -7.01 KCAL/MOL
REMARK 923 INTER-LIGAND FREE ENERGY PREDICTED BY IDOCK:   -6.58 KCAL/MOL
REMARK 924 INTRA-LIGAND FREE ENERGY PREDICTED BY IDOCK:   -0.43 KCAL/MOL
REMARK 927      BINDING AFFINITY PREDICTED BY RF-SCORE:    0.00 PKD
ROOT
HETATM    1  C   UNL     1      -7.876   7.598  66.318  1.00  0.00    -0.091 C  
HETATM    2  C   UNL     1      -7.319   7.708  67.752  1.00  0.00    -0.099 C  
HETATM    3  S   UNL     1      -6.918   5.983  68.305  1.00  0.00    -0.078 SA 
HETATM    4  C   UNL     1      -6.041   8.548  67.647  1.00  0.00    -0.048 C  
HETATM    5  C   UNL     1      -8.533   5.746  69.192  1.00  0.00    -0.107 C  
HETATM    6  C   UNL     1      -9.712   5.121  68.394  1.00  0.00    -0.147 C  
HETATM    7  C   UNL     1      -8.371   8.209  68.777  1.00  0.00    -0.126 C  
HETATM    8  C   UNL     1     -10.175   6.593  68.226  1.00  0.00    -0.171 C  
HETATM    9  O   UNL     1     -10.928   7.198  67.499  1.00  0.00    -0.244 OA 
HETATM   10  N   UNL     1      -9.217   7.048  69.085  1.00  0.00    -0.139 N  
ENDROOT
BRANCH   6  11
HETATM   11  N   UNL     1      -9.368   4.368  67.159  1.00  0.00    -0.143 N  
HETATM   12  C   UNL     1      -9.300   2.991  67.157  1.00  0.00    -0.145 C  
HETATM   13  O   UNL     1      -9.678   2.316  68.114  1.00  0.00    -0.145 OA 
HETATM   14  H   UNL     1      -9.178   4.879  66.297  1.00  0.00     0.000 HD 
BRANCH  12  15
HETATM   15  C   UNL     1      -8.684   2.364  65.886  1.00  0.00    -0.122 C  
HETATM   16  H2  UNL     1      -6.746   2.338  66.678  1.00  0.00     0.000 HD 
HETATM   17  N   UNL     1      -7.224   2.644  65.832  1.00  0.00    -0.064 NA 
HETATM   18  H1  UNL     1      -6.818   2.230  64.993  1.00  0.00     0.000 HD 
BRANCH  15  19
HETATM   19  C   UNL     1      -9.391   2.775  64.606  1.00  0.00    -0.147 A  
HETATM   20  C   UNL     1     -10.433   2.016  64.048  1.00  0.00     0.119 A  
HETATM   21  C   UNL     1      -9.038   3.983  63.981  1.00  0.00    -0.139 A  
HETATM   22  C   UNL     1      -9.754   4.449  62.875  1.00  0.00    -0.044 A  
HETATM   23  C   UNL     1     -11.153   2.487  62.949  1.00  0.00    -0.179 A  
HETATM   24  C   UNL     1     -10.823   3.711  62.372  1.00  0.00    -0.138 A  
ENDBRANCH  15  19
ENDBRANCH  12  15
ENDBRANCH   6  11
BRANCH   7  25
HETATM   25  C   UNL     1      -7.794   8.688  70.129  1.00  0.00    -0.098 C  
HETATM   26  O   UNL     1      -7.264   7.969  70.971  1.00  0.00    -0.051 OA 
BRANCH  25  27
HETATM   27  O   UNL     1      -7.955  10.033  70.292  1.00  0.00    -0.170 OA 
BRANCH  27  28
HETATM   28  C   UNL     1      -8.449  10.720  69.138  1.00  0.00    -0.097 C  
BRANCH  28  29
HETATM   29  O   UNL     1      -7.677  11.887  68.872  1.00  0.00    -0.105 OA 
BRANCH  29  30
HETATM   30  C   UNL     1      -8.147  12.707  67.898  1.00  0.00    -0.165 C  
HETATM   31  O   UNL     1      -7.475  13.141  66.972  1.00  0.00    -0.029 OA 
BRANCH  30  32
HETATM   32  C   UNL     1      -9.650  13.004  68.089  1.00  0.00    -0.227 C  
HETATM   33  N   UNL     1     -10.370  12.639  66.857  1.00  0.00    -0.232 N  
HETATM   34  C   UNL     1     -10.439  13.651  65.768  1.00  0.00    -0.293 C  
HETATM   35  S   UNL     1      -9.965  15.159  66.641  1.00  0.00    -0.262 S  
HETATM   36  C   UNL     1     -11.917  13.286  65.612  1.00  0.00    -0.455 C  
HETATM   37  O   UNL     1      -8.594  15.484  66.288  1.00  0.00    -0.291 OA 
HETATM   38  O   UNL     1     -11.010  16.156  66.519  1.00  0.00    -0.205 OA 
HETATM   39  C   UNL     1      -9.960  14.498  68.343  1.00  0.00    -0.241 C  
HETATM   40  C   UNL     1     -11.708  12.388  66.840  1.00  0.00    -0.362 C  
HETATM   41  C   UNL     1      -8.952  15.254  69.218  1.00  0.00    -0.241 C  
HETATM   42  C   UNL     1     -11.346  14.701  68.993  1.00  0.00    -0.299 C  
HETATM   43  O   UNL     1     -12.405  11.845  67.662  1.00  0.00    -0.357 OA 
ENDBRANCH  30  32
ENDBRANCH  29  30
ENDBRANCH  28  29
ENDBRANCH  27  28
ENDBRANCH  25  27
ENDBRANCH   7  25
TORSDOF 9
ENDMDL
MODEL      238
REMARK 921   NORMALIZED FREE ENERGY PREDICTED BY IDOCK:   -4.26 KCAL/MOL
REMARK 922        TOTAL FREE ENERGY PREDICTED BY IDOCK:   -7.00 KCAL/MOL
REMARK 923 INTER-LIGAND FREE ENERGY PREDICTED BY IDOCK:   -7.33 KCAL/MOL
REMARK 924 INTRA-LIGAND FREE ENERGY PREDICTED BY IDOCK:    0.33 KCAL/MOL
REMARK 927      BINDING AFFINITY PREDICTED BY RF-SCORE:    0.00 PKD
ROOT
HETATM    1  C   UNL     1     -11.970  12.173  65.208  1.00  0.00    -0.313 C  
HETATM    2  C   UNL     1     -11.259  13.514  65.486  1.00  0.00    -0.292 C  
HETATM    3  S   UNL     1      -9.456  13.132  65.700  1.00  0.00     0.225 SA 
HETATM    4  C   UNL     1     -11.480  14.377  64.237  1.00  0.00    -0.226 C  
HETATM    5  C   UNL     1      -9.554  13.058  67.553  1.00  0.00    -0.204 C  
HETATM    6  C   UNL     1      -9.834  11.676  68.210  1.00  0.00    -0.199 C  
HETATM    7  C   UNL     1     -11.682  14.160  66.832  1.00  0.00    -0.414 C  
HETATM    8  C   UNL     1     -11.298  12.184  68.288  1.00  0.00    -0.289 C  
HETATM    9  O   UNL     1     -12.392  11.691  68.442  1.00  0.00    -0.417 OA 
HETATM   10  N   UNL     1     -10.943  13.435  67.874  1.00  0.00    -0.249 N  
ENDROOT
BRANCH   6  11
HETATM   11  N   UNL     1      -9.573  10.470  67.380  1.00  0.00    -0.157 N  
HETATM   12  C   UNL     1      -9.680   9.201  67.910  1.00  0.00    -0.154 C  
HETATM   13  O   UNL     1     -10.153   8.998  69.028  1.00  0.00    -0.184 OA 
HETATM   14  H   UNL     1      -9.310  10.582  66.401  1.00  0.00     0.000 HD 
BRANCH  12  15
HETATM   15  C   UNL     1      -9.134   8.066  67.016  1.00  0.00    -0.144 C  
HETATM   16  H2  UNL     1      -8.506   6.908  68.644  1.00  0.00     0.000 HD 
HETATM   17  N   UNL     1      -8.130   7.262  67.765  1.00  0.00    -0.114 NA 
HETATM   18  H1  UNL     1      -7.770   6.513  67.175  1.00  0.00     0.000 HD 
BRANCH  15  19
HETATM   19  C   UNL     1      -8.593   8.553  65.683  1.00  0.00    -0.200 A  
HETATM   20  C   UNL     1      -9.391   8.619  64.529  1.00  0.00     0.733 A  
HETATM   21  C   UNL     1      -7.267   9.010  65.602  1.00  0.00    -0.085 A  
HETATM   22  C   UNL     1      -6.780   9.581  64.423  1.00  0.00    -0.100 A  
HETATM   23  C   UNL     1      -8.906   9.198  63.355  1.00  0.00    -0.088 A  
HETATM   24  C   UNL     1      -7.606   9.692  63.307  1.00  0.00    -0.119 A  
ENDBRANCH  15  19
ENDBRANCH  12  15
ENDBRANCH   6  11
BRANCH   7  25
HETATM   25  C   UNL     1     -11.300  15.649  66.994  1.00  0.00    -0.051 C  
HETATM   26  O   UNL     1     -10.842  16.366  66.109  1.00  0.00    -0.213 OA 
BRANCH  25  27
HETATM   27  O   UNL     1     -11.523  16.086  68.267  1.00  0.00    -0.355 OA 
BRANCH  27  28
HETATM   28  C   UNL     1     -10.342  16.451  68.988  1.00  0.00    -0.278 C  
BRANCH  28  29
HETATM   29  O   UNL     1     -10.368  17.832  69.338  1.00  0.00    -0.253 OA 
BRANCH  29  30
HETATM   30  C   UNL     1      -9.688  18.671  68.516  1.00  0.00    -0.370 C  
HETATM   31  O   UNL     1      -9.949  19.857  68.363  1.00  0.00    -0.408 OA 
BRANCH  30  32
HETATM   32  C   UNL     1      -8.518  17.946  67.814  1.00  0.00    -0.242 C  
HETATM   33  N   UNL     1      -7.582  17.449  68.835  1.00  0.00    -0.251 N  
HETATM   34  C   UNL     1      -6.536  18.383  69.333  1.00  0.00    -0.209 C  
HETATM   35  S   UNL     1      -6.574  19.676  68.074  1.00  0.00    -0.255 S  
HETATM   36  C   UNL     1      -5.540  17.226  69.216  1.00  0.00    -0.180 C  
HETATM   37  O   UNL     1      -7.271  20.829  68.619  1.00  0.00     0.080 OA 
HETATM   38  O   UNL     1      -5.264  19.829  67.473  1.00  0.00    -0.168 OA 
HETATM   39  C   UNL     1      -7.691  18.862  66.881  1.00  0.00    -0.239 C  
HETATM   40  C   UNL     1      -6.701  16.440  68.588  1.00  0.00    -0.145 C  
HETATM   41  C   UNL     1      -8.488  19.903  66.082  1.00  0.00    -0.350 C  
HETATM   42  C   UNL     1      -6.870  18.055  65.853  1.00  0.00    -0.332 C  
HETATM   43  O   UNL     1      -6.828  15.447  67.915  1.00  0.00    -0.121 OA 
ENDBRANCH  30  32
ENDBRANCH  29  30
ENDBRANCH  28  29
ENDBRANCH  27  28
ENDBRANCH  25  27
ENDBRANCH   7  25
TORSDOF 9
ENDMDL
MODEL      239
REMARK 921   NORMALIZED FREE ENERGY PREDICTED BY IDOCK:   -4.25 KCAL/MOL
REMARK 922        TOTAL FREE ENERGY PREDICTED BY IDOCK:   -6.99 KCAL/MOL
REMARK 923 INTER-LIGAND FREE ENERGY PREDICTED BY IDOCK:   -5.77 KCAL/MOL
REMARK 924 INTRA-LIGAND FREE ENERGY PREDICTED BY IDOCK:   -1.22 KCAL/MOL
REMARK 927      BINDING AFFINITY PREDICTED BY RF-SCORE:    0.00 PKD
ROOT
HETATM    1  C   UNL     1      -6.345   9.639  65.262  1.00  0.00    -0.081 C  
HETATM    2  C   UNL     1      -7.293   8.430  65.117  1.00  0.00    -0.081 C  
HETATM    3  S   UNL     1      -9.024   9.089  65.222  1.00  0.00    -0.148 SA 
HETATM    4  C   UNL     1      -7.024   7.846  63.725  1.00  0.00    -0.071 C  
HETATM    5  C   UNL     1      -9.198   8.723  67.034  1.00  0.00    -0.142 C  
HETATM    6  C   UNL     1      -8.806   9.842  68.040  1.00  0.00    -0.119 C  
HETATM    7  C   UNL     1      -7.186   7.428  66.298  1.00  0.00    -0.078 C  
HETATM    8  C   UNL     1      -7.470   9.061  68.149  1.00  0.00    -0.084 C  
HETATM    9  O   UNL     1      -6.348   9.291  68.540  1.00  0.00    -0.052 OA 
HETATM   10  N   UNL     1      -7.951   8.026  67.401  1.00  0.00    -0.120 N  
ENDROOT
BRANCH   6  11
HETATM   11  N   UNL     1      -8.745  11.231  67.514  1.00  0.00    -0.136 N  
HETATM   12  C   UNL     1      -9.788  12.113  67.700  1.00  0.00    -0.194 C  
HETATM   13  O   UNL     1     -10.735  11.857  68.442  1.00  0.00    -0.202 OA 
HETATM   14  H   UNL     1      -7.915  11.538  67.006  1.00  0.00     0.000 HD 
BRANCH  12  15
HETATM   15  C   UNL     1      -9.697  13.423  66.885  1.00  0.00    -0.253 C  
HETATM   16  H2  UNL     1      -9.095  14.563  68.535  1.00  0.00     0.000 HD 
HETATM   17  N   UNL     1      -9.791  14.599  67.792  1.00  0.00    -0.214 NA 
HETATM   18  H1  UNL     1      -9.731  15.463  67.254  1.00  0.00     0.000 HD 
BRANCH  15  19
HETATM   19  C   UNL     1     -10.701  13.498  65.749  1.00  0.00    -0.278 A  
HETATM   20  C   UNL     1     -11.331  14.700  65.382  1.00  0.00    -0.344 A  
HETATM   21  C   UNL     1     -10.975  12.346  64.992  1.00  0.00    -0.336 A  
HETATM   22  C   UNL     1     -11.797  12.412  63.864  1.00  0.00    -0.551 A  
HETATM   23  C   UNL     1     -12.144  14.766  64.250  1.00  0.00    -0.415 A  
HETATM   24  C   UNL     1     -12.365  13.626  63.483  1.00  0.00    -0.265 A  
ENDBRANCH  15  19
ENDBRANCH  12  15
ENDBRANCH   6  11
BRANCH   7  25
HETATM   25  C   UNL     1      -7.819   6.042  66.041  1.00  0.00    -0.105 C  
HETATM   26  O   UNL     1      -7.972   5.522  64.940  1.00  0.00    -0.101 OA 
BRANCH  25  27
HETATM   27  O   UNL     1      -8.210   5.449  67.206  1.00  0.00    -0.104 OA 
BRANCH  27  28
HETATM   28  C   UNL     1      -7.264   4.527  67.755  1.00  0.00    -0.065 C  
BRANCH  28  29
HETATM   29  O   UNL     1      -7.383   4.461  69.173  1.00  0.00    -0.054 OA 
BRANCH  29  30
HETATM   30  C   UNL     1      -6.731   5.423  69.874  1.00  0.00    -0.051 C  
HETATM   31  O   UNL     1      -5.546   5.699  69.738  1.00  0.00    -0.007 OA 
BRANCH  30  32
HETATM   32  C   UNL     1      -7.681   6.150  70.852  1.00  0.00    -0.098 C  
HETATM   33  N   UNL     1      -7.012   7.359  71.359  1.00  0.00    -0.054 N  
HETATM   34  C   UNL     1      -6.116   7.214  72.539  1.00  0.00    -0.041 C  
HETATM   35  S   UNL     1      -6.603   5.594  73.169  1.00  0.00    -0.070 S  
HETATM   36  C   UNL     1      -6.761   8.483  73.102  1.00  0.00    -0.074 C  
HETATM   37  O   UNL     1      -5.582   4.629  72.800  1.00  0.00    -0.007 OA 
HETATM   38  O   UNL     1      -7.043   5.704  74.545  1.00  0.00    -0.084 OA 
HETATM   39  C   UNL     1      -8.053   5.309  72.096  1.00  0.00    -0.114 C  
HETATM   40  C   UNL     1      -7.701   8.407  71.890  1.00  0.00    -0.121 C  
HETATM   41  C   UNL     1      -8.265   3.808  71.853  1.00  0.00    -0.075 C  
HETATM   42  C   UNL     1      -9.333   5.828  72.786  1.00  0.00    -0.149 C  
HETATM   43  O   UNL     1      -8.769   8.872  71.574  1.00  0.00    -0.228 OA 
ENDBRANCH  30  32
ENDBRANCH  29  30
ENDBRANCH  28  29
ENDBRANCH  27  28
ENDBRANCH  25  27
ENDBRANCH   7  25
TORSDOF 9
ENDMDL
MODEL      240
REMARK 921   NORMALIZED FREE ENERGY PREDICTED BY IDOCK:   -4.23 KCAL/MOL
REMARK 922        TOTAL FREE ENERGY PREDICTED BY IDOCK:   -6.97 KCAL/MOL
REMARK 923 INTER-LIGAND FREE ENERGY PREDICTED BY IDOCK:   -6.68 KCAL/MOL
REMARK 924 INTRA-LIGAND FREE ENERGY PREDICTED BY IDOCK:   -0.29 KCAL/MOL
REMARK 927      BINDING AFFINITY PREDICTED BY RF-SCORE:    0.00 PKD
ROOT
HETATM    1  C   UNL     1     -11.451   6.645  69.687  1.00  0.00    -0.358 C  
HETATM    2  C   UNL     1     -10.645   7.920  69.361  1.00  0.00    -0.205 C  
HETATM    3  S   UNL     1      -8.970   7.707  70.131  1.00  0.00    -0.146 SA 
HETATM    4  C   UNL     1     -10.531   7.968  67.833  1.00  0.00    -0.259 C  
HETATM    5  C   UNL     1      -9.409   8.650  71.670  1.00  0.00    -0.263 C  
HETATM    6  C   UNL     1      -9.968   7.846  72.878  1.00  0.00    -0.294 C  
HETATM    7  C   UNL     1     -11.222   9.194  70.033  1.00  0.00    -0.150 C  
HETATM    8  C   UNL     1     -11.350   8.321  72.355  1.00  0.00    -0.388 C  
HETATM    9  O   UNL     1     -12.505   7.994  72.505  1.00  0.00    -0.260 OA 
HETATM   10  N   UNL     1     -10.777   9.146  71.432  1.00  0.00    -0.318 N  
ENDROOT
BRANCH   6  11
HETATM   11  N   UNL     1      -9.710   6.381  72.891  1.00  0.00    -0.157 N  
HETATM   12  C   UNL     1      -8.592   5.858  73.506  1.00  0.00    -0.119 C  
HETATM   13  O   UNL     1      -7.851   6.544  74.208  1.00  0.00    -0.103 OA 
HETATM   14  H   UNL     1     -10.372   5.751  72.438  1.00  0.00     0.000 HD 
BRANCH  12  15
HETATM   15  C   UNL     1      -8.322   4.363  73.220  1.00  0.00    -0.095 C  
HETATM   16  H2  UNL     1      -6.995   4.160  74.827  1.00  0.00     0.000 HD 
HETATM   17  N   UNL     1      -7.030   3.950  73.830  1.00  0.00    -0.057 NA 
HETATM   18  H1  UNL     1      -6.852   2.964  73.641  1.00  0.00     0.000 HD 
BRANCH  15  19
HETATM   19  C   UNL     1      -8.395   4.007  71.746  1.00  0.00    -0.098 A  
HETATM   20  C   UNL     1      -7.379   4.354  70.839  1.00  0.00    -0.048 A  
HETATM   21  C   UNL     1      -9.484   3.256  71.270  1.00  0.00    -0.222 A  
HETATM   22  C   UNL     1      -9.516   2.806  69.948  1.00  0.00    -0.161 A  
HETATM   23  C   UNL     1      -7.409   3.896  69.521  1.00  0.00    -0.053 A  
HETATM   24  C   UNL     1      -8.470   3.110  69.080  1.00  0.00    -0.095 A  
ENDBRANCH  15  19
ENDBRANCH  12  15
ENDBRANCH   6  11
BRANCH   7  25
HETATM   25  C   UNL     1     -10.698  10.531  69.462  1.00  0.00    -0.255 C  
HETATM   26  O   UNL     1      -9.537  10.759  69.134  1.00  0.00    -0.204 OA 
BRANCH  25  27
HETATM   27  O   UNL     1     -11.693  11.460  69.373  1.00  0.00    -0.277 OA 
BRANCH  27  28
HETATM   28  C   UNL     1     -11.463  12.657  70.122  1.00  0.00     0.078 C  
BRANCH  28  29
HETATM   29  O   UNL     1     -12.269  13.725  69.634  1.00  0.00    -0.332 OA 
BRANCH  29  30
HETATM   30  C   UNL     1     -11.609  14.844  69.243  1.00  0.00    -0.306 C  
HETATM   31  O   UNL     1     -11.368  15.798  69.972  1.00  0.00    -0.293 OA 
BRANCH  30  32
HETATM   32  C   UNL     1     -11.171  14.754  67.765  1.00  0.00    -0.313 C  
HETATM   33  N   UNL     1     -10.001  13.866  67.666  1.00  0.00    -0.234 N  
HETATM   34  C   UNL     1      -8.656  14.460  67.894  1.00  0.00    -0.165 C  
HETATM   35  S   UNL     1      -9.008  16.224  67.749  1.00  0.00    -0.194 S  
HETATM   36  C   UNL     1      -8.172  13.670  66.676  1.00  0.00     0.358 C  
HETATM   37  O   UNL     1      -9.030  16.802  69.082  1.00  0.00    -0.226 OA 
HETATM   38  O   UNL     1      -8.189  16.814  66.708  1.00  0.00    -0.190 OA 
HETATM   39  C   UNL     1     -10.734  16.110  67.163  1.00  0.00    -0.262 C  
HETATM   40  C   UNL     1      -9.641  13.259  66.501  1.00  0.00    -0.264 C  
HETATM   41  C   UNL     1     -11.544  17.335  67.610  1.00  0.00     0.839 C  
HETATM   42  C   UNL     1     -10.769  16.099  65.620  1.00  0.00    -0.321 C  
HETATM   43  O   UNL     1     -10.329  12.804  65.619  1.00  0.00    -0.271 OA 
ENDBRANCH  30  32
ENDBRANCH  29  30
ENDBRANCH  28  29
ENDBRANCH  27  28
ENDBRANCH  25  27
ENDBRANCH   7  25
TORSDOF 9
ENDMDL
MODEL      241
REMARK 921   NORMALIZED FREE ENERGY PREDICTED BY IDOCK:   -4.23 KCAL/MOL
REMARK 922        TOTAL FREE ENERGY PREDICTED BY IDOCK:   -6.96 KCAL/MOL
REMARK 923 INTER-LIGAND FREE ENERGY PREDICTED BY IDOCK:   -7.97 KCAL/MOL
REMARK 924 INTRA-LIGAND FREE ENERGY PREDICTED BY IDOCK:    1.01 KCAL/MOL
REMARK 927      BINDING AFFINITY PREDICTED BY RF-SCORE:    0.00 PKD
ROOT
HETATM    1  C   UNL     1      -9.238   8.324  70.494  1.00  0.00    -0.160 C  
HETATM    2  C   UNL     1     -10.024   9.287  69.581  1.00  0.00    -0.191 C  
HETATM    3  S   UNL     1     -10.747   8.261  68.215  1.00  0.00     0.065 SA 
HETATM    4  C   UNL     1     -11.137   9.881  70.452  1.00  0.00    -0.382 C  
HETATM    5  C   UNL     1      -9.366   8.624  67.028  1.00  0.00    -0.159 C  
HETATM    6  C   UNL     1      -8.157   7.647  67.002  1.00  0.00    -0.117 C  
HETATM    7  C   UNL     1      -9.117  10.316  68.856  1.00  0.00    -0.168 C  
HETATM    8  C   UNL     1      -7.478   8.708  67.907  1.00  0.00    -0.097 C  
HETATM    9  O   UNL     1      -6.531   8.745  68.659  1.00  0.00    -0.052 OA 
HETATM   10  N   UNL     1      -8.504   9.590  67.735  1.00  0.00    -0.119 N  
ENDROOT
BRANCH   6  11
HETATM   11  N   UNL     1      -8.371   6.293  67.580  1.00  0.00    -0.113 N  
HETATM   12  C   UNL     1      -7.726   5.187  67.068  1.00  0.00    -0.092 C  
HETATM   13  O   UNL     1      -6.828   5.283  66.232  1.00  0.00    -0.056 OA 
HETATM   14  H   UNL     1      -9.007   6.180  68.369  1.00  0.00     0.000 HD 
BRANCH  12  15
HETATM   15  C   UNL     1      -8.236   3.826  67.591  1.00  0.00    -0.089 C  
HETATM   16  H2  UNL     1      -9.731   3.676  66.132  1.00  0.00     0.000 HD 
HETATM   17  N   UNL     1      -9.637   3.597  67.144  1.00  0.00    -0.291 NA 
HETATM   18  H1  UNL     1      -9.973   2.699  67.490  1.00  0.00     0.000 HD 
BRANCH  15  19
HETATM   19  C   UNL     1      -8.084   3.661  69.093  1.00  0.00    -0.066 A  
HETATM   20  C   UNL     1      -6.829   3.659  69.724  1.00  0.00    -0.037 A  
HETATM   21  C   UNL     1      -9.233   3.562  69.897  1.00  0.00    -0.217 A  
HETATM   22  C   UNL     1      -9.129   3.537  71.290  1.00  0.00    -0.180 A  
HETATM   23  C   UNL     1      -6.727   3.642  71.116  1.00  0.00    -0.031 A  
HETATM   24  C   UNL     1      -7.877   3.595  71.899  1.00  0.00    -0.062 A  
ENDBRANCH  15  19
ENDBRANCH  12  15
ENDBRANCH   6  11
BRANCH   7  25
HETATM   25  C   UNL     1      -9.859  11.520  68.232  1.00  0.00    -0.203 C  
HETATM   26  O   UNL     1     -10.053  11.692  67.032  1.00  0.00    -0.205 OA 
BRANCH  25  27
HETATM   27  O   UNL     1     -10.273  12.400  69.188  1.00  0.00     0.027 OA 
BRANCH  27  28
HETATM   28  C   UNL     1     -10.943  13.559  68.684  1.00  0.00    -0.263 C  
BRANCH  28  29
HETATM   29  O   UNL     1     -10.135  14.721  68.840  1.00  0.00    -0.228 OA 
BRANCH  29  30
HETATM   30  C   UNL     1     -10.783  15.856  69.208  1.00  0.00    -0.259 C  
HETATM   31  O   UNL     1     -11.854  15.884  69.799  1.00  0.00    -0.336 OA 
BRANCH  30  32
HETATM   32  C   UNL     1      -9.982  17.116  68.812  1.00  0.00    -0.315 C  
HETATM   33  N   UNL     1     -10.674  17.794  67.704  1.00  0.00    -0.371 N  
HETATM   34  C   UNL     1     -10.386  17.332  66.319  1.00  0.00    -0.322 C  
HETATM   35  S   UNL     1      -8.877  16.371  66.562  1.00  0.00    -0.309 S  
HETATM   36  C   UNL     1     -10.301  18.806  65.915  1.00  0.00    -0.385 C  
HETATM   37  O   UNL     1      -9.217  14.959  66.515  1.00  0.00    -0.258 OA 
HETATM   38  O   UNL     1      -7.811  16.895  65.732  1.00  0.00    -0.328 OA 
HETATM   39  C   UNL     1      -8.553  16.808  68.304  1.00  0.00    -0.226 C  
HETATM   40  C   UNL     1     -10.470  19.108  67.411  1.00  0.00    -0.458 C  
HETATM   41  C   UNL     1      -7.815  15.672  69.024  1.00  0.00    -0.204 C  
HETATM   42  C   UNL     1      -7.632  18.045  68.377  1.00  0.00    -0.288 C  
HETATM   43  O   UNL     1     -10.278  20.046  68.146  1.00  0.00    -0.422 OA 
ENDBRANCH  30  32
ENDBRANCH  29  30
ENDBRANCH  28  29
ENDBRANCH  27  28
ENDBRANCH  25  27
ENDBRANCH   7  25
TORSDOF 9
ENDMDL
MODEL      242
REMARK 921   NORMALIZED FREE ENERGY PREDICTED BY IDOCK:   -4.22 KCAL/MOL
REMARK 922        TOTAL FREE ENERGY PREDICTED BY IDOCK:   -6.94 KCAL/MOL
REMARK 923 INTER-LIGAND FREE ENERGY PREDICTED BY IDOCK:   -7.84 KCAL/MOL
REMARK 924 INTRA-LIGAND FREE ENERGY PREDICTED BY IDOCK:    0.90 KCAL/MOL
REMARK 927      BINDING AFFINITY PREDICTED BY RF-SCORE:    0.00 PKD
ROOT
HETATM    1  C   UNL     1      -7.837  14.445  69.652  1.00  0.00     0.280 C  
HETATM    2  C   UNL     1      -8.506  13.812  68.414  1.00  0.00    -0.154 C  
HETATM    3  S   UNL     1      -8.157  14.938  66.981  1.00  0.00    -0.095 SA 
HETATM    4  C   UNL     1      -7.821  12.456  68.210  1.00  0.00    -0.150 C  
HETATM    5  C   UNL     1      -9.777  15.836  67.118  1.00  0.00    -0.223 C  
HETATM    6  C   UNL     1      -9.824  17.117  67.998  1.00  0.00    -0.283 C  
HETATM    7  C   UNL     1     -10.055  13.775  68.511  1.00  0.00    -0.225 C  
HETATM    8  C   UNL     1     -10.413  16.167  69.075  1.00  0.00    -0.261 C  
HETATM    9  O   UNL     1     -10.566  16.188  70.275  1.00  0.00    -0.265 OA 
HETATM   10  N   UNL     1     -10.509  15.134  68.189  1.00  0.00    -0.242 N  
ENDROOT
BRANCH   6  11
HETATM   11  N   UNL     1      -8.525  17.773  68.304  1.00  0.00    -0.269 N  
HETATM   12  C   UNL     1      -8.402  19.146  68.312  1.00  0.00    -0.335 C  
HETATM   13  O   UNL     1      -9.380  19.890  68.235  1.00  0.00    -0.335 OA 
HETATM   14  H   UNL     1      -7.709  17.197  68.513  1.00  0.00     0.000 HD 
BRANCH  12  15
HETATM   15  C   UNL     1      -6.954  19.678  68.389  1.00  0.00    -0.302 C  
HETATM   16  H2  UNL     1      -7.312  20.785  70.130  1.00  0.00     0.000 HD 
HETATM   17  N   UNL     1      -6.906  20.921  69.205  1.00  0.00     0.461 NA 
HETATM   18  H1  UNL     1      -5.950  21.272  69.255  1.00  0.00     0.000 HD 
BRANCH  15  19
HETATM   19  C   UNL     1      -6.306  19.865  67.028  1.00  0.00    -0.205 A  
HETATM   20  C   UNL     1      -6.261  18.838  66.070  1.00  0.00    -0.233 A  
HETATM   21  C   UNL     1      -5.780  21.122  66.681  1.00  0.00    -0.318 A  
HETATM   22  C   UNL     1      -5.293  21.360  65.393  1.00  0.00    -0.125 A  
HETATM   23  C   UNL     1      -5.783  19.080  64.782  1.00  0.00    -0.304 A  
HETATM   24  C   UNL     1      -5.312  20.344  64.439  1.00  0.00    -0.221 A  
ENDBRANCH  15  19
ENDBRANCH  12  15
ENDBRANCH   6  11
BRANCH   7  25
HETATM   25  C   UNL     1     -10.753  12.839  67.498  1.00  0.00    -0.229 C  
HETATM   26  O   UNL     1     -10.826  13.029  66.287  1.00  0.00    -0.275 OA 
BRANCH  25  27
HETATM   27  O   UNL     1     -11.304  11.756  68.117  1.00  0.00    -0.239 OA 
BRANCH  27  28
HETATM   28  C   UNL     1     -10.971  10.496  67.527  1.00  0.00    -0.303 C  
BRANCH  28  29
HETATM   29  O   UNL     1     -10.152   9.726  68.401  1.00  0.00    -0.155 OA 
BRANCH  29  30
HETATM   30  C   UNL     1     -10.128   8.387  68.175  1.00  0.00    -0.200 C  
HETATM   31  O   UNL     1     -10.592   7.842  67.183  1.00  0.00    -0.320 OA 
BRANCH  30  32
HETATM   32  C   UNL     1      -9.413   7.636  69.320  1.00  0.00    -0.158 C  
HETATM   33  N   UNL     1     -10.366   6.708  69.951  1.00  0.00    -0.193 N  
HETATM   34  C   UNL     1     -11.248   7.241  71.025  1.00  0.00    -0.266 C  
HETATM   35  S   UNL     1     -10.420   8.791  71.439  1.00  0.00    -0.313 S  
HETATM   36  C   UNL     1     -10.940   5.970  71.819  1.00  0.00    -0.323 C  
HETATM   37  O   UNL     1     -11.172   9.887  70.853  1.00  0.00    -0.315 OA 
HETATM   38  O   UNL     1     -10.072   8.812  72.846  1.00  0.00    -0.004 OA 
HETATM   39  C   UNL     1      -8.903   8.563  70.448  1.00  0.00    -0.150 C  
HETATM   40  C   UNL     1      -9.962   5.633  70.684  1.00  0.00    -0.200 C  
HETATM   41  C   UNL     1      -8.336   9.917  69.999  1.00  0.00    -0.191 C  
HETATM   42  C   UNL     1      -7.808   7.890  71.303  1.00  0.00    -0.088 C  
HETATM   43  O   UNL     1      -9.022   4.895  70.523  1.00  0.00    -0.114 OA 
ENDBRANCH  30  32
ENDBRANCH  29  30
ENDBRANCH  28  29
ENDBRANCH  27  28
ENDBRANCH  25  27
ENDBRANCH   7  25
TORSDOF 9
ENDMDL
MODEL      243
REMARK 921   NORMALIZED FREE ENERGY PREDICTED BY IDOCK:   -4.20 KCAL/MOL
REMARK 922        TOTAL FREE ENERGY PREDICTED BY IDOCK:   -6.92 KCAL/MOL
REMARK 923 INTER-LIGAND FREE ENERGY PREDICTED BY IDOCK:   -8.21 KCAL/MOL
REMARK 924 INTRA-LIGAND FREE ENERGY PREDICTED BY IDOCK:    1.29 KCAL/MOL
REMARK 927      BINDING AFFINITY PREDICTED BY RF-SCORE:    0.00 PKD
ROOT
HETATM    1  C   UNL     1     -12.925  12.408  65.576  1.00  0.00     1.016 C  
HETATM    2  C   UNL     1     -11.799  13.258  64.950  1.00  0.00    -0.362 C  
HETATM    3  S   UNL     1     -10.198  12.421  65.370  1.00  0.00    -0.275 SA 
HETATM    4  C   UNL     1     -12.039  13.228  63.436  1.00  0.00    -0.508 C  
HETATM    5  C   UNL     1      -9.872  13.490  66.854  1.00  0.00    -0.257 C  
HETATM    6  C   UNL     1     -10.391  12.994  68.233  1.00  0.00    -0.252 C  
HETATM    7  C   UNL     1     -11.678  14.670  65.583  1.00  0.00    -0.304 C  
HETATM    8  C   UNL     1     -11.573  13.962  67.962  1.00  0.00    -0.333 C  
HETATM    9  O   UNL     1     -12.696  14.117  68.386  1.00  0.00     0.305 OA 
HETATM   10  N   UNL     1     -10.967  14.479  66.855  1.00  0.00    -0.309 N  
ENDROOT
BRANCH   6  11
HETATM   11  N   UNL     1     -10.708  11.546  68.353  1.00  0.00    -0.197 N  
HETATM   12  C   UNL     1      -9.788  10.652  68.857  1.00  0.00    -0.201 C  
HETATM   13  O   UNL     1      -8.738  11.021  69.382  1.00  0.00     0.016 OA 
HETATM   14  H   UNL     1     -11.624  11.207  68.057  1.00  0.00     0.000 HD 
BRANCH  12  15
HETATM   15  C   UNL     1     -10.154   9.161  68.683  1.00  0.00    -0.194 C  
HETATM   16  H2  UNL     1     -10.378   9.322  66.607  1.00  0.00     0.000 HD 
HETATM   17  N   UNL     1     -10.894   8.960  67.408  1.00  0.00    -0.439 NA 
HETATM   18  H1  UNL     1     -11.136   7.976  67.294  1.00  0.00     0.000 HD 
BRANCH  15  19
HETATM   19  C   UNL     1     -10.899   8.579  69.872  1.00  0.00    -0.205 A  
HETATM   20  C   UNL     1     -11.307   9.368  70.961  1.00  0.00    -0.407 A  
HETATM   21  C   UNL     1     -11.249   7.218  69.868  1.00  0.00    -0.195 A  
HETATM   22  C   UNL     1     -12.043   6.682  70.886  1.00  0.00    -0.379 A  
HETATM   23  C   UNL     1     -12.107   8.833  71.972  1.00  0.00    -0.447 A  
HETATM   24  C   UNL     1     -12.487   7.495  71.927  1.00  0.00    -0.335 A  
ENDBRANCH  15  19
ENDBRANCH  12  15
ENDBRANCH   6  11
BRANCH   7  25
HETATM   25  C   UNL     1     -10.840  15.683  64.772  1.00  0.00    -0.355 C  
HETATM   26  O   UNL     1     -11.274  16.698  64.235  1.00  0.00    -1.098 OA 
BRANCH  25  27
HETATM   27  O   UNL     1      -9.530  15.307  64.706  1.00  0.00     0.241 OA 
BRANCH  27  28
HETATM   28  C   UNL     1      -8.670  15.971  65.636  1.00  0.00     0.482 C  
BRANCH  28  29
HETATM   29  O   UNL     1      -8.798  17.385  65.526  1.00  0.00    -0.240 OA 
BRANCH  29  30
HETATM   30  C   UNL     1      -7.797  18.122  66.073  1.00  0.00    -0.139 C  
HETATM   31  O   UNL     1      -7.096  18.910  65.453  1.00  0.00    -0.493 OA 
BRANCH  30  32
HETATM   32  C   UNL     1      -7.671  17.862  67.591  1.00  0.00    -0.213 C  
HETATM   33  N   UNL     1      -8.833  17.078  68.040  1.00  0.00    -0.218 N  
HETATM   34  C   UNL     1     -10.073  17.817  68.399  1.00  0.00    -0.376 C  
HETATM   35  S   UNL     1      -9.454  19.504  68.572  1.00  0.00    -0.383 S  
HETATM   36  C   UNL     1     -10.181  16.909  69.627  1.00  0.00    -0.050 C  
HETATM   37  O   UNL     1      -9.843  20.261  67.395  1.00  0.00    -0.404 OA 
HETATM   38  O   UNL     1      -9.746  20.011  69.898  1.00  0.00     0.055 OA 
HETATM   39  C   UNL     1      -7.667  19.153  68.443  1.00  0.00    -0.324 C  
HETATM   40  C   UNL     1      -8.821  16.346  69.189  1.00  0.00    -0.186 C  
HETATM   41  C   UNL     1      -6.918  20.351  67.844  1.00  0.00    -0.334 C  
HETATM   42  C   UNL     1      -7.071  18.919  69.848  1.00  0.00     0.291 C  
HETATM   43  O   UNL     1      -7.928  15.710  69.693  1.00  0.00    -0.206 OA 
ENDBRANCH  30  32
ENDBRANCH  29  30
ENDBRANCH  28  29
ENDBRANCH  27  28
ENDBRANCH  25  27
ENDBRANCH   7  25
TORSDOF 9
ENDMDL
MODEL      244
REMARK 921   NORMALIZED FREE ENERGY PREDICTED BY IDOCK:   -4.15 KCAL/MOL
REMARK 922        TOTAL FREE ENERGY PREDICTED BY IDOCK:   -6.84 KCAL/MOL
REMARK 923 INTER-LIGAND FREE ENERGY PREDICTED BY IDOCK:   -6.53 KCAL/MOL
REMARK 924 INTRA-LIGAND FREE ENERGY PREDICTED BY IDOCK:   -0.31 KCAL/MOL
REMARK 927      BINDING AFFINITY PREDICTED BY RF-SCORE:    0.00 PKD
ROOT
HETATM    1  C   UNL     1     -11.996  12.301  67.868  1.00  0.00    -0.240 C  
HETATM    2  C   UNL     1     -11.439  12.318  66.429  1.00  0.00    -0.378 C  
HETATM    3  S   UNL     1     -10.564  10.702  66.173  1.00  0.00    -0.086 SA 
HETATM    4  C   UNL     1     -12.658  12.420  65.504  1.00  0.00     0.121 C  
HETATM    5  C   UNL     1      -8.889  11.388  66.590  1.00  0.00    -0.183 C  
HETATM    6  C   UNL     1      -8.420  11.306  68.070  1.00  0.00    -0.138 C  
HETATM    7  C   UNL     1     -10.340  13.393  66.214  1.00  0.00    -0.291 C  
HETATM    8  C   UNL     1      -8.893  12.783  68.139  1.00  0.00    -0.194 C  
HETATM    9  O   UNL     1      -9.177  13.574  69.009  1.00  0.00     0.128 OA 
HETATM   10  N   UNL     1      -9.112  12.832  66.793  1.00  0.00    -0.221 N  
ENDROOT
BRANCH   6  11
HETATM   11  N   UNL     1      -9.115  10.325  68.945  1.00  0.00    -0.158 N  
HETATM   12  C   UNL     1      -8.445   9.668  69.955  1.00  0.00    -0.204 C  
HETATM   13  O   UNL     1      -7.301   9.976  70.289  1.00  0.00    -0.154 OA 
HETATM   14  H   UNL     1     -10.105  10.134  68.796  1.00  0.00     0.000 HD 
BRANCH  12  15
HETATM   15  C   UNL     1      -9.218   8.500  70.607  1.00  0.00    -0.163 C  
HETATM   16  H2  UNL     1     -10.277   9.753  71.908  1.00  0.00     0.000 HD 
HETATM   17  N   UNL     1      -9.718   8.902  71.949  1.00  0.00    -0.313 NA 
HETATM   18  H1  UNL     1     -10.228   8.131  72.379  1.00  0.00     0.000 HD 
BRANCH  15  19
HETATM   19  C   UNL     1      -8.426   7.205  70.659  1.00  0.00    -0.138 A  
HETATM   20  C   UNL     1      -8.282   6.460  71.842  1.00  0.00    -0.109 A  
HETATM   21  C   UNL     1      -7.860   6.694  69.478  1.00  0.00    -0.106 A  
HETATM   22  C   UNL     1      -7.235   5.444  69.470  1.00  0.00    -0.064 A  
HETATM   23  C   UNL     1      -7.665   5.209  71.829  1.00  0.00    -0.108 A  
HETATM   24  C   UNL     1      -7.155   4.694  70.641  1.00  0.00    -0.041 A  
ENDBRANCH  15  19
ENDBRANCH  12  15
ENDBRANCH   6  11
BRANCH   7  25
HETATM   25  C   UNL     1     -10.012  13.709  64.737  1.00  0.00    -0.114 C  
HETATM   26  O   UNL     1      -9.934  12.883  63.833  1.00  0.00    -0.324 OA 
BRANCH  25  27
HETATM   27  O   UNL     1      -9.799  15.043  64.549  1.00  0.00     0.126 OA 
BRANCH  27  28
HETATM   28  C   UNL     1      -9.620  15.796  65.752  1.00  0.00    -0.320 C  
BRANCH  28  29
HETATM   29  O   UNL     1      -8.258  15.772  66.169  1.00  0.00    -0.179 OA 
BRANCH  29  30
HETATM   30  C   UNL     1      -7.657  16.980  66.320  1.00  0.00    -0.305 C  
HETATM   31  O   UNL     1      -6.510  17.233  65.977  1.00  0.00    -0.187 OA 
BRANCH  30  32
HETATM   32  C   UNL     1      -8.615  18.010  66.957  1.00  0.00    -0.245 C  
HETATM   33  N   UNL     1      -8.247  19.357  66.492  1.00  0.00    -0.298 N  
HETATM   34  C   UNL     1      -7.180  20.082  67.234  1.00  0.00    -0.251 C  
HETATM   35  S   UNL     1      -7.088  19.126  68.763  1.00  0.00    -0.342 S  
HETATM   36  C   UNL     1      -8.065  21.328  67.160  1.00  0.00     0.369 C  
HETATM   37  O   UNL     1      -5.903  18.287  68.712  1.00  0.00    -0.187 OA 
HETATM   38  O   UNL     1      -7.328  19.985  69.905  1.00  0.00    -0.068 OA 
HETATM   39  C   UNL     1      -8.542  18.053  68.502  1.00  0.00    -0.297 C  
HETATM   40  C   UNL     1      -9.116  20.405  66.527  1.00  0.00    -0.160 C  
HETATM   41  C   UNL     1      -8.355  16.701  69.203  1.00  0.00    -0.115 C  
HETATM   42  C   UNL     1      -9.797  18.701  69.125  1.00  0.00    -0.238 C  
HETATM   43  O   UNL     1     -10.307  20.431  66.332  1.00  0.00    -0.356 OA 
ENDBRANCH  30  32
ENDBRANCH  29  30
ENDBRANCH  28  29
ENDBRANCH  27  28
ENDBRANCH  25  27
ENDBRANCH   7  25
TORSDOF 9
ENDMDL
MODEL      245
REMARK 921   NORMALIZED FREE ENERGY PREDICTED BY IDOCK:   -4.14 KCAL/MOL
REMARK 922        TOTAL FREE ENERGY PREDICTED BY IDOCK:   -6.82 KCAL/MOL
REMARK 923 INTER-LIGAND FREE ENERGY PREDICTED BY IDOCK:   -6.88 KCAL/MOL
REMARK 924 INTRA-LIGAND FREE ENERGY PREDICTED BY IDOCK:    0.06 KCAL/MOL
REMARK 927      BINDING AFFINITY PREDICTED BY RF-SCORE:    0.00 PKD
ROOT
HETATM    1  C   UNL     1     -10.029   6.931  70.127  1.00  0.00    -0.188 C  
HETATM    2  C   UNL     1     -10.350   8.236  69.370  1.00  0.00    -0.222 C  
HETATM    3  S   UNL     1     -10.634   7.771  67.596  1.00  0.00    -0.176 SA 
HETATM    4  C   UNL     1     -11.640   8.782  69.994  1.00  0.00     0.149 C  
HETATM    5  C   UNL     1      -8.895   8.162  67.075  1.00  0.00    -0.132 C  
HETATM    6  C   UNL     1      -7.850   7.010  67.116  1.00  0.00    -0.109 C  
HETATM    7  C   UNL     1      -9.154   9.224  69.326  1.00  0.00    -0.151 C  
HETATM    8  C   UNL     1      -7.441   7.640  68.474  1.00  0.00    -0.104 C  
HETATM    9  O   UNL     1      -6.822   7.290  69.453  1.00  0.00    -0.047 OA 
HETATM   10  N   UNL     1      -8.254   8.718  68.281  1.00  0.00    -0.117 N  
ENDROOT
BRANCH   6  11
HETATM   11  N   UNL     1      -8.378   5.620  67.140  1.00  0.00    -0.105 N  
HETATM   12  C   UNL     1      -7.577   4.546  66.818  1.00  0.00    -0.086 C  
HETATM   13  O   UNL     1      -6.362   4.660  66.661  1.00  0.00    -0.034 OA 
HETATM   14  H   UNL     1      -9.351   5.458  67.399  1.00  0.00     0.000 HD 
BRANCH  12  15
HETATM   15  C   UNL     1      -8.319   3.203  66.634  1.00  0.00    -0.096 C  
HETATM   16  H2  UNL     1      -7.139   2.206  68.048  1.00  0.00     0.000 HD 
HETATM   17  N   UNL     1      -7.460   2.076  67.090  1.00  0.00    -0.059 NA 
HETATM   18  H1  UNL     1      -7.950   1.190  66.968  1.00  0.00     0.000 HD 
BRANCH  15  19
HETATM   19  C   UNL     1      -8.839   2.988  65.224  1.00  0.00    -0.133 A  
HETATM   20  C   UNL     1      -8.161   2.188  64.288  1.00  0.00    -0.077 A  
HETATM   21  C   UNL     1     -10.068   3.555  64.847  1.00  0.00    -0.047 A  
HETATM   22  C   UNL     1     -10.633   3.272  63.601  1.00  0.00    -0.258 A  
HETATM   23  C   UNL     1      -8.731   1.899  63.047  1.00  0.00    -0.076 A  
HETATM   24  C   UNL     1      -9.973   2.429  62.710  1.00  0.00    -0.094 A  
ENDBRANCH  15  19
ENDBRANCH  12  15
ENDBRANCH   6  11
BRANCH   7  25
HETATM   25  C   UNL     1      -9.514  10.671  68.917  1.00  0.00    -0.192 C  
HETATM   26  O   UNL     1      -8.755  11.464  68.367  1.00  0.00    -0.147 OA 
BRANCH  25  27
HETATM   27  O   UNL     1     -10.797  10.981  69.258  1.00  0.00    -0.219 OA 
BRANCH  27  28
HETATM   28  C   UNL     1     -11.017  12.361  69.567  1.00  0.00     0.077 C  
BRANCH  28  29
HETATM   29  O   UNL     1     -11.796  12.990  68.554  1.00  0.00    -0.313 OA 
BRANCH  29  30
HETATM   30  C   UNL     1     -11.994  14.326  68.694  1.00  0.00    -0.313 C  
HETATM   31  O   UNL     1     -12.244  14.883  69.755  1.00  0.00    -0.309 OA 
BRANCH  30  32
HETATM   32  C   UNL     1     -11.837  15.064  67.347  1.00  0.00    -0.148 C  
HETATM   33  N   UNL     1     -11.459  14.090  66.310  1.00  0.00    -0.339 N  
HETATM   34  C   UNL     1     -10.015  13.765  66.155  1.00  0.00    -0.308 C  
HETATM   35  S   UNL     1      -9.238  15.120  67.060  1.00  0.00    -0.236 S  
HETATM   36  C   UNL     1     -10.221  13.871  64.642  1.00  0.00    -0.278 C  
HETATM   37  O   UNL     1      -8.785  14.615  68.345  1.00  0.00    -0.163 OA 
HETATM   38  O   UNL     1      -8.328  15.843  66.195  1.00  0.00    -0.282 OA 
HETATM   39  C   UNL     1     -10.724  16.139  67.354  1.00  0.00    -0.291 C  
HETATM   40  C   UNL     1     -11.647  14.327  64.982  1.00  0.00    -0.367 C  
HETATM   41  C   UNL     1     -10.582  16.949  68.650  1.00  0.00    -0.360 C  
HETATM   42  C   UNL     1     -10.898  17.163  66.212  1.00  0.00     0.048 C  
HETATM   43  O   UNL     1     -12.546  14.901  64.417  1.00  0.00    -0.577 OA 
ENDBRANCH  30  32
ENDBRANCH  29  30
ENDBRANCH  28  29
ENDBRANCH  27  28
ENDBRANCH  25  27
ENDBRANCH   7  25
TORSDOF 9
ENDMDL
MODEL      246
REMARK 921   NORMALIZED FREE ENERGY PREDICTED BY IDOCK:   -4.10 KCAL/MOL
REMARK 922        TOTAL FREE ENERGY PREDICTED BY IDOCK:   -6.76 KCAL/MOL
REMARK 923 INTER-LIGAND FREE ENERGY PREDICTED BY IDOCK:   -6.93 KCAL/MOL
REMARK 924 INTRA-LIGAND FREE ENERGY PREDICTED BY IDOCK:    0.17 KCAL/MOL
REMARK 927      BINDING AFFINITY PREDICTED BY RF-SCORE:    0.00 PKD
ROOT
HETATM    1  C   UNL     1      -8.456   6.753  68.124  1.00  0.00    -0.121 C  
HETATM    2  C   UNL     1      -7.485   7.937  68.311  1.00  0.00    -0.104 C  
HETATM    3  S   UNL     1      -7.061   8.004  70.116  1.00  0.00    -0.049 SA 
HETATM    4  C   UNL     1      -6.241   7.599  67.479  1.00  0.00    -0.050 C  
HETATM    5  C   UNL     1      -8.345   9.287  70.508  1.00  0.00    -0.205 C  
HETATM    6  C   UNL     1      -9.752   8.793  70.948  1.00  0.00    -0.222 C  
HETATM    7  C   UNL     1      -8.138   9.313  68.014  1.00  0.00    -0.104 C  
HETATM    8  C   UNL     1     -10.136   9.056  69.468  1.00  0.00    -0.197 C  
HETATM    9  O   UNL     1     -11.029   8.726  68.720  1.00  0.00    -0.048 OA 
HETATM   10  N   UNL     1      -8.934   9.644  69.204  1.00  0.00    -0.145 N  
ENDROOT
BRANCH   6  11
HETATM   11  N   UNL     1      -9.853   7.394  71.441  1.00  0.00    -0.184 N  
HETATM   12  C   UNL     1      -9.723   7.097  72.781  1.00  0.00    -0.158 C  
HETATM   13  O   UNL     1      -9.686   7.973  73.644  1.00  0.00    -0.215 OA 
HETATM   14  H   UNL     1     -10.021   6.639  70.776  1.00  0.00     0.000 HD 
BRANCH  12  15
HETATM   15  C   UNL     1      -9.591   5.593  73.113  1.00  0.00    -0.150 C  
HETATM   16  H2  UNL     1      -9.276   5.937  75.155  1.00  0.00     0.000 HD 
HETATM   17  N   UNL     1      -8.850   5.414  74.391  1.00  0.00    -0.117 NA 
HETATM   18  H1  UNL     1      -8.763   4.422  74.610  1.00  0.00     0.000 HD 
BRANCH  15  19
HETATM   19  C   UNL     1      -8.987   4.776  71.985  1.00  0.00    -0.144 A  
HETATM   20  C   UNL     1      -7.599   4.627  71.827  1.00  0.00    -0.091 A  
HETATM   21  C   UNL     1      -9.835   4.094  71.096  1.00  0.00    -0.244 A  
HETATM   22  C   UNL     1      -9.311   3.234  70.128  1.00  0.00    -0.242 A  
HETATM   23  C   UNL     1      -7.077   3.761  70.865  1.00  0.00    -0.033 A  
HETATM   24  C   UNL     1      -7.933   3.054  70.025  1.00  0.00    -0.051 A  
ENDBRANCH  15  19
ENDBRANCH  12  15
ENDBRANCH   6  11
BRANCH   7  25
HETATM   25  C   UNL     1      -7.147  10.483  67.823  1.00  0.00    -0.083 C  
HETATM   26  O   UNL     1      -6.558  10.754  66.780  1.00  0.00    -0.088 OA 
BRANCH  25  27
HETATM   27  O   UNL     1      -6.983  11.192  68.977  1.00  0.00    -0.082 OA 
BRANCH  27  28
HETATM   28  C   UNL     1      -7.605  12.480  68.980  1.00  0.00     0.136 C  
BRANCH  28  29
HETATM   29  O   UNL     1      -7.145  13.268  67.886  1.00  0.00    -0.100 OA 
BRANCH  29  30
HETATM   30  C   UNL     1      -8.065  14.080  67.304  1.00  0.00    -0.156 C  
HETATM   31  O   UNL     1      -7.821  15.186  66.841  1.00  0.00    -0.201 OA 
BRANCH  30  32
HETATM   32  C   UNL     1      -9.461  13.420  67.275  1.00  0.00    -0.234 C  
HETATM   33  N   UNL     1      -9.602  12.656  66.024  1.00  0.00    -0.226 N  
HETATM   34  C   UNL     1     -10.063  13.386  64.812  1.00  0.00    -0.237 C  
HETATM   35  S   UNL     1     -10.726  14.903  65.531  1.00  0.00    -0.385 S  
HETATM   36  C   UNL     1     -10.990  12.201  64.531  1.00  0.00    -0.361 C  
HETATM   37  O   UNL     1      -9.772  15.976  65.304  1.00  0.00    -0.403 OA 
HETATM   38  O   UNL     1     -12.116  15.068  65.158  1.00  0.00    -0.215 OA 
HETATM   39  C   UNL     1     -10.628  14.435  67.293  1.00  0.00    -0.279 C  
HETATM   40  C   UNL     1     -10.509  11.650  65.881  1.00  0.00    -0.255 C  
HETATM   41  C   UNL     1     -10.427  15.674  68.177  1.00  0.00    -0.259 C  
HETATM   42  C   UNL     1     -11.955  13.786  67.743  1.00  0.00    -0.391 C  
HETATM   43  O   UNL     1     -10.883  10.824  66.678  1.00  0.00    -0.237 OA 
ENDBRANCH  30  32
ENDBRANCH  29  30
ENDBRANCH  28  29
ENDBRANCH  27  28
ENDBRANCH  25  27
ENDBRANCH   7  25
TORSDOF 9
ENDMDL
MODEL      247
REMARK 921   NORMALIZED FREE ENERGY PREDICTED BY IDOCK:   -4.09 KCAL/MOL
REMARK 922        TOTAL FREE ENERGY PREDICTED BY IDOCK:   -6.75 KCAL/MOL
REMARK 923 INTER-LIGAND FREE ENERGY PREDICTED BY IDOCK:   -7.51 KCAL/MOL
REMARK 924 INTRA-LIGAND FREE ENERGY PREDICTED BY IDOCK:    0.76 KCAL/MOL
REMARK 927      BINDING AFFINITY PREDICTED BY RF-SCORE:    0.00 PKD
ROOT
HETATM    1  C   UNL     1      -9.690   7.595  67.161  1.00  0.00    -0.239 C  
HETATM    2  C   UNL     1      -9.722   9.128  66.994  1.00  0.00    -0.188 C  
HETATM    3  S   UNL     1      -8.342   9.809  68.029  1.00  0.00    -0.110 SA 
HETATM    4  C   UNL     1      -9.462   9.398  65.507  1.00  0.00    -0.328 C  
HETATM    5  C   UNL     1      -9.433  10.171  69.488  1.00  0.00    -0.214 C  
HETATM    6  C   UNL     1      -9.582   9.067  70.572  1.00  0.00    -0.219 C  
HETATM    7  C   UNL     1     -11.004   9.777  67.580  1.00  0.00    -0.138 C  
HETATM    8  C   UNL     1     -10.906   8.738  69.834  1.00  0.00    -0.206 C  
HETATM    9  O   UNL     1     -11.676   7.806  69.784  1.00  0.00     0.185 OA 
HETATM   10  N   UNL     1     -10.795   9.837  69.033  1.00  0.00    -0.217 N  
ENDROOT
BRANCH   6  11
HETATM   11  N   UNL     1      -8.538   8.008  70.606  1.00  0.00    -0.127 N  
HETATM   12  C   UNL     1      -7.592   7.967  71.608  1.00  0.00    -0.083 C  
HETATM   13  O   UNL     1      -7.662   8.690  72.602  1.00  0.00    -0.335 OA 
HETATM   14  H   UNL     1      -8.521   7.298  69.874  1.00  0.00     0.000 HD 
BRANCH  12  15
HETATM   15  C   UNL     1      -6.427   6.980  71.375  1.00  0.00    -0.041 C  
HETATM   16  H2  UNL     1      -5.208   7.870  72.827  1.00  0.00     0.000 HD 
HETATM   17  N   UNL     1      -5.149   7.573  71.854  1.00  0.00    -0.035 NA 
HETATM   18  H1  UNL     1      -4.380   6.921  71.700  1.00  0.00     0.000 HD 
BRANCH  15  19
HETATM   19  C   UNL     1      -6.326   6.492  69.941  1.00  0.00    -0.039 A  
HETATM   20  C   UNL     1      -6.746   5.208  69.553  1.00  0.00    -0.051 A  
HETATM   21  C   UNL     1      -5.851   7.365  68.947  1.00  0.00    -0.023 A  
HETATM   22  C   UNL     1      -5.865   6.988  67.601  1.00  0.00    -0.021 A  
HETATM   23  C   UNL     1      -6.768   4.838  68.208  1.00  0.00    -0.050 A  
HETATM   24  C   UNL     1      -6.341   5.733  67.231  1.00  0.00    -0.042 A  
ENDBRANCH  15  19
ENDBRANCH  12  15
ENDBRANCH   6  11
BRANCH   7  25
HETATM   25  C   UNL     1     -11.270  11.231  67.126  1.00  0.00    -0.275 C  
HETATM   26  O   UNL     1     -12.045  12.014  67.666  1.00  0.00    -0.547 OA 
BRANCH  25  27
HETATM   27  O   UNL     1     -10.537  11.550  66.021  1.00  0.00    -0.247 OA 
BRANCH  27  28
HETATM   28  C   UNL     1      -9.866  12.811  66.092  1.00  0.00    -0.267 C  
BRANCH  28  29
HETATM   29  O   UNL     1      -9.765  13.258  67.440  1.00  0.00    -0.213 OA 
BRANCH  29  30
HETATM   30  C   UNL     1      -8.702  14.050  67.731  1.00  0.00    -0.185 C  
HETATM   31  O   UNL     1      -7.769  13.723  68.452  1.00  0.00    -0.120 OA 
BRANCH  30  32
HETATM   32  C   UNL     1      -8.802  15.414  67.013  1.00  0.00    -0.228 C  
HETATM   33  N   UNL     1      -7.714  16.285  67.486  1.00  0.00    -0.138 N  
HETATM   34  C   UNL     1      -7.942  17.068  68.730  1.00  0.00    -0.248 C  
HETATM   35  S   UNL     1      -9.735  16.957  68.907  1.00  0.00    -0.235 S  
HETATM   36  C   UNL     1      -7.313  18.265  68.014  1.00  0.00    -0.244 C  
HETATM   37  O   UNL     1     -10.036  15.996  69.954  1.00  0.00    -0.250 OA 
HETATM   38  O   UNL     1     -10.317  18.284  68.941  1.00  0.00    -0.345 OA 
HETATM   39  C   UNL     1     -10.118  16.173  67.304  1.00  0.00    -0.265 C  
HETATM   40  C   UNL     1      -7.277  17.360  66.774  1.00  0.00    -0.219 C  
HETATM   41  C   UNL     1     -11.383  15.309  67.407  1.00  0.00    -0.285 C  
HETATM   42  C   UNL     1     -10.412  17.254  66.242  1.00  0.00    -0.268 C  
HETATM   43  O   UNL     1      -7.163  17.506  65.581  1.00  0.00    -0.405 OA 
ENDBRANCH  30  32
ENDBRANCH  29  30
ENDBRANCH  28  29
ENDBRANCH  27  28
ENDBRANCH  25  27
ENDBRANCH   7  25
TORSDOF 9
ENDMDL
MODEL      248
REMARK 921   NORMALIZED FREE ENERGY PREDICTED BY IDOCK:   -4.07 KCAL/MOL
REMARK 922        TOTAL FREE ENERGY PREDICTED BY IDOCK:   -6.72 KCAL/MOL
REMARK 923 INTER-LIGAND FREE ENERGY PREDICTED BY IDOCK:   -5.89 KCAL/MOL
REMARK 924 INTRA-LIGAND FREE ENERGY PREDICTED BY IDOCK:   -0.83 KCAL/MOL
REMARK 927      BINDING AFFINITY PREDICTED BY RF-SCORE:    0.00 PKD
ROOT
HETATM    1  C   UNL     1      -9.591   5.133  68.417  1.00  0.00    -0.185 C  
HETATM    2  C   UNL     1      -8.991   3.798  68.905  1.00  0.00    -0.123 C  
HETATM    3  S   UNL     1      -9.680   3.486  70.599  1.00  0.00    -0.042 SA 
HETATM    4  C   UNL     1      -9.482   2.729  67.921  1.00  0.00    -0.196 C  
HETATM    5  C   UNL     1      -8.211   4.208  71.476  1.00  0.00    -0.086 C  
HETATM    6  C   UNL     1      -8.252   5.721  71.835  1.00  0.00    -0.119 C  
HETATM    7  C   UNL     1      -7.455   3.862  69.116  1.00  0.00    -0.054 C  
HETATM    8  C   UNL     1      -7.398   5.889  70.550  1.00  0.00    -0.085 C  
HETATM    9  O   UNL     1      -7.104   6.795  69.803  1.00  0.00    -0.064 OA 
HETATM   10  N   UNL     1      -7.255   4.540  70.404  1.00  0.00    -0.048 N  
ENDROOT
BRANCH   6  11
HETATM   11  N   UNL     1      -9.588   6.373  71.856  1.00  0.00    -0.153 N  
HETATM   12  C   UNL     1      -9.813   7.518  72.590  1.00  0.00    -0.191 C  
HETATM   13  O   UNL     1      -8.897   8.145  73.121  1.00  0.00    -0.222 OA 
HETATM   14  H   UNL     1     -10.353   5.966  71.318  1.00  0.00     0.000 HD 
BRANCH  12  15
HETATM   15  C   UNL     1     -11.295   7.933  72.727  1.00  0.00    -0.393 C  
HETATM   16  H2  UNL     1     -11.939   5.984  73.142  1.00  0.00     0.000 HD 
HETATM   17  N   UNL     1     -12.179   6.754  72.518  1.00  0.00    -0.505 NA 
HETATM   18  H1  UNL     1     -13.157   7.028  72.608  1.00  0.00     0.000 HD 
BRANCH  15  19
HETATM   19  C   UNL     1     -11.681   9.098  71.833  1.00  0.00    -0.436 A  
HETATM   20  C   UNL     1     -12.741   9.966  72.147  1.00  0.00    -0.387 A  
HETATM   21  C   UNL     1     -10.925   9.363  70.678  1.00  0.00    -0.352 A  
HETATM   22  C   UNL     1     -11.176  10.500  69.906  1.00  0.00    -0.374 A  
HETATM   23  C   UNL     1     -12.984  11.106  71.379  1.00  0.00    -0.506 A  
HETATM   24  C   UNL     1     -12.193  11.380  70.267  1.00  0.00    -0.433 A  
ENDBRANCH  15  19
ENDBRANCH  12  15
ENDBRANCH   6  11
BRANCH   7  25
HETATM   25  C   UNL     1      -6.751   2.491  69.241  1.00  0.00    -0.033 C  
HETATM   26  O   UNL     1      -6.511   1.908  70.294  1.00  0.00    -0.024 OA 
BRANCH  25  27
HETATM   27  O   UNL     1      -6.407   1.994  68.018  1.00  0.00    -0.027 OA 
BRANCH  27  28
HETATM   28  C   UNL     1      -5.754   2.930  67.155  1.00  0.00    -0.022 C  
BRANCH  28  29
HETATM   29  O   UNL     1      -6.439   3.039  65.911  1.00  0.00    -0.031 OA 
BRANCH  29  30
HETATM   30  C   UNL     1      -5.727   3.556  64.878  1.00  0.00    -0.014 C  
HETATM   31  O   UNL     1      -5.183   2.890  64.007  1.00  0.00    -0.008 OA 
BRANCH  30  32
HETATM   32  C   UNL     1      -5.712   5.100  64.921  1.00  0.00    -0.017 C  
HETATM   33  N   UNL     1      -6.848   5.567  65.732  1.00  0.00    -0.056 N  
HETATM   34  C   UNL     1      -8.164   5.727  65.057  1.00  0.00    -0.137 C  
HETATM   35  S   UNL     1      -7.685   5.707  63.316  1.00  0.00    -0.092 S  
HETATM   36  C   UNL     1      -8.309   7.057  65.799  1.00  0.00    -0.143 C  
HETATM   37  O   UNL     1      -8.027   4.409  62.759  1.00  0.00    -0.065 OA 
HETATM   38  O   UNL     1      -8.125   6.924  62.663  1.00  0.00    -0.112 OA 
HETATM   39  C   UNL     1      -5.873   5.761  63.532  1.00  0.00    -0.021 C  
HETATM   40  C   UNL     1      -6.880   6.804  66.300  1.00  0.00    -0.060 C  
HETATM   41  C   UNL     1      -5.164   5.058  62.366  1.00  0.00    -0.009 C  
HETATM   42  C   UNL     1      -5.383   7.225  63.525  1.00  0.00    -0.033 C  
HETATM   43  O   UNL     1      -5.989   7.458  66.786  1.00  0.00    -0.036 OA 
ENDBRANCH  30  32
ENDBRANCH  29  30
ENDBRANCH  28  29
ENDBRANCH  27  28
ENDBRANCH  25  27
ENDBRANCH   7  25
TORSDOF 9
ENDMDL
MODEL      249
REMARK 921   NORMALIZED FREE ENERGY PREDICTED BY IDOCK:   -4.05 KCAL/MOL
REMARK 922        TOTAL FREE ENERGY PREDICTED BY IDOCK:   -6.69 KCAL/MOL
REMARK 923 INTER-LIGAND FREE ENERGY PREDICTED BY IDOCK:   -6.50 KCAL/MOL
REMARK 924 INTRA-LIGAND FREE ENERGY PREDICTED BY IDOCK:   -0.19 KCAL/MOL
REMARK 927      BINDING AFFINITY PREDICTED BY RF-SCORE:    0.00 PKD
ROOT
HETATM    1  C   UNL     1      -7.112  15.780  66.830  1.00  0.00    -0.074 C  
HETATM    2  C   UNL     1      -6.708  14.790  67.943  1.00  0.00    -0.163 C  
HETATM    3  S   UNL     1      -7.962  13.423  67.927  1.00  0.00    -0.172 SA 
HETATM    4  C   UNL     1      -5.325  14.254  67.550  1.00  0.00     0.213 C  
HETATM    5  C   UNL     1      -8.993  14.171  69.279  1.00  0.00     0.369 C  
HETATM    6  C   UNL     1     -10.153  15.120  68.864  1.00  0.00    -0.238 C  
HETATM    7  C   UNL     1      -6.813  15.397  69.366  1.00  0.00    -0.174 C  
HETATM    8  C   UNL     1      -9.141  16.248  69.197  1.00  0.00    -0.230 C  
HETATM    9  O   UNL     1      -9.027  17.427  68.948  1.00  0.00    -0.250 OA 
HETATM   10  N   UNL     1      -8.241  15.362  69.713  1.00  0.00    -0.139 N  
ENDROOT
BRANCH   6  11
HETATM   11  N   UNL     1     -10.634  15.026  67.460  1.00  0.00    -0.261 N  
HETATM   12  C   UNL     1     -11.497  14.026  67.066  1.00  0.00    -0.351 C  
HETATM   13  O   UNL     1     -12.039  13.274  67.875  1.00  0.00    -0.331 OA 
HETATM   14  H   UNL     1     -10.319  15.714  66.776  1.00  0.00     0.000 HD 
BRANCH  12  15
HETATM   15  C   UNL     1     -11.705  13.899  65.540  1.00  0.00    -0.349 C  
HETATM   16  H2  UNL     1     -13.673  14.609  65.615  1.00  0.00     0.000 HD 
HETATM   17  N   UNL     1     -13.157  13.822  65.225  1.00  0.00    -0.744 NA 
HETATM   18  H1  UNL     1     -13.293  13.738  64.218  1.00  0.00     0.000 HD 
BRANCH  15  19
HETATM   19  C   UNL     1     -10.926  12.753  64.918  1.00  0.00    -0.324 A  
HETATM   20  C   UNL     1     -10.368  11.719  65.689  1.00  0.00    -0.293 A  
HETATM   21  C   UNL     1     -10.800  12.682  63.520  1.00  0.00    -0.373 A  
HETATM   22  C   UNL     1     -10.200  11.576  62.913  1.00  0.00    -0.188 A  
HETATM   23  C   UNL     1      -9.777  10.611  65.080  1.00  0.00    -0.327 A  
HETATM   24  C   UNL     1      -9.706  10.533  63.692  1.00  0.00    -0.375 A  
ENDBRANCH  15  19
ENDBRANCH  12  15
ENDBRANCH   6  11
BRANCH   7  25
HETATM   25  C   UNL     1      -6.085  14.603  70.474  1.00  0.00    -0.169 C  
HETATM   26  O   UNL     1      -5.192  15.042  71.194  1.00  0.00    -0.133 OA 
BRANCH  25  27
HETATM   27  O   UNL     1      -6.547  13.323  70.557  1.00  0.00     0.197 OA 
BRANCH  27  28
HETATM   28  C   UNL     1      -5.535  12.315  70.482  1.00  0.00    -0.159 C  
BRANCH  28  29
HETATM   29  O   UNL     1      -5.986  11.196  69.726  1.00  0.00    -0.069 OA 
BRANCH  29  30
HETATM   30  C   UNL     1      -6.244  10.063  70.428  1.00  0.00    -0.103 C  
HETATM   31  O   UNL     1      -6.518  10.033  71.621  1.00  0.00    -0.291 OA 
BRANCH  30  32
HETATM   32  C   UNL     1      -6.175   8.812  69.525  1.00  0.00    -0.040 C  
HETATM   33  N   UNL     1      -7.140   8.964  68.424  1.00  0.00    -0.076 N  
HETATM   34  C   UNL     1      -8.547   8.551  68.671  1.00  0.00    -0.135 C  
HETATM   35  S   UNL     1      -8.377   7.557  70.169  1.00  0.00    -0.136 S  
HETATM   36  C   UNL     1      -8.523   7.878  67.296  1.00  0.00    -0.121 C  
HETATM   37  O   UNL     1      -8.849   8.341  71.298  1.00  0.00    -0.134 OA 
HETATM   38  O   UNL     1      -8.887   6.219  69.942  1.00  0.00    -0.138 OA 
HETATM   39  C   UNL     1      -6.555   7.500  70.252  1.00  0.00    -0.039 C  
HETATM   40  C   UNL     1      -7.037   8.263  67.261  1.00  0.00    -0.079 C  
HETATM   41  C   UNL     1      -6.079   7.376  71.706  1.00  0.00    -0.036 C  
HETATM   42  C   UNL     1      -6.029   6.252  69.511  1.00  0.00    -0.021 C  
HETATM   43  O   UNL     1      -6.056   7.930  66.640  1.00  0.00    -0.046 OA 
ENDBRANCH  30  32
ENDBRANCH  29  30
ENDBRANCH  28  29
ENDBRANCH  27  28
ENDBRANCH  25  27
ENDBRANCH   7  25
TORSDOF 9
ENDMDL
MODEL      250
REMARK 921   NORMALIZED FREE ENERGY PREDICTED BY IDOCK:   -4.04 KCAL/MOL
REMARK 922        TOTAL FREE ENERGY PREDICTED BY IDOCK:   -6.67 KCAL/MOL
REMARK 923 INTER-LIGAND FREE ENERGY PREDICTED BY IDOCK:   -6.45 KCAL/MOL
REMARK 924 INTRA-LIGAND FREE ENERGY PREDICTED BY IDOCK:   -0.21 KCAL/MOL
REMARK 927      BINDING AFFINITY PREDICTED BY RF-SCORE:    0.00 PKD
ROOT
HETATM    1  C   UNL     1      -5.501  13.001  66.885  1.00  0.00     0.827 C  
HETATM    2  C   UNL     1      -5.945  12.018  67.989  1.00  0.00    -0.058 C  
HETATM    3  S   UNL     1      -7.750  11.685  67.716  1.00  0.00    -0.136 SA 
HETATM    4  C   UNL     1      -5.125  10.741  67.774  1.00  0.00    -0.039 C  
HETATM    5  C   UNL     1      -8.310  12.964  68.941  1.00  0.00     0.280 C  
HETATM    6  C   UNL     1      -8.586  14.400  68.414  1.00  0.00    -0.174 C  
HETATM    7  C   UNL     1      -5.875  12.631  69.413  1.00  0.00    -0.094 C  
HETATM    8  C   UNL     1      -7.163  14.704  68.952  1.00  0.00    -0.124 C  
HETATM    9  O   UNL     1      -6.327  15.563  68.788  1.00  0.00    -0.100 OA 
HETATM   10  N   UNL     1      -7.067  13.479  69.545  1.00  0.00     0.104 N  
ENDROOT
BRANCH   6  11
HETATM   11  N   UNL     1      -8.811  14.552  66.952  1.00  0.00    -0.261 N  
HETATM   12  C   UNL     1      -9.911  15.223  66.463  1.00  0.00    -0.265 C  
HETATM   13  O   UNL     1     -10.663  15.866  67.195  1.00  0.00    -0.316 OA 
HETATM   14  H   UNL     1      -8.138  14.152  66.298  1.00  0.00     0.000 HD 
BRANCH  12  15
HETATM   15  C   UNL     1     -10.149  15.079  64.943  1.00  0.00    -0.144 C  
HETATM   16  H2  UNL     1     -10.450  17.132  64.662  1.00  0.00     0.000 HD 
HETATM   17  N   UNL     1     -10.907  16.252  64.430  1.00  0.00    -0.992 NA 
HETATM   18  H1  UNL     1     -11.064  16.156  63.427  1.00  0.00     0.000 HD 
BRANCH  15  19
HETATM   19  C   UNL     1     -10.803  13.764  64.556  1.00  0.00    -0.399 A  
HETATM   20  C   UNL     1     -12.155  13.490  64.826  1.00  0.00    -0.442 A  
HETATM   21  C   UNL     1     -10.058  12.804  63.852  1.00  0.00    -0.153 A  
HETATM   22  C   UNL     1     -10.665  11.640  63.372  1.00  0.00    -0.460 A  
HETATM   23  C   UNL     1     -12.762  12.332  64.339  1.00  0.00    -0.384 A  
HETATM   24  C   UNL     1     -12.021  11.415  63.600  1.00  0.00     0.016 A  
ENDBRANCH  15  19
ENDBRANCH  12  15
ENDBRANCH   6  11
BRANCH   7  25
HETATM   25  C   UNL     1      -5.947  11.609  70.571  1.00  0.00    -0.078 C  
HETATM   26  O   UNL     1      -5.145  11.524  71.496  1.00  0.00    -0.221 OA 
BRANCH  25  27
HETATM   27  O   UNL     1      -7.023  10.781  70.439  1.00  0.00    -0.252 OA 
BRANCH  27  28
HETATM   28  C   UNL     1      -6.753   9.402  70.708  1.00  0.00    -0.105 C  
BRANCH  28  29
HETATM   29  O   UNL     1      -7.926   8.612  70.541  1.00  0.00    -0.088 OA 
BRANCH  29  30
HETATM   30  C   UNL     1      -7.749   7.389  69.978  1.00  0.00    -0.095 C  
HETATM   31  O   UNL     1      -6.715   7.014  69.443  1.00  0.00    -0.046 OA 
BRANCH  30  32
HETATM   32  C   UNL     1      -9.014   6.515  70.123  1.00  0.00    -0.155 C  
HETATM   33  N   UNL     1      -8.707   5.150  69.663  1.00  0.00    -0.091 N  
HETATM   34  C   UNL     1      -8.831   4.863  68.208  1.00  0.00    -0.103 C  
HETATM   35  S   UNL     1      -9.797   6.278  67.639  1.00  0.00    -0.130 S  
HETATM   36  C   UNL     1      -9.533   3.559  68.592  1.00  0.00    -0.209 C  
HETATM   37  O   UNL     1      -8.905   7.200  66.956  1.00  0.00    -0.119 OA 
HETATM   38  O   UNL     1     -11.015   5.826  66.997  1.00  0.00    -0.274 OA 
HETATM   39  C   UNL     1     -10.206   7.001  69.265  1.00  0.00    -0.186 C  
HETATM   40  C   UNL     1      -9.447   4.070  70.037  1.00  0.00    -0.190 C  
HETATM   41  C   UNL     1     -10.380   8.522  69.157  1.00  0.00    -0.227 C  
HETATM   42  C   UNL     1     -11.553   6.439  69.770  1.00  0.00    -0.397 C  
HETATM   43  O   UNL     1      -9.982   3.824  71.091  1.00  0.00    -0.172 OA 
ENDBRANCH  30  32
ENDBRANCH  29  30
ENDBRANCH  28  29
ENDBRANCH  27  28
ENDBRANCH  25  27
ENDBRANCH   7  25
TORSDOF 9
ENDMDL
MODEL      251
REMARK 921   NORMALIZED FREE ENERGY PREDICTED BY IDOCK:   -4.03 KCAL/MOL
REMARK 922        TOTAL FREE ENERGY PREDICTED BY IDOCK:   -6.66 KCAL/MOL
REMARK 923 INTER-LIGAND FREE ENERGY PREDICTED BY IDOCK:   -6.13 KCAL/MOL
REMARK 924 INTRA-LIGAND FREE ENERGY PREDICTED BY IDOCK:   -0.53 KCAL/MOL
REMARK 927      BINDING AFFINITY PREDICTED BY RF-SCORE:    0.00 PKD
ROOT
HETATM    1  C   UNL     1      -9.576   9.629  65.958  1.00  0.00    -0.305 C  
HETATM    2  C   UNL     1      -9.640   8.789  67.251  1.00  0.00    -0.165 C  
HETATM    3  S   UNL     1     -10.372   9.879  68.562  1.00  0.00    -0.205 SA 
HETATM    4  C   UNL     1     -10.576   7.613  66.947  1.00  0.00    -0.359 C  
HETATM    5  C   UNL     1      -8.723  10.394  69.245  1.00  0.00    -0.150 C  
HETATM    6  C   UNL     1      -8.069  11.681  68.666  1.00  0.00    -0.121 C  
HETATM    7  C   UNL     1      -8.239   8.409  67.800  1.00  0.00    -0.126 C  
HETATM    8  C   UNL     1      -7.249  10.687  67.801  1.00  0.00    -0.088 C  
HETATM    9  O   UNL     1      -6.587  10.743  66.790  1.00  0.00    -0.088 OA 
HETATM   10  N   UNL     1      -7.736   9.609  68.481  1.00  0.00    -0.081 N  
ENDROOT
BRANCH   6  11
HETATM   11  N   UNL     1      -8.964  12.631  67.953  1.00  0.00    -0.181 N  
HETATM   12  C   UNL     1      -8.841  13.993  68.123  1.00  0.00    -0.182 C  
HETATM   13  O   UNL     1      -7.895  14.493  68.730  1.00  0.00    -0.137 OA 
HETATM   14  H   UNL     1      -9.682  12.267  67.326  1.00  0.00     0.000 HD 
BRANCH  12  15
HETATM   15  C   UNL     1      -9.991  14.837  67.529  1.00  0.00    -0.219 C  
HETATM   16  H2  UNL     1     -10.676  13.283  66.304  1.00  0.00     0.000 HD 
HETATM   17  N   UNL     1     -10.425  14.268  66.225  1.00  0.00    -0.285 NA 
HETATM   18  H1  UNL     1     -11.184  14.825  65.834  1.00  0.00     0.000 HD 
BRANCH  15  19
HETATM   19  C   UNL     1      -9.664  16.316  67.424  1.00  0.00    -0.234 A  
HETATM   20  C   UNL     1     -10.134  17.257  68.356  1.00  0.00    -0.333 A  
HETATM   21  C   UNL     1      -8.814  16.763  66.398  1.00  0.00    -0.331 A  
HETATM   22  C   UNL     1      -8.394  18.095  66.349  1.00  0.00    -0.272 A  
HETATM   23  C   UNL     1      -9.706  18.584  68.311  1.00  0.00    -0.385 A  
HETATM   24  C   UNL     1      -8.825  19.000  67.317  1.00  0.00    -0.302 A  
ENDBRANCH  15  19
ENDBRANCH  12  15
ENDBRANCH   6  11
BRANCH   7  25
HETATM   25  C   UNL     1      -8.232   7.282  68.857  1.00  0.00    -0.125 C  
HETATM   26  O   UNL     1      -7.975   7.426  70.049  1.00  0.00    -0.114 OA 
BRANCH  25  27
HETATM   27  O   UNL     1      -8.539   6.075  68.301  1.00  0.00    -0.115 OA 
BRANCH  27  28
HETATM   28  C   UNL     1      -7.664   5.005  68.674  1.00  0.00    -0.078 C  
BRANCH  28  29
HETATM   29  O   UNL     1      -7.803   3.902  67.784  1.00  0.00    -0.077 OA 
BRANCH  29  30
HETATM   30  C   UNL     1      -8.385   4.167  66.586  1.00  0.00    -0.101 C  
HETATM   31  O   UNL     1      -9.527   3.851  66.284  1.00  0.00    -0.168 OA 
BRANCH  30  32
HETATM   32  C   UNL     1      -7.429   4.947  65.657  1.00  0.00    -0.078 C  
HETATM   33  N   UNL     1      -8.214   5.569  64.578  1.00  0.00    -0.128 N  
HETATM   34  C   UNL     1      -8.510   4.749  63.372  1.00  0.00    -0.120 C  
HETATM   35  S   UNL     1      -7.330   3.395  63.555  1.00  0.00    -0.055 S  
HETATM   36  C   UNL     1      -8.148   5.974  62.530  1.00  0.00    -0.100 C  
HETATM   37  O   UNL     1      -8.046   2.219  64.018  1.00  0.00    -0.079 OA 
HETATM   38  O   UNL     1      -6.472   3.318  62.389  1.00  0.00    -0.017 OA 
HETATM   39  C   UNL     1      -6.373   4.055  64.963  1.00  0.00    -0.028 C  
HETATM   40  C   UNL     1      -7.754   6.632  63.860  1.00  0.00    -0.112 C  
HETATM   41  C   UNL     1      -5.794   2.915  65.812  1.00  0.00    -0.019 C  
HETATM   42  C   UNL     1      -5.170   4.874  64.448  1.00  0.00    -0.009 C  
HETATM   43  O   UNL     1      -7.091   7.577  64.212  1.00  0.00    -0.057 OA 
ENDBRANCH  30  32
ENDBRANCH  29  30
ENDBRANCH  28  29
ENDBRANCH  27  28
ENDBRANCH  25  27
ENDBRANCH   7  25
TORSDOF 9
ENDMDL
MODEL      252
REMARK 921   NORMALIZED FREE ENERGY PREDICTED BY IDOCK:   -3.91 KCAL/MOL
REMARK 922        TOTAL FREE ENERGY PREDICTED BY IDOCK:   -6.47 KCAL/MOL
REMARK 923 INTER-LIGAND FREE ENERGY PREDICTED BY IDOCK:   -6.92 KCAL/MOL
REMARK 924 INTRA-LIGAND FREE ENERGY PREDICTED BY IDOCK:    0.45 KCAL/MOL
REMARK 927      BINDING AFFINITY PREDICTED BY RF-SCORE:    0.00 PKD
ROOT
HETATM    1  C   UNL     1     -10.110   6.850  67.896  1.00  0.00    -0.195 C  
HETATM    2  C   UNL     1      -9.816   8.323  67.543  1.00  0.00    -0.177 C  
HETATM    3  S   UNL     1      -8.337   8.829  68.543  1.00  0.00    -0.130 SA 
HETATM    4  C   UNL     1      -9.484   8.342  66.046  1.00  0.00    -0.189 C  
HETATM    5  C   UNL     1      -9.347   9.591  69.902  1.00  0.00    -0.223 C  
HETATM    6  C   UNL     1      -9.741   8.688  71.106  1.00  0.00    -0.224 C  
HETATM    7  C   UNL     1     -10.940   9.293  67.995  1.00  0.00    -0.015 C  
HETATM    8  C   UNL     1     -11.095   8.551  70.360  1.00  0.00    -0.231 C  
HETATM    9  O   UNL     1     -12.042   7.799  70.392  1.00  0.00    -0.006 OA 
HETATM   10  N   UNL     1     -10.743   9.492  69.437  1.00  0.00    -0.226 N  
ENDROOT
BRANCH   6  11
HETATM   11  N   UNL     1      -8.944   7.449  71.309  1.00  0.00    -0.138 N  
HETATM   12  C   UNL     1      -9.162   6.628  72.395  1.00  0.00    -0.135 C  
HETATM   13  O   UNL     1     -10.122   6.784  73.149  1.00  0.00    -0.176 OA 
HETATM   14  H   UNL     1      -8.222   7.201  70.632  1.00  0.00     0.000 HD 
BRANCH  12  15
HETATM   15  C   UNL     1      -8.099   5.529  72.614  1.00  0.00    -0.106 C  
HETATM   16  H2  UNL     1      -6.765   6.359  71.230  1.00  0.00     0.000 HD 
HETATM   17  N   UNL     1      -7.188   5.455  71.440  1.00  0.00    -0.070 NA 
HETATM   18  H1  UNL     1      -6.487   4.730  71.585  1.00  0.00     0.000 HD 
BRANCH  15  19
HETATM   19  C   UNL     1      -8.693   4.175  72.960  1.00  0.00    -0.100 A  
HETATM   20  C   UNL     1      -9.194   3.879  74.239  1.00  0.00    -0.111 A  
HETATM   21  C   UNL     1      -8.802   3.194  71.959  1.00  0.00    -0.119 A  
HETATM   22  C   UNL     1      -9.457   1.986  72.213  1.00  0.00    -0.157 A  
HETATM   23  C   UNL     1      -9.856   2.676  74.488  1.00  0.00    -0.148 A  
HETATM   24  C   UNL     1     -10.000   1.736  73.472  1.00  0.00    -0.132 A  
ENDBRANCH  15  19
ENDBRANCH  12  15
ENDBRANCH   6  11
BRANCH   7  25
HETATM   25  C   UNL     1     -10.887  10.700  67.358  1.00  0.00    -0.296 C  
HETATM   26  O   UNL     1     -11.813  11.506  67.335  1.00  0.00    -0.607 OA 
BRANCH  25  27
HETATM   27  O   UNL     1      -9.669  10.948  66.797  1.00  0.00    -0.183 OA 
BRANCH  27  28
HETATM   28  C   UNL     1      -9.219  12.301  66.917  1.00  0.00    -0.209 C  
BRANCH  28  29
HETATM   29  O   UNL     1      -9.612  12.858  68.169  1.00  0.00    -0.214 OA 
BRANCH  29  30
HETATM   30  C   UNL     1      -8.974  13.996  68.545  1.00  0.00    -0.160 C  
HETATM   31  O   UNL     1      -8.404  14.150  69.616  1.00  0.00     0.440 OA 
BRANCH  30  32
HETATM   32  C   UNL     1      -9.033  15.068  67.434  1.00  0.00    -0.186 C  
HETATM   33  N   UNL     1      -8.089  16.149  67.763  1.00  0.00    -0.144 N  
HETATM   34  C   UNL     1      -8.564  17.236  68.660  1.00  0.00    -0.265 C  
HETATM   35  S   UNL     1     -10.352  16.995  68.611  1.00  0.00    -0.371 S  
HETATM   36  C   UNL     1      -7.896  18.228  67.705  1.00  0.00    -0.232 C  
HETATM   37  O   UNL     1     -10.766  16.360  69.851  1.00  0.00    -0.330 OA 
HETATM   38  O   UNL     1     -11.008  18.203  68.153  1.00  0.00    -0.213 OA 
HETATM   39  C   UNL     1     -10.421  15.736  67.291  1.00  0.00    -0.308 C  
HETATM   40  C   UNL     1      -7.605  17.006  66.822  1.00  0.00    -0.238 C  
HETATM   41  C   UNL     1     -11.633  14.814  67.478  1.00  0.00    -0.379 C  
HETATM   42  C   UNL     1     -10.597  16.419  65.917  1.00  0.00    -0.294 C  
HETATM   43  O   UNL     1      -7.304  16.803  65.670  1.00  0.00     0.280 OA 
ENDBRANCH  30  32
ENDBRANCH  29  30
ENDBRANCH  28  29
ENDBRANCH  27  28
ENDBRANCH  25  27
ENDBRANCH   7  25
TORSDOF 9
ENDMDL
MODEL      253
REMARK 921   NORMALIZED FREE ENERGY PREDICTED BY IDOCK:   -3.86 KCAL/MOL
REMARK 922        TOTAL FREE ENERGY PREDICTED BY IDOCK:   -6.39 KCAL/MOL
REMARK 923 INTER-LIGAND FREE ENERGY PREDICTED BY IDOCK:   -6.17 KCAL/MOL
REMARK 924 INTRA-LIGAND FREE ENERGY PREDICTED BY IDOCK:   -0.22 KCAL/MOL
REMARK 927      BINDING AFFINITY PREDICTED BY RF-SCORE:    0.00 PKD
ROOT
HETATM    1  C   UNL     1      -9.053  10.881  65.935  1.00  0.00    -0.212 C  
HETATM    2  C   UNL     1      -9.021  10.260  67.348  1.00  0.00    -0.135 C  
HETATM    3  S   UNL     1      -9.252  11.653  68.551  1.00  0.00    -0.121 SA 
HETATM    4  C   UNL     1     -10.210   9.294  67.411  1.00  0.00    -0.304 C  
HETATM    5  C   UNL     1      -7.432  11.873  68.853  1.00  0.00    -0.060 C  
HETATM    6  C   UNL     1      -6.668  12.890  67.959  1.00  0.00    -0.109 C  
HETATM    7  C   UNL     1      -7.641   9.653  67.715  1.00  0.00    -0.087 C  
HETATM    8  C   UNL     1      -6.245  11.631  67.157  1.00  0.00    -0.133 C  
HETATM    9  O   UNL     1      -5.799  11.400  66.056  1.00  0.00    -0.134 OA 
HETATM   10  N   UNL     1      -6.788  10.791  68.085  1.00  0.00    -0.067 N  
ENDROOT
BRANCH   6  11
HETATM   11  N   UNL     1      -7.483  13.911  67.249  1.00  0.00    -0.339 N  
HETATM   12  C   UNL     1      -7.506  15.225  67.666  1.00  0.00    -0.176 C  
HETATM   13  O   UNL     1      -6.739  15.650  68.528  1.00  0.00    -0.109 OA 
HETATM   14  H   UNL     1      -8.035  13.635  66.437  1.00  0.00     0.000 HD 
BRANCH  12  15
HETATM   15  C   UNL     1      -8.586  16.108  67.001  1.00  0.00    -0.205 C  
HETATM   16  H2  UNL     1      -9.458  14.502  65.979  1.00  0.00     0.000 HD 
HETATM   17  N   UNL     1      -9.114  15.441  65.781  1.00  0.00    -0.397 NA 
HETATM   18  H1  UNL     1      -9.826  16.024  65.342  1.00  0.00     0.000 HD 
BRANCH  15  19
HETATM   19  C   UNL     1      -8.118  17.525  66.719  1.00  0.00    -0.275 A  
HETATM   20  C   UNL     1      -7.087  17.806  65.805  1.00  0.00    -0.179 A  
HETATM   21  C   UNL     1      -8.767  18.604  67.343  1.00  0.00    -0.281 A  
HETATM   22  C   UNL     1      -8.443  19.921  67.007  1.00  0.00    -0.380 A  
HETATM   23  C   UNL     1      -6.772  19.122  65.466  1.00  0.00    -0.300 A  
HETATM   24  C   UNL     1      -7.460  20.179  66.055  1.00  0.00    -0.300 A  
ENDBRANCH  15  19
ENDBRANCH  12  15
ENDBRANCH   6  11
BRANCH   7  25
HETATM   25  C   UNL     1      -7.645   8.707  68.937  1.00  0.00    -0.092 C  
HETATM   26  O   UNL     1      -7.347   9.025  70.085  1.00  0.00    -0.052 OA 
BRANCH  25  27
HETATM   27  O   UNL     1      -8.014   7.441  68.587  1.00  0.00    -0.119 OA 
BRANCH  27  28
HETATM   28  C   UNL     1      -6.979   6.462  68.708  1.00  0.00    -0.080 C  
BRANCH  28  29
HETATM   29  O   UNL     1      -7.434   5.331  69.445  1.00  0.00    -0.063 OA 
BRANCH  29  30
HETATM   30  C   UNL     1      -8.613   5.478  70.102  1.00  0.00    -0.121 C  
HETATM   31  O   UNL     1      -9.708   5.191  69.637  1.00  0.00    -0.151 OA 
BRANCH  30  32
HETATM   32  C   UNL     1      -8.398   6.030  71.528  1.00  0.00    -0.127 C  
HETATM   33  N   UNL     1      -7.020   5.733  71.953  1.00  0.00    -0.078 N  
HETATM   34  C   UNL     1      -6.755   4.403  72.566  1.00  0.00    -0.046 C  
HETATM   35  S   UNL     1      -8.425   3.846  72.965  1.00  0.00    -0.095 S  
HETATM   36  C   UNL     1      -5.916   5.129  73.620  1.00  0.00    -0.035 C  
HETATM   37  O   UNL     1      -8.824   2.849  71.986  1.00  0.00    -0.078 OA 
HETATM   38  O   UNL     1      -8.533   3.564  74.383  1.00  0.00    -0.083 OA 
HETATM   39  C   UNL     1      -9.324   5.389  72.588  1.00  0.00    -0.140 C  
HETATM   40  C   UNL     1      -6.398   6.423  72.949  1.00  0.00    -0.059 C  
HETATM   41  C   UNL     1     -10.758   5.087  72.132  1.00  0.00    -0.227 C  
HETATM   42  C   UNL     1      -9.441   6.257  73.859  1.00  0.00    -0.165 C  
HETATM   43  O   UNL     1      -6.461   7.593  73.237  1.00  0.00    -0.063 OA 
ENDBRANCH  30  32
ENDBRANCH  29  30
ENDBRANCH  28  29
ENDBRANCH  27  28
ENDBRANCH  25  27
ENDBRANCH   7  25
TORSDOF 9
ENDMDL
MODEL      254
REMARK 921   NORMALIZED FREE ENERGY PREDICTED BY IDOCK:   -3.85 KCAL/MOL
REMARK 922        TOTAL FREE ENERGY PREDICTED BY IDOCK:   -6.37 KCAL/MOL
REMARK 923 INTER-LIGAND FREE ENERGY PREDICTED BY IDOCK:   -7.24 KCAL/MOL
REMARK 924 INTRA-LIGAND FREE ENERGY PREDICTED BY IDOCK:    0.87 KCAL/MOL
REMARK 927      BINDING AFFINITY PREDICTED BY RF-SCORE:    0.00 PKD
ROOT
HETATM    1  C   UNL     1      -6.490   7.199  69.350  1.00  0.00    -0.036 C  
HETATM    2  C   UNL     1      -6.877   8.691  69.398  1.00  0.00    -0.049 C  
HETATM    3  S   UNL     1      -8.644   8.805  68.841  1.00  0.00    -0.137 SA 
HETATM    4  C   UNL     1      -6.750   9.115  70.866  1.00  0.00    -0.087 C  
HETATM    5  C   UNL     1      -8.204   9.208  67.082  1.00  0.00    -0.113 C  
HETATM    6  C   UNL     1      -8.058   8.026  66.083  1.00  0.00    -0.111 C  
HETATM    7  C   UNL     1      -6.092   9.558  68.378  1.00  0.00    -0.044 C  
HETATM    8  C   UNL     1      -6.539   8.185  66.357  1.00  0.00    -0.051 C  
HETATM    9  O   UNL     1      -5.545   7.513  66.207  1.00  0.00    -0.027 OA 
HETATM   10  N   UNL     1      -6.735   9.327  67.077  1.00  0.00    -0.075 N  
ENDROOT
BRANCH   6  11
HETATM   11  N   UNL     1      -8.690   6.735  66.467  1.00  0.00    -0.130 N  
HETATM   12  C   UNL     1      -8.904   5.740  65.537  1.00  0.00    -0.113 C  
HETATM   13  O   UNL     1      -8.441   5.797  64.399  1.00  0.00    -0.114 OA 
HETATM   14  H   UNL     1      -8.969   6.583  67.436  1.00  0.00     0.000 HD 
BRANCH  12  15
HETATM   15  C   UNL     1      -9.794   4.571  66.018  1.00  0.00    -0.229 C  
HETATM   16  H2  UNL     1     -11.318   4.995  64.646  1.00  0.00     0.000 HD 
HETATM   17  N   UNL     1     -11.212   4.820  65.645  1.00  0.00    -0.927 NA 
HETATM   18  H1  UNL     1     -11.799   4.049  65.962  1.00  0.00     0.000 HD 
BRANCH  15  19
HETATM   19  C   UNL     1      -9.640   4.262  67.496  1.00  0.00    -0.217 A  
HETATM   20  C   UNL     1      -9.792   5.246  68.488  1.00  0.00    -0.210 A  
HETATM   21  C   UNL     1      -9.393   2.940  67.903  1.00  0.00    -0.256 A  
HETATM   22  C   UNL     1      -9.372   2.602  69.259  1.00  0.00    -0.188 A  
HETATM   23  C   UNL     1      -9.779   4.906  69.841  1.00  0.00    -0.276 A  
HETATM   24  C   UNL     1      -9.584   3.582  70.226  1.00  0.00    -0.232 A  
ENDBRANCH  15  19
ENDBRANCH  12  15
ENDBRANCH   6  11
BRANCH   7  25
HETATM   25  C   UNL     1      -6.158  11.082  68.624  1.00  0.00    -0.043 C  
HETATM   26  O   UNL     1      -5.540  11.691  69.492  1.00  0.00    -0.057 OA 
BRANCH  25  27
HETATM   27  O   UNL     1      -7.014  11.691  67.753  1.00  0.00    -0.075 OA 
BRANCH  27  28
HETATM   28  C   UNL     1      -8.150  12.310  68.364  1.00  0.00    -0.151 C  
BRANCH  28  29
HETATM   29  O   UNL     1      -7.799  13.570  68.929  1.00  0.00    -0.067 OA 
BRANCH  29  30
HETATM   30  C   UNL     1      -7.828  14.633  68.085  1.00  0.00    -0.128 C  
HETATM   31  O   UNL     1      -7.011  14.837  67.198  1.00  0.00    -0.219 OA 
BRANCH  30  32
HETATM   32  C   UNL     1      -9.044  15.543  68.367  1.00  0.00    -0.190 C  
HETATM   33  N   UNL     1     -10.076  14.759  69.065  1.00  0.00    -0.237 N  
HETATM   34  C   UNL     1     -11.025  13.966  68.236  1.00  0.00    -0.255 C  
HETATM   35  S   UNL     1     -10.778  14.695  66.603  1.00  0.00    -0.311 S  
HETATM   36  C   UNL     1     -12.145  14.479  69.144  1.00  0.00    -0.299 C  
HETATM   37  O   UNL     1      -9.973  13.782  65.808  1.00  0.00    -0.298 OA 
HETATM   38  O   UNL     1     -12.033  15.203  66.087  1.00  0.00    -0.033 OA 
HETATM   39  C   UNL     1      -9.714  16.097  67.088  1.00  0.00    -0.233 C  
HETATM   40  C   UNL     1     -11.060  15.342  69.805  1.00  0.00    -0.288 C  
HETATM   41  C   UNL     1      -8.765  16.482  65.945  1.00  0.00    -0.118 C  
HETATM   42  C   UNL     1     -10.580  17.342  67.378  1.00  0.00    -0.303 C  
HETATM   43  O   UNL     1     -11.023  16.320  70.511  1.00  0.00    -0.316 OA 
ENDBRANCH  30  32
ENDBRANCH  29  30
ENDBRANCH  28  29
ENDBRANCH  27  28
ENDBRANCH  25  27
ENDBRANCH   7  25
TORSDOF 9
ENDMDL
MODEL      255
REMARK 921   NORMALIZED FREE ENERGY PREDICTED BY IDOCK:   -3.84 KCAL/MOL
REMARK 922        TOTAL FREE ENERGY PREDICTED BY IDOCK:   -6.37 KCAL/MOL
REMARK 923 INTER-LIGAND FREE ENERGY PREDICTED BY IDOCK:   -6.28 KCAL/MOL
REMARK 924 INTRA-LIGAND FREE ENERGY PREDICTED BY IDOCK:   -0.08 KCAL/MOL
REMARK 927      BINDING AFFINITY PREDICTED BY RF-SCORE:    0.00 PKD
ROOT
HETATM    1  C   UNL     1      -8.705   8.979  70.939  1.00  0.00    -0.280 C  
HETATM    2  C   UNL     1      -9.225   9.264  69.515  1.00  0.00    -0.165 C  
HETATM    3  S   UNL     1      -9.982   7.688  68.895  1.00  0.00    -0.181 SA 
HETATM    4  C   UNL     1     -10.296  10.351  69.665  1.00  0.00    -0.261 C  
HETATM    5  C   UNL     1      -8.453   7.152  67.987  1.00  0.00    -0.122 C  
HETATM    6  C   UNL     1      -7.434   6.258  68.749  1.00  0.00    -0.088 C  
HETATM    7  C   UNL     1      -8.090   9.574  68.503  1.00  0.00    -0.101 C  
HETATM    8  C   UNL     1      -6.670   7.590  68.974  1.00  0.00    -0.049 C  
HETATM    9  O   UNL     1      -5.806   7.991  69.719  1.00  0.00    -0.023 OA 
HETATM   10  N   UNL     1      -7.509   8.273  68.142  1.00  0.00    -0.095 N  
ENDROOT
BRANCH   6  11
HETATM   11  N   UNL     1      -7.932   5.544  69.955  1.00  0.00    -0.082 N  
HETATM   12  C   UNL     1      -7.256   4.460  70.473  1.00  0.00    -0.048 C  
HETATM   13  O   UNL     1      -6.138   4.135  70.075  1.00  0.00    -0.018 OA 
HETATM   14  H   UNL     1      -8.789   5.862  70.408  1.00  0.00     0.000 HD 
BRANCH  12  15
HETATM   15  C   UNL     1      -8.018   3.666  71.559  1.00  0.00    -0.064 C  
HETATM   16  H2  UNL     1      -8.146   1.934  70.390  1.00  0.00     0.000 HD 
HETATM   17  N   UNL     1      -8.759   2.534  70.941  1.00  0.00    -0.060 NA 
HETATM   18  H1  UNL     1      -9.261   2.010  71.657  1.00  0.00     0.000 HD 
BRANCH  15  19
HETATM   19  C   UNL     1      -8.920   4.533  72.420  1.00  0.00    -0.139 A  
HETATM   20  C   UNL     1      -8.416   5.356  73.442  1.00  0.00    -0.116 A  
HETATM   21  C   UNL     1     -10.300   4.567  72.158  1.00  0.00    -0.233 A  
HETATM   22  C   UNL     1     -11.136   5.448  72.849  1.00  0.00    -0.360 A  
HETATM   23  C   UNL     1      -9.251   6.242  74.124  1.00  0.00    -0.164 A  
HETATM   24  C   UNL     1     -10.607   6.299  73.818  1.00  0.00    -0.261 A  
ENDBRANCH  15  19
ENDBRANCH  12  15
ENDBRANCH   6  11
BRANCH   7  25
HETATM   25  C   UNL     1      -8.551  10.219  67.177  1.00  0.00    -0.126 C  
HETATM   26  O   UNL     1      -7.973  11.130  66.590  1.00  0.00    -0.149 OA 
BRANCH  25  27
HETATM   27  O   UNL     1      -9.710   9.659  66.726  1.00  0.00    -0.174 OA 
BRANCH  27  28
HETATM   28  C   UNL     1     -10.519  10.523  65.922  1.00  0.00    -0.153 C  
BRANCH  28  29
HETATM   29  O   UNL     1     -11.541  11.133  66.704  1.00  0.00    -0.330 OA 
BRANCH  29  30
HETATM   30  C   UNL     1     -11.834  12.425  66.404  1.00  0.00    -0.354 C  
HETATM   31  O   UNL     1     -12.853  12.792  65.834  1.00  0.00    -0.299 OA 
BRANCH  30  32
HETATM   32  C   UNL     1     -10.728  13.382  66.900  1.00  0.00    -0.273 C  
HETATM   33  N   UNL     1     -11.329  14.387  67.792  1.00  0.00    -0.296 N  
HETATM   34  C   UNL     1     -11.924  15.601  67.169  1.00  0.00     0.576 C  
HETATM   35  S   UNL     1     -11.218  15.542  65.509  1.00  0.00    -0.123 S  
HETATM   36  C   UNL     1     -11.238  16.419  68.267  1.00  0.00    -0.300 C  
HETATM   37  O   UNL     1     -12.242  15.079  64.589  1.00  0.00    -0.380 OA 
HETATM   38  O   UNL     1     -10.483  16.761  65.234  1.00  0.00    -0.630 OA 
HETATM   39  C   UNL     1     -10.037  14.173  65.764  1.00  0.00    -0.333 C  
HETATM   40  C   UNL     1     -10.596  15.092  68.697  1.00  0.00    -0.234 C  
HETATM   41  C   UNL     1      -9.803  13.404  64.456  1.00  0.00     0.108 C  
HETATM   42  C   UNL     1      -8.664  14.731  66.196  1.00  0.00     0.222 C  
HETATM   43  O   UNL     1      -9.655  14.748  69.370  1.00  0.00    -0.125 OA 
ENDBRANCH  30  32
ENDBRANCH  29  30
ENDBRANCH  28  29
ENDBRANCH  27  28
ENDBRANCH  25  27
ENDBRANCH   7  25
TORSDOF 9
ENDMDL
MODEL      256
REMARK 921   NORMALIZED FREE ENERGY PREDICTED BY IDOCK:   -3.84 KCAL/MOL
REMARK 922        TOTAL FREE ENERGY PREDICTED BY IDOCK:   -6.36 KCAL/MOL
REMARK 923 INTER-LIGAND FREE ENERGY PREDICTED BY IDOCK:   -6.87 KCAL/MOL
REMARK 924 INTRA-LIGAND FREE ENERGY PREDICTED BY IDOCK:    0.51 KCAL/MOL
REMARK 927      BINDING AFFINITY PREDICTED BY RF-SCORE:    0.00 PKD
ROOT
HETATM    1  C   UNL     1      -7.986  11.574  66.653  1.00  0.00    -0.127 C  
HETATM    2  C   UNL     1      -8.931  10.465  66.144  1.00  0.00    -0.157 C  
HETATM    3  S   UNL     1     -10.664  11.073  66.410  1.00  0.00    -0.186 SA 
HETATM    4  C   UNL     1      -8.639  10.316  64.646  1.00  0.00    -0.194 C  
HETATM    5  C   UNL     1     -10.869  10.190  68.031  1.00  0.00    -0.270 C  
HETATM    6  C   UNL     1     -10.494  10.961  69.328  1.00  0.00    -0.202 C  
HETATM    7  C   UNL     1      -8.845   9.160  66.979  1.00  0.00    -0.123 C  
HETATM    8  C   UNL     1      -9.160  10.177  69.224  1.00  0.00    -0.198 C  
HETATM    9  O   UNL     1      -8.045  10.275  69.683  1.00  0.00    -0.166 OA 
HETATM   10  N   UNL     1      -9.628   9.410  68.196  1.00  0.00    -0.141 N  
ENDROOT
BRANCH   6  11
HETATM   11  N   UNL     1     -10.424  12.444  69.236  1.00  0.00    -0.419 N  
HETATM   12  C   UNL     1     -11.442  13.239  69.716  1.00  0.00    -0.158 C  
HETATM   13  O   UNL     1     -12.368  12.782  70.385  1.00  0.00    -0.318 OA 
HETATM   14  H   UNL     1      -9.607  12.881  68.809  1.00  0.00     0.000 HD 
BRANCH  12  15
HETATM   15  C   UNL     1     -11.354  14.731  69.323  1.00  0.00    -0.294 C  
HETATM   16  H2  UNL     1     -12.420  15.374  71.007  1.00  0.00     0.000 HD 
HETATM   17  N   UNL     1     -12.433  15.503  69.996  1.00  0.00    -0.548 NA 
HETATM   18  H1  UNL     1     -12.375  16.487  69.737  1.00  0.00     0.000 HD 
BRANCH  15  19
HETATM   19  C   UNL     1     -11.342  14.961  67.822  1.00  0.00    -0.341 A  
HETATM   20  C   UNL     1     -10.334  15.704  67.185  1.00  0.00    -0.285 A  
HETATM   21  C   UNL     1     -12.335  14.367  67.024  1.00  0.00    -0.133 A  
HETATM   22  C   UNL     1     -12.278  14.455  65.631  1.00  0.00    -0.352 A  
HETATM   23  C   UNL     1     -10.274  15.784  65.793  1.00  0.00    -0.394 A  
HETATM   24  C   UNL     1     -11.237  15.147  65.016  1.00  0.00    -0.414 A  
ENDBRANCH  15  19
ENDBRANCH  12  15
ENDBRANCH   6  11
BRANCH   7  25
HETATM   25  C   UNL     1      -9.472   7.913  66.315  1.00  0.00    -0.151 C  
HETATM   26  O   UNL     1      -8.861   7.067  65.670  1.00  0.00    -0.118 OA 
BRANCH  25  27
HETATM   27  O   UNL     1     -10.820   7.865  66.520  1.00  0.00     0.052 OA 
BRANCH  27  28
HETATM   28  C   UNL     1     -11.322   6.578  66.892  1.00  0.00     0.083 C  
BRANCH  28  29
HETATM   29  O   UNL     1     -10.479   5.964  67.862  1.00  0.00    -0.191 OA 
BRANCH  29  30
HETATM   30  C   UNL     1      -9.770   4.885  67.443  1.00  0.00    -0.165 C  
HETATM   31  O   UNL     1      -9.983   4.276  66.403  1.00  0.00    -0.221 OA 
BRANCH  30  32
HETATM   32  C   UNL     1      -8.637   4.537  68.432  1.00  0.00    -0.094 C  
HETATM   33  N   UNL     1      -7.644   5.624  68.425  1.00  0.00    -0.081 N  
HETATM   34  C   UNL     1      -6.577   5.584  67.389  1.00  0.00    -0.053 C  
HETATM   35  S   UNL     1      -6.690   3.875  66.816  1.00  0.00    -0.047 S  
HETATM   36  C   UNL     1      -5.584   5.961  68.490  1.00  0.00    -0.011 C  
HETATM   37  O   UNL     1      -7.362   3.864  65.528  1.00  0.00    -0.070 OA 
HETATM   38  O   UNL     1      -5.415   3.207  66.983  1.00  0.00    -0.018 OA 
HETATM   39  C   UNL     1      -7.866   3.247  68.064  1.00  0.00    -0.063 C  
HETATM   40  C   UNL     1      -6.772   5.824  69.452  1.00  0.00    -0.060 C  
HETATM   41  C   UNL     1      -8.710   2.101  67.489  1.00  0.00    -0.141 C  
HETATM   42  C   UNL     1      -7.098   2.665  69.270  1.00  0.00    -0.044 C  
HETATM   43  O   UNL     1      -6.931   5.689  70.641  1.00  0.00    -0.053 OA 
ENDBRANCH  30  32
ENDBRANCH  29  30
ENDBRANCH  28  29
ENDBRANCH  27  28
ENDBRANCH  25  27
ENDBRANCH   7  25
TORSDOF 9
ENDMDL
MODEL      257
REMARK 921   NORMALIZED FREE ENERGY PREDICTED BY IDOCK:   -3.84 KCAL/MOL
REMARK 922        TOTAL FREE ENERGY PREDICTED BY IDOCK:   -6.36 KCAL/MOL
REMARK 923 INTER-LIGAND FREE ENERGY PREDICTED BY IDOCK:   -5.87 KCAL/MOL
REMARK 924 INTRA-LIGAND FREE ENERGY PREDICTED BY IDOCK:   -0.49 KCAL/MOL
REMARK 927      BINDING AFFINITY PREDICTED BY RF-SCORE:    0.00 PKD
ROOT
HETATM    1  C   UNL     1     -11.977  12.795  65.120  1.00  0.00    -0.466 C  
HETATM    2  C   UNL     1     -11.372  13.966  65.923  1.00  0.00    -0.313 C  
HETATM    3  S   UNL     1      -9.528  13.779  65.839  1.00  0.00     0.055 SA 
HETATM    4  C   UNL     1     -11.816  15.246  65.204  1.00  0.00    -0.035 C  
HETATM    5  C   UNL     1      -9.407  12.896  67.468  1.00  0.00    -0.190 C  
HETATM    6  C   UNL     1      -9.476  11.342  67.456  1.00  0.00    -0.167 C  
HETATM    7  C   UNL     1     -11.700  13.899  67.439  1.00  0.00    -0.389 C  
HETATM    8  C   UNL     1     -10.964  11.560  67.838  1.00  0.00    -0.233 C  
HETATM    9  O   UNL     1     -11.980  10.903  67.820  1.00  0.00    -0.553 OA 
HETATM   10  N   UNL     1     -10.781  12.902  68.004  1.00  0.00    -0.222 N  
ENDROOT
BRANCH   6  11
HETATM   11  N   UNL     1      -9.195  10.664  66.163  1.00  0.00    -0.167 N  
HETATM   12  C   UNL     1      -7.902  10.438  65.740  1.00  0.00    -0.150 C  
HETATM   13  O   UNL     1      -6.932  10.629  66.472  1.00  0.00    -0.109 OA 
HETATM   14  H   UNL     1      -9.973  10.359  65.577  1.00  0.00     0.000 HD 
BRANCH  12  15
HETATM   15  C   UNL     1      -7.761   9.964  64.276  1.00  0.00    -0.139 C  
HETATM   16  H2  UNL     1      -9.157  11.349  63.555  1.00  0.00     0.000 HD 
HETATM   17  N   UNL     1      -8.967  10.349  63.494  1.00  0.00    -0.211 NA 
HETATM   18  H1  UNL     1      -8.874  10.037  62.528  1.00  0.00     0.000 HD 
BRANCH  15  19
HETATM   19  C   UNL     1      -7.448   8.484  64.147  1.00  0.00    -0.112 A  
HETATM   20  C   UNL     1      -8.160   7.502  64.856  1.00  0.00    -0.121 A  
HETATM   21  C   UNL     1      -6.452   8.065  63.248  1.00  0.00    -0.076 A  
HETATM   22  C   UNL     1      -6.228   6.706  63.015  1.00  0.00    -0.042 A  
HETATM   23  C   UNL     1      -7.942   6.145  64.615  1.00  0.00    -0.124 A  
HETATM   24  C   UNL     1      -6.986   5.747  63.684  1.00  0.00    -0.046 A  
ENDBRANCH  15  19
ENDBRANCH  12  15
ENDBRANCH   6  11
BRANCH   7  25
HETATM   25  C   UNL     1     -11.449  15.206  68.223  1.00  0.00    -0.336 C  
HETATM   26  O   UNL     1     -11.560  16.341  67.769  1.00  0.00    -0.079 OA 
BRANCH  25  27
HETATM   27  O   UNL     1     -11.066  14.951  69.507  1.00  0.00    -0.260 OA 
BRANCH  27  28
HETATM   28  C   UNL     1     -10.047  15.820  70.011  1.00  0.00    -0.167 C  
BRANCH  28  29
HETATM   29  O   UNL     1      -8.774  15.476  69.474  1.00  0.00    -0.261 OA 
BRANCH  29  30
HETATM   30  C   UNL     1      -7.909  16.504  69.276  1.00  0.00    -0.121 C  
HETATM   31  O   UNL     1      -6.815  16.604  69.816  1.00  0.00    -0.145 OA 
BRANCH  30  32
HETATM   32  C   UNL     1      -8.468  17.522  68.259  1.00  0.00    -0.266 C  
HETATM   33  N   UNL     1      -7.604  17.532  67.067  1.00  0.00    -0.197 N  
HETATM   34  C   UNL     1      -6.400  18.407  67.089  1.00  0.00    -0.174 C  
HETATM   35  S   UNL     1      -6.768  19.497  68.480  1.00  0.00    -0.301 S  
HETATM   36  C   UNL     1      -6.763  18.831  65.664  1.00  0.00    -0.311 C  
HETATM   37  O   UNL     1      -5.969  19.078  69.619  1.00  0.00    -0.244 OA 
HETATM   38  O   UNL     1      -6.757  20.881  68.048  1.00  0.00    -0.307 OA 
HETATM   39  C   UNL     1      -8.491  18.977  68.786  1.00  0.00    -0.324 C  
HETATM   40  C   UNL     1      -8.032  17.988  65.858  1.00  0.00    -0.021 C  
HETATM   41  C   UNL     1      -8.858  19.148  70.267  1.00  0.00     1.726 C  
HETATM   42  C   UNL     1      -9.464  19.869  67.986  1.00  0.00    -0.458 C  
HETATM   43  O   UNL     1      -9.115  17.895  65.333  1.00  0.00     0.181 OA 
ENDBRANCH  30  32
ENDBRANCH  29  30
ENDBRANCH  28  29
ENDBRANCH  27  28
ENDBRANCH  25  27
ENDBRANCH   7  25
TORSDOF 9
ENDMDL
MODEL      258
REMARK 921   NORMALIZED FREE ENERGY PREDICTED BY IDOCK:   -3.80 KCAL/MOL
REMARK 922        TOTAL FREE ENERGY PREDICTED BY IDOCK:   -6.30 KCAL/MOL
REMARK 923 INTER-LIGAND FREE ENERGY PREDICTED BY IDOCK:   -5.95 KCAL/MOL
REMARK 924 INTRA-LIGAND FREE ENERGY PREDICTED BY IDOCK:   -0.35 KCAL/MOL
REMARK 927      BINDING AFFINITY PREDICTED BY RF-SCORE:    0.00 PKD
ROOT
HETATM    1  C   UNL     1      -8.013  12.250  68.700  1.00  0.00    -0.050 C  
HETATM    2  C   UNL     1      -7.041  11.052  68.760  1.00  0.00    -0.086 C  
HETATM    3  S   UNL     1      -7.200  10.151  67.146  1.00  0.00    -0.091 SA 
HETATM    4  C   UNL     1      -5.638  11.653  68.904  1.00  0.00    -0.049 C  
HETATM    5  C   UNL     1      -8.415   8.910  67.804  1.00  0.00    -0.125 C  
HETATM    6  C   UNL     1      -9.929   9.236  67.669  1.00  0.00    -0.196 C  
HETATM    7  C   UNL     1      -7.436  10.002  69.832  1.00  0.00    -0.167 C  
HETATM    8  C   UNL     1      -9.803   9.694  69.146  1.00  0.00    -0.186 C  
HETATM    9  O   UNL     1     -10.444  10.380  69.910  1.00  0.00    -0.255 OA 
HETATM   10  N   UNL     1      -8.529   9.217  69.242  1.00  0.00    -0.132 N  
ENDROOT
BRANCH   6  11
HETATM   11  N   UNL     1     -10.311  10.264  66.664  1.00  0.00    -0.230 N  
HETATM   12  C   UNL     1     -10.101  10.060  65.317  1.00  0.00    -0.229 C  
HETATM   13  O   UNL     1      -9.750   8.970  64.868  1.00  0.00     0.190 OA 
HETATM   14  H   UNL     1     -10.736  11.137  66.978  1.00  0.00     0.000 HD 
BRANCH  12  15
HETATM   15  C   UNL     1     -10.304  11.305  64.423  1.00  0.00    -0.329 C  
HETATM   16  H2  UNL     1      -8.744  10.789  63.125  1.00  0.00     0.000 HD 
HETATM   17  N   UNL     1      -9.060  11.597  63.661  1.00  0.00    -0.466 NA 
HETATM   18  H1  UNL     1      -9.194  12.417  63.072  1.00  0.00     0.000 HD 
BRANCH  15  19
HETATM   19  C   UNL     1     -10.804  12.520  65.184  1.00  0.00    -0.323 A  
HETATM   20  C   UNL     1      -9.930  13.430  65.803  1.00  0.00    -0.264 A  
HETATM   21  C   UNL     1     -12.183  12.786  65.229  1.00  0.00    -0.535 A  
HETATM   22  C   UNL     1     -12.664  13.962  65.812  1.00  0.00    -0.503 A  
HETATM   23  C   UNL     1     -10.411  14.607  66.376  1.00  0.00    -0.296 A  
HETATM   24  C   UNL     1     -11.776  14.880  66.368  1.00  0.00    -0.193 A  
ENDBRANCH  15  19
ENDBRANCH  12  15
ENDBRANCH   6  11
BRANCH   7  25
HETATM   25  C   UNL     1      -6.328   8.987  70.195  1.00  0.00    -0.043 C  
HETATM   26  O   UNL     1      -5.772   8.900  71.286  1.00  0.00    -0.037 OA 
BRANCH  25  27
HETATM   27  O   UNL     1      -6.019   8.186  69.135  1.00  0.00    -0.036 OA 
BRANCH  27  28
HETATM   28  C   UNL     1      -5.843   6.804  69.461  1.00  0.00    -0.015 C  
BRANCH  28  29
HETATM   29  O   UNL     1      -7.045   6.073  69.242  1.00  0.00    -0.062 OA 
BRANCH  29  30
HETATM   30  C   UNL     1      -6.963   5.030  68.377  1.00  0.00    -0.057 C  
HETATM   31  O   UNL     1      -6.270   4.037  68.551  1.00  0.00    -0.030 OA 
BRANCH  30  32
HETATM   32  C   UNL     1      -7.879   5.241  67.151  1.00  0.00    -0.100 C  
HETATM   33  N   UNL     1      -8.654   4.011  66.916  1.00  0.00    -0.104 N  
HETATM   34  C   UNL     1      -8.024   2.939  66.100  1.00  0.00    -0.082 C  
HETATM   35  S   UNL     1      -6.663   3.830  65.316  1.00  0.00    -0.046 S  
HETATM   36  C   UNL     1      -9.364   2.793  65.376  1.00  0.00    -0.079 C  
HETATM   37  O   UNL     1      -5.427   3.467  65.988  1.00  0.00    -0.015 OA 
HETATM   38  O   UNL     1      -6.768   3.734  63.874  1.00  0.00    -0.041 OA 
HETATM   39  C   UNL     1      -7.107   5.521  65.840  1.00  0.00    -0.068 C  
HETATM   40  C   UNL     1      -9.815   4.004  66.204  1.00  0.00    -0.162 C  
HETATM   41  C   UNL     1      -5.854   6.398  65.973  1.00  0.00    -0.025 C  
HETATM   42  C   UNL     1      -8.000   6.189  64.772  1.00  0.00    -0.124 C  
HETATM   43  O   UNL     1     -10.699   4.825  66.154  1.00  0.00    -0.308 OA 
ENDBRANCH  30  32
ENDBRANCH  29  30
ENDBRANCH  28  29
ENDBRANCH  27  28
ENDBRANCH  25  27
ENDBRANCH   7  25
TORSDOF 9
ENDMDL
MODEL      259
REMARK 921   NORMALIZED FREE ENERGY PREDICTED BY IDOCK:   -3.73 KCAL/MOL
REMARK 922        TOTAL FREE ENERGY PREDICTED BY IDOCK:   -6.19 KCAL/MOL
REMARK 923 INTER-LIGAND FREE ENERGY PREDICTED BY IDOCK:   -6.68 KCAL/MOL
REMARK 924 INTRA-LIGAND FREE ENERGY PREDICTED BY IDOCK:    0.49 KCAL/MOL
REMARK 927      BINDING AFFINITY PREDICTED BY RF-SCORE:    0.00 PKD
ROOT
HETATM    1  C   UNL     1      -8.629  10.365  67.838  1.00  0.00    -0.118 C  
HETATM    2  C   UNL     1      -9.683  10.622  66.740  1.00  0.00    -0.185 C  
HETATM    3  S   UNL     1      -9.966   9.003  65.879  1.00  0.00     0.071 SA 
HETATM    4  C   UNL     1     -10.954  11.071  67.471  1.00  0.00    -0.338 C  
HETATM    5  C   UNL     1      -8.773   9.371  64.505  1.00  0.00    -0.203 C  
HETATM    6  C   UNL     1      -7.297   8.915  64.685  1.00  0.00    -0.101 C  
HETATM    7  C   UNL     1      -9.177  11.573  65.623  1.00  0.00    -0.170 C  
HETATM    8  C   UNL     1      -7.056  10.388  65.107  1.00  0.00    -0.080 C  
HETATM    9  O   UNL     1      -6.200  11.002  65.702  1.00  0.00    -0.075 OA 
HETATM   10  N   UNL     1      -8.323  10.753  64.754  1.00  0.00    -0.065 N  
ENDROOT
BRANCH   6  11
HETATM   11  N   UNL     1      -7.036   7.861  65.703  1.00  0.00    -0.053 N  
HETATM   12  C   UNL     1      -5.902   7.891  66.487  1.00  0.00    -0.040 C  
HETATM   13  O   UNL     1      -5.145   8.860  66.505  1.00  0.00    -0.033 OA 
HETATM   14  H   UNL     1      -7.708   7.103  65.823  1.00  0.00     0.000 HD 
BRANCH  12  15
HETATM   15  C   UNL     1      -5.636   6.609  67.308  1.00  0.00    -0.013 C  
HETATM   16  H2  UNL     1      -5.723   5.358  65.630  1.00  0.00     0.000 HD 
HETATM   17  N   UNL     1      -6.124   5.415  66.566  1.00  0.00    -0.029 NA 
HETATM   18  H1  UNL     1      -5.948   4.569  67.108  1.00  0.00     0.000 HD 
BRANCH  15  19
HETATM   19  C   UNL     1      -6.193   6.669  68.719  1.00  0.00    -0.027 A  
HETATM   20  C   UNL     1      -5.390   6.977  69.830  1.00  0.00    -0.019 A  
HETATM   21  C   UNL     1      -7.569   6.468  68.928  1.00  0.00    -0.100 A  
HETATM   22  C   UNL     1      -8.131   6.641  70.195  1.00  0.00    -0.124 A  
HETATM   23  C   UNL     1      -5.955   7.158  71.094  1.00  0.00    -0.036 A  
HETATM   24  C   UNL     1      -7.327   7.005  71.273  1.00  0.00    -0.080 A  
ENDBRANCH  15  19
ENDBRANCH  12  15
ENDBRANCH   6  11
BRANCH   7  25
HETATM   25  C   UNL     1     -10.280  12.157  64.711  1.00  0.00    -0.281 C  
HETATM   26  O   UNL     1     -10.918  11.526  63.873  1.00  0.00    -0.364 OA 
BRANCH  25  27
HETATM   27  O   UNL     1     -10.460  13.490  64.936  1.00  0.00    -0.360 OA 
BRANCH  27  28
HETATM   28  C   UNL     1      -9.359  14.142  65.576  1.00  0.00     0.330 C  
BRANCH  28  29
HETATM   29  O   UNL     1      -9.608  15.537  65.720  1.00  0.00    -0.337 OA 
BRANCH  29  30
HETATM   30  C   UNL     1     -10.510  15.889  66.671  1.00  0.00    -0.306 C  
HETATM   31  O   UNL     1     -11.315  15.122  67.182  1.00  0.00    -0.338 OA 
BRANCH  30  32
HETATM   32  C   UNL     1     -10.376  17.380  67.051  1.00  0.00    -0.318 C  
HETATM   33  N   UNL     1      -9.327  17.993  66.220  1.00  0.00    -0.251 N  
HETATM   34  C   UNL     1      -7.918  17.879  66.684  1.00  0.00    -0.249 C  
HETATM   35  S   UNL     1      -8.141  17.394  68.409  1.00  0.00    -0.271 S  
HETATM   36  C   UNL     1      -7.747  19.355  66.318  1.00  0.00    -0.308 C  
HETATM   37  O   UNL     1      -7.855  15.974  68.528  1.00  0.00    -0.146 OA 
HETATM   38  O   UNL     1      -7.491  18.348  69.285  1.00  0.00    -0.165 OA 
HETATM   39  C   UNL     1      -9.950  17.610  68.520  1.00  0.00    -0.368 C  
HETATM   40  C   UNL     1      -9.251  19.336  66.012  1.00  0.00    -0.136 C  
HETATM   41  C   UNL     1     -10.552  16.646  69.553  1.00  0.00    -0.308 C  
HETATM   42  C   UNL     1     -10.284  19.037  69.006  1.00  0.00    -0.221 C  
HETATM   43  O   UNL     1     -10.132  20.151  65.876  1.00  0.00    -0.463 OA 
ENDBRANCH  30  32
ENDBRANCH  29  30
ENDBRANCH  28  29
ENDBRANCH  27  28
ENDBRANCH  25  27
ENDBRANCH   7  25
TORSDOF 9
ENDMDL
MODEL      260
REMARK 921   NORMALIZED FREE ENERGY PREDICTED BY IDOCK:   -3.71 KCAL/MOL
REMARK 922        TOTAL FREE ENERGY PREDICTED BY IDOCK:   -6.16 KCAL/MOL
REMARK 923 INTER-LIGAND FREE ENERGY PREDICTED BY IDOCK:   -5.84 KCAL/MOL
REMARK 924 INTRA-LIGAND FREE ENERGY PREDICTED BY IDOCK:   -0.32 KCAL/MOL
REMARK 927      BINDING AFFINITY PREDICTED BY RF-SCORE:    0.00 PKD
ROOT
HETATM    1  C   UNL     1      -6.918   6.519  68.824  1.00  0.00    -0.080 C  
HETATM    2  C   UNL     1      -8.257   7.245  68.578  1.00  0.00    -0.125 C  
HETATM    3  S   UNL     1      -9.267   6.147  67.475  1.00  0.00    -0.110 SA 
HETATM    4  C   UNL     1      -8.923   7.382  69.953  1.00  0.00    -0.141 C  
HETATM    5  C   UNL     1      -8.765   7.024  65.916  1.00  0.00    -0.126 C  
HETATM    6  C   UNL     1      -7.518   6.492  65.155  1.00  0.00    -0.083 C  
HETATM    7  C   UNL     1      -8.098   8.563  67.774  1.00  0.00    -0.115 C  
HETATM    8  C   UNL     1      -6.776   7.644  65.882  1.00  0.00    -0.046 C  
HETATM    9  O   UNL     1      -5.627   7.926  66.136  1.00  0.00    -0.031 OA 
HETATM   10  N   UNL     1      -7.941   8.159  66.370  1.00  0.00    -0.102 N  
ENDROOT
BRANCH   6  11
HETATM   11  N   UNL     1      -7.085   5.101  65.458  1.00  0.00    -0.066 N  
HETATM   12  C   UNL     1      -7.318   4.071  64.572  1.00  0.00    -0.071 C  
HETATM   13  O   UNL     1      -7.736   4.271  63.432  1.00  0.00    -0.064 OA 
HETATM   14  H   UNL     1      -6.607   4.906  66.337  1.00  0.00     0.000 HD 
BRANCH  12  15
HETATM   15  C   UNL     1      -7.050   2.653  65.125  1.00  0.00    -0.057 C  
HETATM   16  H2  UNL     1      -7.791   1.702  63.413  1.00  0.00     0.000 HD 
HETATM   17  N   UNL     1      -7.907   1.660  64.425  1.00  0.00    -0.064 NA 
HETATM   18  H1  UNL     1      -7.730   0.724  64.790  1.00  0.00     0.000 HD 
BRANCH  15  19
HETATM   19  C   UNL     1      -7.185   2.558  66.634  1.00  0.00    -0.057 A  
HETATM   20  C   UNL     1      -8.427   2.382  67.267  1.00  0.00    -0.106 A  
HETATM   21  C   UNL     1      -6.029   2.589  67.434  1.00  0.00    -0.023 A  
HETATM   22  C   UNL     1      -6.110   2.377  68.813  1.00  0.00    -0.025 A  
HETATM   23  C   UNL     1      -8.505   2.162  68.643  1.00  0.00    -0.086 A  
HETATM   24  C   UNL     1      -7.346   2.145  69.413  1.00  0.00    -0.043 A  
ENDBRANCH  15  19
ENDBRANCH  12  15
ENDBRANCH   6  11
BRANCH   7  25
HETATM   25  C   UNL     1      -9.320   9.507  67.814  1.00  0.00    -0.127 C  
HETATM   26  O   UNL     1     -10.174   9.604  66.937  1.00  0.00    -0.216 OA 
BRANCH  25  27
HETATM   27  O   UNL     1      -9.338  10.252  68.957  1.00  0.00    -0.169 OA 
BRANCH  27  28
HETATM   28  C   UNL     1      -8.261  11.185  69.079  1.00  0.00    -0.062 C  
BRANCH  28  29
HETATM   29  O   UNL     1      -7.960  11.781  67.821  1.00  0.00    -0.125 OA 
BRANCH  29  30
HETATM   30  C   UNL     1      -7.965  13.138  67.785  1.00  0.00    -0.162 C  
HETATM   31  O   UNL     1      -7.091  13.822  67.270  1.00  0.00    -0.132 OA 
BRANCH  30  32
HETATM   32  C   UNL     1      -9.233  13.715  68.453  1.00  0.00    -0.169 C  
HETATM   33  N   UNL     1     -10.408  13.343  67.649  1.00  0.00    -0.235 N  
HETATM   34  C   UNL     1     -10.770  14.218  66.501  1.00  0.00    -0.297 C  
HETATM   35  S   UNL     1      -9.821  15.710  66.867  1.00  0.00    -0.245 S  
HETATM   36  C   UNL     1     -12.226  14.104  66.957  1.00  0.00    -0.374 C  
HETATM   37  O   UNL     1      -8.663  15.746  65.990  1.00  0.00    -0.313 OA 
HETATM   38  O   UNL     1     -10.705  16.855  66.961  1.00  0.00    -0.267 OA 
HETATM   39  C   UNL     1      -9.241  15.260  68.538  1.00  0.00    -0.200 C  
HETATM   40  C   UNL     1     -11.670  13.331  68.161  1.00  0.00    -0.362 C  
HETATM   41  C   UNL     1      -7.890  15.923  68.844  1.00  0.00    -0.198 C  
HETATM   42  C   UNL     1     -10.234  15.778  69.601  1.00  0.00    -0.289 C  
HETATM   43  O   UNL     1     -12.057  13.018  69.261  1.00  0.00    -0.278 OA 
ENDBRANCH  30  32
ENDBRANCH  29  30
ENDBRANCH  28  29
ENDBRANCH  27  28
ENDBRANCH  25  27
ENDBRANCH   7  25
TORSDOF 9
ENDMDL
MODEL      261
REMARK 921   NORMALIZED FREE ENERGY PREDICTED BY IDOCK:   -3.66 KCAL/MOL
REMARK 922        TOTAL FREE ENERGY PREDICTED BY IDOCK:   -6.09 KCAL/MOL
REMARK 923 INTER-LIGAND FREE ENERGY PREDICTED BY IDOCK:   -5.79 KCAL/MOL
REMARK 924 INTRA-LIGAND FREE ENERGY PREDICTED BY IDOCK:   -0.30 KCAL/MOL
REMARK 927      BINDING AFFINITY PREDICTED BY RF-SCORE:    0.00 PKD
ROOT
HETATM    1  C   UNL     1     -10.259   8.683  67.588  1.00  0.00    -0.300 C  
HETATM    2  C   UNL     1      -8.825   9.126  67.231  1.00  0.00    -0.124 C  
HETATM    3  S   UNL     1      -7.690   7.764  67.779  1.00  0.00    -0.124 SA 
HETATM    4  C   UNL     1      -8.794   9.268  65.704  1.00  0.00    -0.216 C  
HETATM    5  C   UNL     1      -7.292   8.567  69.405  1.00  0.00    -0.069 C  
HETATM    6  C   UNL     1      -8.177   8.202  70.630  1.00  0.00    -0.114 C  
HETATM    7  C   UNL     1      -8.354  10.369  68.031  1.00  0.00    -0.118 C  
HETATM    8  C   UNL     1      -8.905   9.533  70.305  1.00  0.00    -0.243 C  
HETATM    9  O   UNL     1      -9.968  10.042  70.578  1.00  0.00    -0.186 OA 
HETATM   10  N   UNL     1      -7.979   9.871  69.362  1.00  0.00    -0.121 N  
ENDROOT
BRANCH   6  11
HETATM   11  N   UNL     1      -8.973   6.948  70.538  1.00  0.00    -0.155 N  
HETATM   12  C   UNL     1      -9.056   6.075  71.602  1.00  0.00    -0.142 C  
HETATM   13  O   UNL     1      -8.624   6.361  72.718  1.00  0.00    -0.125 OA 
HETATM   14  H   UNL     1      -9.466   6.731  69.673  1.00  0.00     0.000 HD 
BRANCH  12  15
HETATM   15  C   UNL     1      -9.694   4.705  71.280  1.00  0.00    -0.182 C  
HETATM   16  H2  UNL     1     -11.354   5.554  70.327  1.00  0.00     0.000 HD 
HETATM   17  N   UNL     1     -11.155   4.862  71.049  1.00  0.00     0.404 NA 
HETATM   18  H1  UNL     1     -11.576   3.958  70.837  1.00  0.00     0.000 HD 
BRANCH  15  19
HETATM   19  C   UNL     1      -9.394   3.639  72.320  1.00  0.00    -0.177 A  
HETATM   20  C   UNL     1      -8.231   2.851  72.273  1.00  0.00    -0.055 A  
HETATM   21  C   UNL     1     -10.273   3.465  73.403  1.00  0.00    -0.217 A  
HETATM   22  C   UNL     1      -9.960   2.583  74.440  1.00  0.00    -0.156 A  
HETATM   23  C   UNL     1      -7.917   1.977  73.314  1.00  0.00    -0.046 A  
HETATM   24  C   UNL     1      -8.773   1.854  74.404  1.00  0.00    -0.058 A  
ENDBRANCH  15  19
ENDBRANCH  12  15
ENDBRANCH   6  11
BRANCH   7  25
HETATM   25  C   UNL     1      -7.100  11.075  67.469  1.00  0.00    -0.091 C  
HETATM   26  O   UNL     1      -5.970  11.003  67.944  1.00  0.00    -0.046 OA 
BRANCH  25  27
HETATM   27  O   UNL     1      -7.398  11.818  66.365  1.00  0.00     0.023 OA 
BRANCH  27  28
HETATM   28  C   UNL     1      -8.481  12.737  66.538  1.00  0.00     0.165 C  
BRANCH  28  29
HETATM   29  O   UNL     1      -8.020  13.970  67.081  1.00  0.00    -0.157 OA 
BRANCH  29  30
HETATM   30  C   UNL     1      -8.751  15.072  66.773  1.00  0.00    -0.260 C  
HETATM   31  O   UNL     1      -9.319  15.251  65.703  1.00  0.00    -0.282 OA 
BRANCH  30  32
HETATM   32  C   UNL     1      -8.802  16.064  67.955  1.00  0.00    -0.175 C  
HETATM   33  N   UNL     1      -9.972  16.942  67.793  1.00  0.00    -0.269 N  
HETATM   34  C   UNL     1      -9.817  18.157  66.948  1.00  0.00    -0.330 C  
HETATM   35  S   UNL     1      -8.020  18.291  66.830  1.00  0.00    -0.253 S  
HETATM   36  C   UNL     1     -10.574  18.928  68.031  1.00  0.00    -0.376 C  
HETATM   37  O   UNL     1      -7.609  17.832  65.514  1.00  0.00    -0.489 OA 
HETATM   38  O   UNL     1      -7.581  19.579  67.327  1.00  0.00    -0.238 OA 
HETATM   39  C   UNL     1      -7.571  16.996  68.036  1.00  0.00    -0.181 C  
HETATM   40  C   UNL     1     -10.526  17.621  68.836  1.00  0.00    -0.256 C  
HETATM   41  C   UNL     1      -6.221  16.360  67.677  1.00  0.00    -0.165 C  
HETATM   42  C   UNL     1      -7.403  17.617  69.440  1.00  0.00     0.084 C  
HETATM   43  O   UNL     1     -10.667  17.291  69.988  1.00  0.00     0.035 OA 
ENDBRANCH  30  32
ENDBRANCH  29  30
ENDBRANCH  28  29
ENDBRANCH  27  28
ENDBRANCH  25  27
ENDBRANCH   7  25
TORSDOF 9
ENDMDL
MODEL      262
REMARK 921   NORMALIZED FREE ENERGY PREDICTED BY IDOCK:   -3.65 KCAL/MOL
REMARK 922        TOTAL FREE ENERGY PREDICTED BY IDOCK:   -6.07 KCAL/MOL
REMARK 923 INTER-LIGAND FREE ENERGY PREDICTED BY IDOCK:   -6.09 KCAL/MOL
REMARK 924 INTRA-LIGAND FREE ENERGY PREDICTED BY IDOCK:    0.02 KCAL/MOL
REMARK 927      BINDING AFFINITY PREDICTED BY RF-SCORE:    0.00 PKD
ROOT
HETATM    1  C   UNL     1     -10.134   7.147  68.121  1.00  0.00    -0.195 C  
HETATM    2  C   UNL     1      -9.613   8.540  67.710  1.00  0.00    -0.156 C  
HETATM    3  S   UNL     1      -8.208   8.260  66.530  1.00  0.00    -0.109 SA 
HETATM    4  C   UNL     1     -10.780   9.236  66.999  1.00  0.00    -0.199 C  
HETATM    5  C   UNL     1      -6.900   8.405  67.841  1.00  0.00    -0.067 C  
HETATM    6  C   UNL     1      -6.443   7.103  68.556  1.00  0.00    -0.040 C  
HETATM    7  C   UNL     1      -8.979   9.325  68.889  1.00  0.00    -0.136 C  
HETATM    8  C   UNL     1      -7.421   7.556  69.672  1.00  0.00    -0.092 C  
HETATM    9  O   UNL     1      -7.979   7.040  70.613  1.00  0.00    -0.105 OA 
HETATM   10  N   UNL     1      -7.634   8.762  69.069  1.00  0.00    -0.088 N  
ENDROOT
BRANCH   6  11
HETATM   11  N   UNL     1      -6.738   5.817  67.870  1.00  0.00    -0.056 N  
HETATM   12  C   UNL     1      -6.242   4.622  68.345  1.00  0.00    -0.032 C  
HETATM   13  O   UNL     1      -5.679   4.536  69.436  1.00  0.00    -0.015 OA 
HETATM   14  H   UNL     1      -7.320   5.818  67.031  1.00  0.00     0.000 HD 
BRANCH  12  15
HETATM   15  C   UNL     1      -6.411   3.414  67.397  1.00  0.00    -0.037 C  
HETATM   16  H2  UNL     1      -4.785   2.377  68.214  1.00  0.00     0.000 HD 
HETATM   17  N   UNL     1      -5.134   2.657  67.298  1.00  0.00    -0.008 NA 
HETATM   18  H1  UNL     1      -5.246   1.860  66.672  1.00  0.00     0.000 HD 
BRANCH  15  19
HETATM   19  C   UNL     1      -6.958   3.790  66.031  1.00  0.00    -0.062 A  
HETATM   20  C   UNL     1      -6.120   4.103  64.948  1.00  0.00    -0.023 A  
HETATM   21  C   UNL     1      -8.346   3.771  65.814  1.00  0.00    -0.105 A  
HETATM   22  C   UNL     1      -8.872   3.989  64.538  1.00  0.00    -0.128 A  
HETATM   23  C   UNL     1      -6.646   4.311  63.672  1.00  0.00    -0.041 A  
HETATM   24  C   UNL     1      -8.020   4.240  63.465  1.00  0.00    -0.085 A  
ENDBRANCH  15  19
ENDBRANCH  12  15
ENDBRANCH   6  11
BRANCH   7  25
HETATM   25  C   UNL     1      -8.779  10.837  68.638  1.00  0.00    -0.152 C  
HETATM   26  O   UNL     1      -9.548  11.725  68.993  1.00  0.00    -0.020 OA 
BRANCH  25  27
HETATM   27  O   UNL     1      -7.627  11.080  67.948  1.00  0.00    -0.092 OA 
BRANCH  27  28
HETATM   28  C   UNL     1      -7.079  12.387  68.141  1.00  0.00    -0.097 C  
BRANCH  28  29
HETATM   29  O   UNL     1      -7.608  13.306  67.190  1.00  0.00    -0.107 OA 
BRANCH  29  30
HETATM   30  C   UNL     1      -7.918  14.542  67.660  1.00  0.00    -0.177 C  
HETATM   31  O   UNL     1      -7.097  15.371  68.026  1.00  0.00    -0.107 OA 
BRANCH  30  32
HETATM   32  C   UNL     1      -9.444  14.783  67.647  1.00  0.00    -0.204 C  
HETATM   33  N   UNL     1     -10.001  14.251  66.392  1.00  0.00    -0.282 N  
HETATM   34  C   UNL     1      -9.981  15.134  65.194  1.00  0.00    -0.231 C  
HETATM   35  S   UNL     1      -9.667  16.749  65.937  1.00  0.00    -0.156 S  
HETATM   36  C   UNL     1     -11.417  14.682  64.918  1.00  0.00    -0.401 C  
HETATM   37  O   UNL     1      -8.277  17.102  65.704  1.00  0.00    -0.429 OA 
HETATM   38  O   UNL     1     -10.726  17.675  65.588  1.00  0.00    -0.495 OA 
HETATM   39  C   UNL     1      -9.836  16.278  67.693  1.00  0.00    -0.238 C  
HETATM   40  C   UNL     1     -11.319  13.934  66.255  1.00  0.00    -0.324 C  
HETATM   41  C   UNL     1      -8.964  17.174  68.584  1.00  0.00    -0.267 C  
HETATM   42  C   UNL     1     -11.294  16.483  68.159  1.00  0.00    -0.150 C  
HETATM   43  O   UNL     1     -12.086  13.450  67.051  1.00  0.00    -0.381 OA 
ENDBRANCH  30  32
ENDBRANCH  29  30
ENDBRANCH  28  29
ENDBRANCH  27  28
ENDBRANCH  25  27
ENDBRANCH   7  25
TORSDOF 9
ENDMDL
MODEL      263
REMARK 921   NORMALIZED FREE ENERGY PREDICTED BY IDOCK:   -3.63 KCAL/MOL
REMARK 922        TOTAL FREE ENERGY PREDICTED BY IDOCK:   -6.05 KCAL/MOL
REMARK 923 INTER-LIGAND FREE ENERGY PREDICTED BY IDOCK:   -6.17 KCAL/MOL
REMARK 924 INTRA-LIGAND FREE ENERGY PREDICTED BY IDOCK:    0.12 KCAL/MOL
REMARK 927      BINDING AFFINITY PREDICTED BY RF-SCORE:    0.00 PKD
ROOT
HETATM    1  C   UNL     1      -9.432   5.285  67.733  1.00  0.00    -0.141 C  
HETATM    2  C   UNL     1      -8.801   6.635  67.333  1.00  0.00    -0.116 C  
HETATM    3  S   UNL     1      -7.482   7.002  68.584  1.00  0.00    -0.105 SA 
HETATM    4  C   UNL     1      -8.181   6.417  65.947  1.00  0.00    -0.130 C  
HETATM    5  C   UNL     1      -8.579   8.081  69.624  1.00  0.00    -0.135 C  
HETATM    6  C   UNL     1      -9.367   7.408  70.784  1.00  0.00    -0.159 C  
HETATM    7  C   UNL     1      -9.789   7.826  67.448  1.00  0.00    -0.175 C  
HETATM    8  C   UNL     1     -10.547   7.410  69.777  1.00  0.00    -0.236 C  
HETATM    9  O   UNL     1     -11.607   6.837  69.664  1.00  0.00    -0.266 OA 
HETATM   10  N   UNL     1      -9.848   8.161  68.877  1.00  0.00    -0.171 N  
ENDROOT
BRANCH   6  11
HETATM   11  N   UNL     1      -8.875   6.086  71.257  1.00  0.00    -0.136 N  
HETATM   12  C   UNL     1      -8.008   5.986  72.324  1.00  0.00    -0.102 C  
HETATM   13  O   UNL     1      -7.732   6.952  73.035  1.00  0.00    -0.088 OA 
HETATM   14  H   UNL     1      -9.185   5.238  70.783  1.00  0.00     0.000 HD 
BRANCH  12  15
HETATM   15  C   UNL     1      -7.384   4.589  72.536  1.00  0.00    -0.082 C  
HETATM   16  H2  UNL     1      -6.240   5.204  74.179  1.00  0.00     0.000 HD 
HETATM   17  N   UNL     1      -6.112   4.706  73.299  1.00  0.00    -0.027 NA 
HETATM   18  H1  UNL     1      -5.700   3.784  73.439  1.00  0.00     0.000 HD 
BRANCH  15  19
HETATM   19  C   UNL     1      -7.205   3.804  71.249  1.00  0.00    -0.033 A  
HETATM   20  C   UNL     1      -5.938   3.436  70.764  1.00  0.00    -0.018 A  
HETATM   21  C   UNL     1      -8.339   3.377  70.538  1.00  0.00    -0.088 A  
HETATM   22  C   UNL     1      -8.210   2.548  69.420  1.00  0.00    -0.065 A  
HETATM   23  C   UNL     1      -5.811   2.601  69.653  1.00  0.00    -0.023 A  
HETATM   24  C   UNL     1      -6.947   2.145  68.990  1.00  0.00    -0.039 A  
ENDBRANCH  15  19
ENDBRANCH  12  15
ENDBRANCH   6  11
BRANCH   7  25
HETATM   25  C   UNL     1      -9.346   9.118  66.724  1.00  0.00    -0.165 C  
HETATM   26  O   UNL     1      -9.887   9.600  65.733  1.00  0.00    -0.279 OA 
BRANCH  25  27
HETATM   27  O   UNL     1      -8.248   9.670  67.316  1.00  0.00    -0.113 OA 
BRANCH  27  28
HETATM   28  C   UNL     1      -8.144  11.090  67.176  1.00  0.00    -0.134 C  
BRANCH  28  29
HETATM   29  O   UNL     1      -8.786  11.756  68.259  1.00  0.00    -0.158 OA 
BRANCH  29  30
HETATM   30  C   UNL     1      -9.748  12.654  67.925  1.00  0.00    -0.216 C  
HETATM   31  O   UNL     1     -10.623  12.456  67.093  1.00  0.00    -0.221 OA 
BRANCH  30  32
HETATM   32  C   UNL     1      -9.617  13.953  68.750  1.00  0.00    -0.070 C  
HETATM   33  N   UNL     1     -10.923  14.632  68.783  1.00  0.00    -0.248 N  
HETATM   34  C   UNL     1     -11.263  15.537  67.651  1.00  0.00    -0.291 C  
HETATM   35  S   UNL     1      -9.648  15.786  66.885  1.00  0.00    -0.239 S  
HETATM   36  C   UNL     1     -11.782  16.534  68.690  1.00  0.00     0.106 C  
HETATM   37  O   UNL     1      -9.583  14.982  65.676  1.00  0.00    -0.333 OA 
HETATM   38  O   UNL     1      -9.326  17.198  66.844  1.00  0.00    -0.235 OA 
HETATM   39  C   UNL     1      -8.617  14.970  68.152  1.00  0.00    -0.156 C  
HETATM   40  C   UNL     1     -11.246  15.547  69.738  1.00  0.00    -0.304 C  
HETATM   41  C   UNL     1      -7.349  14.375  67.523  1.00  0.00    -0.208 C  
HETATM   42  C   UNL     1      -8.145  16.004  69.197  1.00  0.00    -0.238 C  
HETATM   43  O   UNL     1     -10.962  15.577  70.911  1.00  0.00    -0.329 OA 
ENDBRANCH  30  32
ENDBRANCH  29  30
ENDBRANCH  28  29
ENDBRANCH  27  28
ENDBRANCH  25  27
ENDBRANCH   7  25
TORSDOF 9
ENDMDL
MODEL      264
REMARK 921   NORMALIZED FREE ENERGY PREDICTED BY IDOCK:   -3.61 KCAL/MOL
REMARK 922        TOTAL FREE ENERGY PREDICTED BY IDOCK:   -6.02 KCAL/MOL
REMARK 923 INTER-LIGAND FREE ENERGY PREDICTED BY IDOCK:   -7.17 KCAL/MOL
REMARK 924 INTRA-LIGAND FREE ENERGY PREDICTED BY IDOCK:    1.15 KCAL/MOL
REMARK 927      BINDING AFFINITY PREDICTED BY RF-SCORE:    0.00 PKD
ROOT
HETATM    1  C   UNL     1      -6.552   7.346  69.311  1.00  0.00    -0.037 C  
HETATM    2  C   UNL     1      -6.954   8.836  69.304  1.00  0.00    -0.058 C  
HETATM    3  S   UNL     1      -8.709   8.915  68.706  1.00  0.00    -0.137 SA 
HETATM    4  C   UNL     1      -6.862   9.306  70.760  1.00  0.00    -0.100 C  
HETATM    5  C   UNL     1      -8.235   9.267  66.945  1.00  0.00    -0.119 C  
HETATM    6  C   UNL     1      -8.057   8.055  65.987  1.00  0.00    -0.110 C  
HETATM    7  C   UNL     1      -6.155   9.678  68.274  1.00  0.00    -0.051 C  
HETATM    8  C   UNL     1      -6.546   8.238  66.288  1.00  0.00    -0.050 C  
HETATM    9  O   UNL     1      -5.542   7.571  66.180  1.00  0.00    -0.030 OA 
HETATM   10  N   UNL     1      -6.767   9.400  66.968  1.00  0.00    -0.075 N  
ENDROOT
BRANCH   6  11
HETATM   11  N   UNL     1      -8.685   6.771  66.398  1.00  0.00    -0.133 N  
HETATM   12  C   UNL     1      -8.835   5.731  65.506  1.00  0.00    -0.113 C  
HETATM   13  O   UNL     1      -8.315   5.746  64.391  1.00  0.00    -0.130 OA 
HETATM   14  H   UNL     1      -9.011   6.658  67.358  1.00  0.00     0.000 HD 
BRANCH  12  15
HETATM   15  C   UNL     1      -9.727   4.568  65.994  1.00  0.00    -0.210 C  
HETATM   16  H2  UNL     1     -11.170   4.877  64.508  1.00  0.00     0.000 HD 
HETATM   17  N   UNL     1     -11.124   4.760  65.520  1.00  0.00    -0.943 NA 
HETATM   18  H1  UNL     1     -11.713   3.993  65.842  1.00  0.00     0.000 HD 
BRANCH  15  19
HETATM   19  C   UNL     1      -9.661   4.344  67.495  1.00  0.00    -0.211 A  
HETATM   20  C   UNL     1     -10.102   5.308  68.417  1.00  0.00    -0.224 A  
HETATM   21  C   UNL     1      -9.200   3.112  67.989  1.00  0.00    -0.248 A  
HETATM   22  C   UNL     1      -9.246   2.830  69.357  1.00  0.00    -0.208 A  
HETATM   23  C   UNL     1     -10.155   5.021  69.782  1.00  0.00    -0.337 A  
HETATM   24  C   UNL     1      -9.741   3.778  70.250  1.00  0.00    -0.222 A  
ENDBRANCH  15  19
ENDBRANCH  12  15
ENDBRANCH   6  11
BRANCH   7  25
HETATM   25  C   UNL     1      -6.240  11.208  68.470  1.00  0.00    -0.042 C  
HETATM   26  O   UNL     1      -5.688  11.843  69.364  1.00  0.00    -0.062 OA 
BRANCH  25  27
HETATM   27  O   UNL     1      -7.029  11.789  67.521  1.00  0.00    -0.094 OA 
BRANCH  27  28
HETATM   28  C   UNL     1      -8.213  12.413  68.028  1.00  0.00    -0.168 C  
BRANCH  28  29
HETATM   29  O   UNL     1      -7.894  13.600  68.747  1.00  0.00    -0.123 OA 
BRANCH  29  30
HETATM   30  C   UNL     1      -7.533  14.675  67.999  1.00  0.00    -0.131 C  
HETATM   31  O   UNL     1      -6.601  14.687  67.206  1.00  0.00    -0.290 OA 
BRANCH  30  32
HETATM   32  C   UNL     1      -8.468  15.877  68.254  1.00  0.00    -0.170 C  
HETATM   33  N   UNL     1      -9.460  15.950  67.168  1.00  0.00    -0.211 N  
HETATM   34  C   UNL     1      -9.077  16.675  65.926  1.00  0.00    -0.120 C  
HETATM   35  S   UNL     1      -7.629  17.602  66.476  1.00  0.00    -0.289 S  
HETATM   36  C   UNL     1     -10.462  17.325  65.956  1.00  0.00    -0.285 C  
HETATM   37  O   UNL     1      -6.439  16.946  65.962  1.00  0.00    -0.095 OA 
HETATM   38  O   UNL     1      -7.833  19.021  66.263  1.00  0.00    -0.275 OA 
HETATM   39  C   UNL     1      -7.737  17.240  68.262  1.00  0.00    -0.234 C  
HETATM   40  C   UNL     1     -10.643  16.611  67.303  1.00  0.00    -0.281 C  
HETATM   41  C   UNL     1      -6.344  17.251  68.906  1.00  0.00    -0.199 C  
HETATM   42  C   UNL     1      -8.559  18.336  68.975  1.00  0.00    -0.039 C  
HETATM   43  O   UNL     1     -11.370  16.710  68.261  1.00  0.00    -0.309 OA 
ENDBRANCH  30  32
ENDBRANCH  29  30
ENDBRANCH  28  29
ENDBRANCH  27  28
ENDBRANCH  25  27
ENDBRANCH   7  25
TORSDOF 9
ENDMDL
MODEL      265
REMARK 921   NORMALIZED FREE ENERGY PREDICTED BY IDOCK:   -3.60 KCAL/MOL
REMARK 922        TOTAL FREE ENERGY PREDICTED BY IDOCK:   -6.01 KCAL/MOL
REMARK 923 INTER-LIGAND FREE ENERGY PREDICTED BY IDOCK:   -5.49 KCAL/MOL
REMARK 924 INTRA-LIGAND FREE ENERGY PREDICTED BY IDOCK:   -0.51 KCAL/MOL
REMARK 927      BINDING AFFINITY PREDICTED BY RF-SCORE:    0.00 PKD
ROOT
HETATM    1  C   UNL     1     -11.264   9.210  69.813  1.00  0.00    -0.073 C  
HETATM    2  C   UNL     1      -9.728   9.072  69.833  1.00  0.00    -0.183 C  
HETATM    3  S   UNL     1      -9.037  10.661  69.169  1.00  0.00    -0.090 SA 
HETATM    4  C   UNL     1      -9.339   8.891  71.306  1.00  0.00    -0.336 C  
HETATM    5  C   UNL     1      -8.847  10.012  67.439  1.00  0.00    -0.128 C  
HETATM    6  C   UNL     1     -10.032  10.219  66.454  1.00  0.00    -0.229 C  
HETATM    7  C   UNL     1      -9.201   7.983  68.861  1.00  0.00    -0.147 C  
HETATM    8  C   UNL     1     -10.389   8.754  66.820  1.00  0.00    -0.258 C  
HETATM    9  O   UNL     1     -11.361   8.039  66.733  1.00  0.00     0.684 OA 
HETATM   10  N   UNL     1      -9.231   8.591  67.524  1.00  0.00    -0.133 N  
ENDROOT
BRANCH   6  11
HETATM   11  N   UNL     1     -11.024  11.271  66.803  1.00  0.00    -0.290 N  
HETATM   12  C   UNL     1     -10.754  12.607  66.593  1.00  0.00    -0.253 C  
HETATM   13  O   UNL     1      -9.766  12.982  65.962  1.00  0.00    -0.266 OA 
HETATM   14  H   UNL     1     -11.922  11.000  67.204  1.00  0.00     0.000 HD 
BRANCH  12  15
HETATM   15  C   UNL     1     -11.757  13.591  67.234  1.00  0.00    -0.383 C  
HETATM   16  H2  UNL     1     -13.187  13.321  65.728  1.00  0.00     0.000 HD 
HETATM   17  N   UNL     1     -12.716  14.086  66.210  1.00  0.00    -0.485 NA 
HETATM   18  H1  UNL     1     -13.378  14.736  66.634  1.00  0.00     0.000 HD 
BRANCH  15  19
HETATM   19  C   UNL     1     -11.091  14.728  67.988  1.00  0.00    -0.294 A  
HETATM   20  C   UNL     1     -11.028  14.764  69.391  1.00  0.00    -0.282 A  
HETATM   21  C   UNL     1     -10.461  15.757  67.267  1.00  0.00    -0.308 A  
HETATM   22  C   UNL     1      -9.732  16.748  67.930  1.00  0.00    -0.245 A  
HETATM   23  C   UNL     1     -10.292  15.750  70.050  1.00  0.00    -0.286 A  
HETATM   24  C   UNL     1      -9.632  16.733  69.319  1.00  0.00    -0.112 A  
ENDBRANCH  15  19
ENDBRANCH  12  15
ENDBRANCH   6  11
BRANCH   7  25
HETATM   25  C   UNL     1      -7.739   7.543  69.098  1.00  0.00    -0.113 C  
HETATM   26  O   UNL     1      -7.237   7.301  70.192  1.00  0.00    -0.071 OA 
BRANCH  25  27
HETATM   27  O   UNL     1      -7.046   7.464  67.926  1.00  0.00    -0.079 OA 
BRANCH  27  28
HETATM   28  C   UNL     1      -6.312   6.249  67.745  1.00  0.00    -0.037 C  
BRANCH  28  29
HETATM   29  O   UNL     1      -6.001   6.043  66.371  1.00  0.00    -0.023 OA 
BRANCH  29  30
HETATM   30  C   UNL     1      -6.480   4.901  65.813  1.00  0.00    -0.040 C  
HETATM   31  O   UNL     1      -5.876   4.222  64.994  1.00  0.00    -0.020 OA 
BRANCH  30  32
HETATM   32  C   UNL     1      -7.879   4.549  66.365  1.00  0.00    -0.099 C  
HETATM   33  N   UNL     1      -7.993   3.086  66.480  1.00  0.00    -0.077 N  
HETATM   34  C   UNL     1      -8.418   2.325  65.274  1.00  0.00    -0.101 C  
HETATM   35  S   UNL     1      -9.089   3.638  64.232  1.00  0.00    -0.136 S  
HETATM   36  C   UNL     1      -9.345   1.520  66.188  1.00  0.00     0.119 C  
HETATM   37  O   UNL     1      -8.122   3.938  63.190  1.00  0.00    -0.078 OA 
HETATM   38  O   UNL     1     -10.468   3.351  63.892  1.00  0.00    -0.222 OA 
HETATM   39  C   UNL     1      -9.040   5.000  65.446  1.00  0.00    -0.154 C  
HETATM   40  C   UNL     1      -8.903   2.486  67.297  1.00  0.00    -0.136 C  
HETATM   41  C   UNL     1      -8.853   6.351  64.743  1.00  0.00     0.360 C  
HETATM   42  C   UNL     1     -10.382   5.082  66.205  1.00  0.00    -0.309 C  
HETATM   43  O   UNL     1      -9.303   2.817  68.387  1.00  0.00    -0.180 OA 
ENDBRANCH  30  32
ENDBRANCH  29  30
ENDBRANCH  28  29
ENDBRANCH  27  28
ENDBRANCH  25  27
ENDBRANCH   7  25
TORSDOF 9
ENDMDL
MODEL      266
REMARK 921   NORMALIZED FREE ENERGY PREDICTED BY IDOCK:   -3.59 KCAL/MOL
REMARK 922        TOTAL FREE ENERGY PREDICTED BY IDOCK:   -5.98 KCAL/MOL
REMARK 923 INTER-LIGAND FREE ENERGY PREDICTED BY IDOCK:   -5.25 KCAL/MOL
REMARK 924 INTRA-LIGAND FREE ENERGY PREDICTED BY IDOCK:   -0.73 KCAL/MOL
REMARK 927      BINDING AFFINITY PREDICTED BY RF-SCORE:    0.00 PKD
ROOT
HETATM    1  C   UNL     1     -12.155   9.599  69.475  1.00  0.00     0.554 C  
HETATM    2  C   UNL     1     -10.807   9.320  70.171  1.00  0.00    -0.242 C  
HETATM    3  S   UNL     1      -9.807  10.878  70.051  1.00  0.00     1.002 SA 
HETATM    4  C   UNL     1     -11.143   9.009  71.635  1.00  0.00    -0.433 C  
HETATM    5  C   UNL     1      -8.882  10.328  68.537  1.00  0.00    -0.127 C  
HETATM    6  C   UNL     1      -9.474  10.706  67.150  1.00  0.00    -0.156 C  
HETATM    7  C   UNL     1      -9.952   8.252  69.437  1.00  0.00    -0.188 C  
HETATM    8  C   UNL     1     -10.034   9.259  67.168  1.00  0.00    -0.216 C  
HETATM    9  O   UNL     1     -10.896   8.644  66.582  1.00  0.00    -0.084 OA 
HETATM   10  N   UNL     1      -9.337   8.946  68.298  1.00  0.00    -0.142 N  
ENDROOT
BRANCH   6  11
HETATM   11  N   UNL     1     -10.459  11.820  67.117  1.00  0.00    -0.215 N  
HETATM   12  C   UNL     1     -10.658  12.565  65.974  1.00  0.00    -0.263 C  
HETATM   13  O   UNL     1     -10.164  12.248  64.893  1.00  0.00    -0.277 OA 
HETATM   14  H   UNL     1     -10.999  12.036  67.955  1.00  0.00     0.000 HD 
BRANCH  12  15
HETATM   15  C   UNL     1     -11.512  13.840  66.159  1.00  0.00    -0.338 C  
HETATM   16  H2  UNL     1     -11.518  14.291  64.114  1.00  0.00     0.000 HD 
HETATM   17  N   UNL     1     -11.324  14.755  65.001  1.00  0.00    -0.374 NA 
HETATM   18  H1  UNL     1     -11.887  15.596  65.123  1.00  0.00     0.000 HD 
BRANCH  15  19
HETATM   19  C   UNL     1     -11.271  14.541  67.484  1.00  0.00    -0.333 A  
HETATM   20  C   UNL     1     -10.250  15.493  67.655  1.00  0.00    -0.255 A  
HETATM   21  C   UNL     1     -12.127  14.282  68.568  1.00  0.00    -0.295 A  
HETATM   22  C   UNL     1     -12.009  15.004  69.759  1.00  0.00    -0.366 A  
HETATM   23  C   UNL     1     -10.140  16.218  68.841  1.00  0.00    -0.251 A  
HETATM   24  C   UNL     1     -11.028  15.985  69.887  1.00  0.00    -0.353 A  
ENDBRANCH  15  19
ENDBRANCH  12  15
ENDBRANCH   6  11
BRANCH   7  25
HETATM   25  C   UNL     1      -8.784   7.666  70.263  1.00  0.00    -0.144 C  
HETATM   26  O   UNL     1      -8.861   7.270  71.422  1.00  0.00    -0.130 OA 
BRANCH  25  27
HETATM   27  O   UNL     1      -7.625   7.649  69.544  1.00  0.00    -0.093 OA 
BRANCH  27  28
HETATM   28  C   UNL     1      -7.255   6.364  69.037  1.00  0.00    -0.084 C  
BRANCH  28  29
HETATM   29  O   UNL     1      -7.182   6.381  67.614  1.00  0.00    -0.081 OA 
BRANCH  29  30
HETATM   30  C   UNL     1      -8.172   5.726  66.956  1.00  0.00    -0.101 C  
HETATM   31  O   UNL     1      -9.347   5.720  67.298  1.00  0.00    -0.113 OA 
BRANCH  30  32
HETATM   32  C   UNL     1      -7.634   5.009  65.698  1.00  0.00    -0.086 C  
HETATM   33  N   UNL     1      -8.672   5.031  64.654  1.00  0.00    -0.153 N  
HETATM   34  C   UNL     1      -9.699   3.955  64.672  1.00  0.00    -0.186 C  
HETATM   35  S   UNL     1      -8.936   2.741  65.770  1.00  0.00    -0.130 S  
HETATM   36  C   UNL     1      -9.514   3.843  63.157  1.00  0.00    -0.128 C  
HETATM   37  O   UNL     1      -9.591   2.814  67.064  1.00  0.00    -0.062 OA 
HETATM   38  O   UNL     1      -8.797   1.469  65.089  1.00  0.00    -0.108 OA 
HETATM   39  C   UNL     1      -7.292   3.518  65.933  1.00  0.00    -0.076 C  
HETATM   40  C   UNL     1      -8.382   4.866  63.334  1.00  0.00    -0.115 C  
HETATM   41  C   UNL     1      -6.661   3.180  67.291  1.00  0.00    -0.045 C  
HETATM   42  C   UNL     1      -6.335   2.965  64.855  1.00  0.00    -0.023 C  
HETATM   43  O   UNL     1      -7.430   5.244  62.695  1.00  0.00    -0.044 OA 
ENDBRANCH  30  32
ENDBRANCH  29  30
ENDBRANCH  28  29
ENDBRANCH  27  28
ENDBRANCH  25  27
ENDBRANCH   7  25
TORSDOF 9
ENDMDL
MODEL      267
REMARK 921   NORMALIZED FREE ENERGY PREDICTED BY IDOCK:   -3.57 KCAL/MOL
REMARK 922        TOTAL FREE ENERGY PREDICTED BY IDOCK:   -5.95 KCAL/MOL
REMARK 923 INTER-LIGAND FREE ENERGY PREDICTED BY IDOCK:   -6.64 KCAL/MOL
REMARK 924 INTRA-LIGAND FREE ENERGY PREDICTED BY IDOCK:    0.68 KCAL/MOL
REMARK 927      BINDING AFFINITY PREDICTED BY RF-SCORE:    0.00 PKD
ROOT
HETATM    1  C   UNL     1     -11.056   6.012  68.768  1.00  0.00    -0.329 C  
HETATM    2  C   UNL     1     -10.046   6.206  67.619  1.00  0.00    -0.155 C  
HETATM    3  S   UNL     1      -8.435   5.487  68.193  1.00  0.00    -0.096 SA 
HETATM    4  C   UNL     1     -10.598   5.406  66.432  1.00  0.00    -0.322 C  
HETATM    5  C   UNL     1      -7.755   7.118  68.763  1.00  0.00    -0.116 C  
HETATM    6  C   UNL     1      -7.999   7.527  70.244  1.00  0.00    -0.103 C  
HETATM    7  C   UNL     1      -9.726   7.697  67.333  1.00  0.00    -0.161 C  
HETATM    8  C   UNL     1      -9.162   8.370  69.657  1.00  0.00    -0.160 C  
HETATM    9  O   UNL     1     -10.163   8.901  70.082  1.00  0.00    -0.184 OA 
HETATM   10  N   UNL     1      -8.776   8.110  68.375  1.00  0.00    -0.134 N  
ENDROOT
BRANCH   6  11
HETATM   11  N   UNL     1      -8.355   6.440  71.195  1.00  0.00    -0.122 N  
HETATM   12  C   UNL     1      -8.312   6.640  72.558  1.00  0.00    -0.113 C  
HETATM   13  O   UNL     1      -8.143   7.756  73.050  1.00  0.00    -0.108 OA 
HETATM   14  H   UNL     1      -8.637   5.529  70.832  1.00  0.00     0.000 HD 
BRANCH  12  15
HETATM   15  C   UNL     1      -8.453   5.363  73.416  1.00  0.00    -0.116 C  
HETATM   16  H2  UNL     1      -7.355   6.156  75.013  1.00  0.00     0.000 HD 
HETATM   17  N   UNL     1      -7.376   5.312  74.441  1.00  0.00    -0.085 NA 
HETATM   18  H1  UNL     1      -7.469   4.469  75.007  1.00  0.00     0.000 HD 
BRANCH  15  19
HETATM   19  C   UNL     1      -8.518   4.088  72.595  1.00  0.00    -0.100 A  
HETATM   20  C   UNL     1      -9.649   3.740  71.837  1.00  0.00    -0.220 A  
HETATM   21  C   UNL     1      -7.394   3.246  72.537  1.00  0.00    -0.049 A  
HETATM   22  C   UNL     1      -7.379   2.133  71.691  1.00  0.00    -0.036 A  
HETATM   23  C   UNL     1      -9.629   2.634  70.987  1.00  0.00    -0.210 A  
HETATM   24  C   UNL     1      -8.489   1.839  70.903  1.00  0.00    -0.079 A  
ENDBRANCH  15  19
ENDBRANCH  12  15
ENDBRANCH   6  11
BRANCH   7  25
HETATM   25  C   UNL     1      -9.027   7.971  65.983  1.00  0.00    -0.163 C  
HETATM   26  O   UNL     1      -8.367   7.156  65.345  1.00  0.00    -0.136 OA 
BRANCH  25  27
HETATM   27  O   UNL     1      -9.219   9.259  65.574  1.00  0.00    -0.206 OA 
BRANCH  27  28
HETATM   28  C   UNL     1      -8.922  10.250  66.562  1.00  0.00    -0.144 C  
BRANCH  28  29
HETATM   29  O   UNL     1      -8.779  11.535  65.965  1.00  0.00    -0.176 OA 
BRANCH  29  30
HETATM   30  C   UNL     1      -8.331  12.526  66.778  1.00  0.00    -0.030 C  
HETATM   31  O   UNL     1      -7.154  12.727  67.046  1.00  0.00    -0.054 OA 
BRANCH  30  32
HETATM   32  C   UNL     1      -9.497  13.393  67.304  1.00  0.00    -0.234 C  
HETATM   33  N   UNL     1     -10.133  14.078  66.167  1.00  0.00    -0.300 N  
HETATM   34  C   UNL     1      -9.546  15.370  65.717  1.00  0.00    -0.333 C  
HETATM   35  S   UNL     1      -8.503  15.805  67.125  1.00  0.00    -0.228 S  
HETATM   36  C   UNL     1     -10.974  15.912  65.623  1.00  0.00    -0.207 C  
HETATM   37  O   UNL     1      -7.119  15.533  66.775  1.00  0.00    -0.174 OA 
HETATM   38  O   UNL     1      -8.884  17.101  67.648  1.00  0.00    -0.214 OA 
HETATM   39  C   UNL     1      -9.051  14.504  68.283  1.00  0.00    -0.196 C  
HETATM   40  C   UNL     1     -11.403  14.567  66.227  1.00  0.00    -0.352 C  
HETATM   41  C   UNL     1      -7.924  14.130  69.256  1.00  0.00     0.187 C  
HETATM   42  C   UNL     1     -10.222  15.023  69.145  1.00  0.00    -0.241 C  
HETATM   43  O   UNL     1     -12.379  14.123  66.781  1.00  0.00    -0.438 OA 
ENDBRANCH  30  32
ENDBRANCH  29  30
ENDBRANCH  28  29
ENDBRANCH  27  28
ENDBRANCH  25  27
ENDBRANCH   7  25
TORSDOF 9
ENDMDL
MODEL      268
REMARK 921   NORMALIZED FREE ENERGY PREDICTED BY IDOCK:   -3.52 KCAL/MOL
REMARK 922        TOTAL FREE ENERGY PREDICTED BY IDOCK:   -5.87 KCAL/MOL
REMARK 923 INTER-LIGAND FREE ENERGY PREDICTED BY IDOCK:   -6.03 KCAL/MOL
REMARK 924 INTRA-LIGAND FREE ENERGY PREDICTED BY IDOCK:    0.16 KCAL/MOL
REMARK 927      BINDING AFFINITY PREDICTED BY RF-SCORE:    0.00 PKD
ROOT
HETATM    1  C   UNL     1      -7.000   6.494  69.476  1.00  0.00    -0.067 C  
HETATM    2  C   UNL     1      -8.121   7.541  69.646  1.00  0.00    -0.127 C  
HETATM    3  S   UNL     1      -9.564   6.949  68.642  1.00  0.00    -0.133 SA 
HETATM    4  C   UNL     1      -8.472   7.546  71.139  1.00  0.00    -0.117 C  
HETATM    5  C   UNL     1      -9.132   7.983  67.161  1.00  0.00    -0.137 C  
HETATM    6  C   UNL     1      -8.225   7.345  66.071  1.00  0.00    -0.130 C  
HETATM    7  C   UNL     1      -7.763   8.922  69.035  1.00  0.00    -0.090 C  
HETATM    8  C   UNL     1      -7.087   8.126  66.781  1.00  0.00    -0.077 C  
HETATM    9  O   UNL     1      -5.879   8.081  66.812  1.00  0.00    -0.042 OA 
HETATM   10  N   UNL     1      -7.969   8.785  67.587  1.00  0.00    -0.106 N  
ENDROOT
BRANCH   6  11
HETATM   11  N   UNL     1      -8.129   5.861  66.057  1.00  0.00    -0.111 N  
HETATM   12  C   UNL     1      -7.386   5.201  65.101  1.00  0.00    -0.068 C  
HETATM   13  O   UNL     1      -6.640   5.799  64.326  1.00  0.00    -0.039 OA 
HETATM   14  H   UNL     1      -8.622   5.320  66.768  1.00  0.00     0.000 HD 
BRANCH  12  15
HETATM   15  C   UNL     1      -7.586   3.670  65.052  1.00  0.00    -0.074 C  
HETATM   16  H2  UNL     1      -5.538   3.265  65.224  1.00  0.00     0.000 HD 
HETATM   17  N   UNL     1      -6.325   3.002  64.632  1.00  0.00    -0.023 NA 
HETATM   18  H1  UNL     1      -6.457   1.991  64.599  1.00  0.00     0.000 HD 
BRANCH  15  19
HETATM   19  C   UNL     1      -8.768   3.242  64.201  1.00  0.00    -0.093 A  
HETATM   20  C   UNL     1      -9.559   2.126  64.524  1.00  0.00    -0.076 A  
HETATM   21  C   UNL     1      -9.129   4.012  63.083  1.00  0.00    -0.117 A  
HETATM   22  C   UNL     1     -10.285   3.717  62.356  1.00  0.00    -0.156 A  
HETATM   23  C   UNL     1     -10.718   1.838  63.801  1.00  0.00     0.041 A  
HETATM   24  C   UNL     1     -11.089   2.641  62.727  1.00  0.00    -0.148 A  
ENDBRANCH  15  19
ENDBRANCH  12  15
ENDBRANCH   6  11
BRANCH   7  25
HETATM   25  C   UNL     1      -8.664  10.093  69.487  1.00  0.00    -0.174 C  
HETATM   26  O   UNL     1      -9.729   9.981  70.087  1.00  0.00    -0.233 OA 
BRANCH  25  27
HETATM   27  O   UNL     1      -8.137  11.297  69.122  1.00  0.00    -0.093 OA 
BRANCH  27  28
HETATM   28  C   UNL     1      -8.545  11.762  67.832  1.00  0.00    -0.156 C  
BRANCH  28  29
HETATM   29  O   UNL     1      -9.937  12.061  67.817  1.00  0.00    -0.188 OA 
BRANCH  29  30
HETATM   30  C   UNL     1     -10.288  13.305  68.234  1.00  0.00    -0.249 C  
HETATM   31  O   UNL     1     -11.041  13.538  69.169  1.00  0.00    -0.256 OA 
BRANCH  30  32
HETATM   32  C   UNL     1      -9.591  14.398  67.393  1.00  0.00    -0.216 C  
HETATM   33  N   UNL     1      -8.797  15.256  68.287  1.00  0.00    -0.167 N  
HETATM   34  C   UNL     1      -9.489  16.392  68.955  1.00  0.00    -0.258 C  
HETATM   35  S   UNL     1     -11.004  16.518  67.981  1.00  0.00    -0.275 S  
HETATM   36  C   UNL     1      -8.275  17.254  68.602  1.00  0.00    -0.262 C  
HETATM   37  O   UNL     1     -12.095  15.946  68.751  1.00  0.00    -0.297 OA 
HETATM   38  O   UNL     1     -11.125  17.847  67.415  1.00  0.00    -0.175 OA 
HETATM   39  C   UNL     1     -10.576  15.337  66.657  1.00  0.00    -0.304 C  
HETATM   40  C   UNL     1      -7.766  16.023  67.838  1.00  0.00    -0.138 C  
HETATM   41  C   UNL     1     -11.838  14.674  66.089  1.00  0.00    -0.282 C  
HETATM   42  C   UNL     1      -9.903  16.079  65.482  1.00  0.00    -0.224 C  
HETATM   43  O   UNL     1      -6.948  15.797  66.980  1.00  0.00    -0.197 OA 
ENDBRANCH  30  32
ENDBRANCH  29  30
ENDBRANCH  28  29
ENDBRANCH  27  28
ENDBRANCH  25  27
ENDBRANCH   7  25
TORSDOF 9
ENDMDL
MODEL      269
REMARK 921   NORMALIZED FREE ENERGY PREDICTED BY IDOCK:   -3.50 KCAL/MOL
REMARK 922        TOTAL FREE ENERGY PREDICTED BY IDOCK:   -5.84 KCAL/MOL
REMARK 923 INTER-LIGAND FREE ENERGY PREDICTED BY IDOCK:   -5.87 KCAL/MOL
REMARK 924 INTRA-LIGAND FREE ENERGY PREDICTED BY IDOCK:    0.03 KCAL/MOL
REMARK 927      BINDING AFFINITY PREDICTED BY RF-SCORE:    0.00 PKD
ROOT
HETATM    1  C   UNL     1      -5.501  13.001  66.885  1.00  0.00     0.827 C  
HETATM    2  C   UNL     1      -5.945  12.018  67.989  1.00  0.00    -0.058 C  
HETATM    3  S   UNL     1      -7.750  11.685  67.716  1.00  0.00    -0.136 SA 
HETATM    4  C   UNL     1      -5.125  10.741  67.774  1.00  0.00    -0.039 C  
HETATM    5  C   UNL     1      -8.310  12.964  68.941  1.00  0.00     0.280 C  
HETATM    6  C   UNL     1      -8.586  14.400  68.414  1.00  0.00    -0.174 C  
HETATM    7  C   UNL     1      -5.875  12.631  69.413  1.00  0.00    -0.094 C  
HETATM    8  C   UNL     1      -7.163  14.704  68.952  1.00  0.00    -0.124 C  
HETATM    9  O   UNL     1      -6.327  15.563  68.788  1.00  0.00    -0.100 OA 
HETATM   10  N   UNL     1      -7.067  13.479  69.545  1.00  0.00     0.104 N  
ENDROOT
BRANCH   6  11
HETATM   11  N   UNL     1      -8.811  14.552  66.952  1.00  0.00    -0.261 N  
HETATM   12  C   UNL     1      -9.911  15.223  66.463  1.00  0.00    -0.265 C  
HETATM   13  O   UNL     1     -10.663  15.866  67.195  1.00  0.00    -0.316 OA 
HETATM   14  H   UNL     1      -8.138  14.152  66.298  1.00  0.00     0.000 HD 
BRANCH  12  15
HETATM   15  C   UNL     1     -10.149  15.079  64.943  1.00  0.00    -0.144 C  
HETATM   16  H2  UNL     1     -10.450  17.132  64.662  1.00  0.00     0.000 HD 
HETATM   17  N   UNL     1     -10.907  16.252  64.430  1.00  0.00    -0.992 NA 
HETATM   18  H1  UNL     1     -11.064  16.156  63.427  1.00  0.00     0.000 HD 
BRANCH  15  19
HETATM   19  C   UNL     1     -10.803  13.764  64.556  1.00  0.00    -0.399 A  
HETATM   20  C   UNL     1     -12.155  13.490  64.826  1.00  0.00    -0.442 A  
HETATM   21  C   UNL     1     -10.058  12.804  63.852  1.00  0.00    -0.153 A  
HETATM   22  C   UNL     1     -10.665  11.640  63.372  1.00  0.00    -0.460 A  
HETATM   23  C   UNL     1     -12.762  12.332  64.339  1.00  0.00    -0.384 A  
HETATM   24  C   UNL     1     -12.021  11.415  63.600  1.00  0.00     0.016 A  
ENDBRANCH  15  19
ENDBRANCH  12  15
ENDBRANCH   6  11
BRANCH   7  25
HETATM   25  C   UNL     1      -5.947  11.609  70.571  1.00  0.00    -0.078 C  
HETATM   26  O   UNL     1      -5.145  11.524  71.496  1.00  0.00    -0.221 OA 
BRANCH  25  27
HETATM   27  O   UNL     1      -7.023  10.781  70.439  1.00  0.00    -0.252 OA 
BRANCH  27  28
HETATM   28  C   UNL     1      -6.753   9.402  70.708  1.00  0.00    -0.105 C  
BRANCH  28  29
HETATM   29  O   UNL     1      -7.926   8.612  70.541  1.00  0.00    -0.088 OA 
BRANCH  29  30
HETATM   30  C   UNL     1      -8.200   7.727  71.534  1.00  0.00    -0.105 C  
HETATM   31  O   UNL     1      -7.426   7.434  72.435  1.00  0.00    -0.077 OA 
BRANCH  30  32
HETATM   32  C   UNL     1      -9.628   7.155  71.400  1.00  0.00    -0.161 C  
HETATM   33  N   UNL     1      -9.933   6.349  72.594  1.00  0.00    -0.171 N  
HETATM   34  C   UNL     1      -9.501   4.925  72.600  1.00  0.00    -0.137 C  
HETATM   35  S   UNL     1      -9.155   4.642  70.851  1.00  0.00    -0.138 S  
HETATM   36  C   UNL     1     -10.876   4.579  73.177  1.00  0.00    -0.331 C  
HETATM   37  O   UNL     1      -7.715   4.644  70.660  1.00  0.00    -0.053 OA 
HETATM   38  O   UNL     1      -9.958   3.543  70.354  1.00  0.00    -0.078 OA 
HETATM   39  C   UNL     1      -9.807   6.212  70.187  1.00  0.00    -0.171 C  
HETATM   40  C   UNL     1     -11.209   6.064  72.975  1.00  0.00    -0.197 C  
HETATM   41  C   UNL     1      -9.061   6.615  68.907  1.00  0.00    -0.132 C  
HETATM   42  C   UNL     1     -11.291   6.045  69.795  1.00  0.00    -0.344 C  
HETATM   43  O   UNL     1     -12.206   6.741  72.915  1.00  0.00     0.274 OA 
ENDBRANCH  30  32
ENDBRANCH  29  30
ENDBRANCH  28  29
ENDBRANCH  27  28
ENDBRANCH  25  27
ENDBRANCH   7  25
TORSDOF 9
ENDMDL
MODEL      270
REMARK 921   NORMALIZED FREE ENERGY PREDICTED BY IDOCK:   -3.47 KCAL/MOL
REMARK 922        TOTAL FREE ENERGY PREDICTED BY IDOCK:   -5.80 KCAL/MOL
REMARK 923 INTER-LIGAND FREE ENERGY PREDICTED BY IDOCK:   -5.81 KCAL/MOL
REMARK 924 INTRA-LIGAND FREE ENERGY PREDICTED BY IDOCK:    0.01 KCAL/MOL
REMARK 927      BINDING AFFINITY PREDICTED BY RF-SCORE:    0.00 PKD
ROOT
HETATM    1  C   UNL     1      -5.542  13.072  66.769  1.00  0.00     1.198 C  
HETATM    2  C   UNL     1      -5.991  12.081  67.864  1.00  0.00    -0.062 C  
HETATM    3  S   UNL     1      -7.797  11.760  67.588  1.00  0.00    -0.149 SA 
HETATM    4  C   UNL     1      -5.177  10.801  67.635  1.00  0.00    -0.040 C  
HETATM    5  C   UNL     1      -8.350  13.029  68.827  1.00  0.00     0.134 C  
HETATM    6  C   UNL     1      -8.619  14.472  68.314  1.00  0.00    -0.171 C  
HETATM    7  C   UNL     1      -5.916  12.679  69.294  1.00  0.00    -0.093 C  
HETATM    8  C   UNL     1      -7.193  14.763  68.853  1.00  0.00    -0.126 C  
HETATM    9  O   UNL     1      -6.353  15.620  68.697  1.00  0.00    -0.100 OA 
HETATM   10  N   UNL     1      -7.104  13.532  69.434  1.00  0.00     0.037 N  
ENDROOT
BRANCH   6  11
HETATM   11  N   UNL     1      -8.844  14.639  66.853  1.00  0.00    -0.239 N  
HETATM   12  C   UNL     1      -9.833  15.470  66.372  1.00  0.00    -0.278 C  
HETATM   13  O   UNL     1     -10.460  16.232  67.107  1.00  0.00    -0.294 OA 
HETATM   14  H   UNL     1      -8.255  14.130  66.195  1.00  0.00     0.000 HD 
BRANCH  12  15
HETATM   15  C   UNL     1     -10.119  15.346  64.859  1.00  0.00    -0.024 C  
HETATM   16  H2  UNL     1     -10.294  17.415  64.589  1.00  0.00     0.000 HD 
HETATM   17  N   UNL     1     -10.813  16.567  64.367  1.00  0.00    -0.993 NA 
HETATM   18  H1  UNL     1     -11.002  16.485  63.369  1.00  0.00     0.000 HD 
BRANCH  15  19
HETATM   19  C   UNL     1     -10.866  14.078  64.487  1.00  0.00    -0.362 A  
HETATM   20  C   UNL     1     -12.242  13.920  64.723  1.00  0.00    -0.441 A  
HETATM   21  C   UNL     1     -10.181  13.041  63.831  1.00  0.00    -0.032 A  
HETATM   22  C   UNL     1     -10.866  11.916  63.364  1.00  0.00    -0.469 A  
HETATM   23  C   UNL     1     -12.926  12.801  64.248  1.00  0.00    -0.129 A  
HETATM   24  C   UNL     1     -12.242  11.806  63.556  1.00  0.00    -0.489 A  
ENDBRANCH  15  19
ENDBRANCH  12  15
ENDBRANCH   6  11
BRANCH   7  25
HETATM   25  C   UNL     1      -5.992  11.646  70.441  1.00  0.00    -0.131 C  
HETATM   26  O   UNL     1      -5.363  11.704  71.493  1.00  0.00    -0.336 OA 
BRANCH  25  27
HETATM   27  O   UNL     1      -6.850  10.629  70.140  1.00  0.00    -0.160 OA 
BRANCH  27  28
HETATM   28  C   UNL     1      -6.240   9.338  70.053  1.00  0.00    -0.043 C  
BRANCH  28  29
HETATM   29  O   UNL     1      -7.144   8.385  69.503  1.00  0.00    -0.051 OA 
BRANCH  29  30
HETATM   30  C   UNL     1      -7.897   7.691  70.394  1.00  0.00    -0.092 C  
HETATM   31  O   UNL     1      -7.583   7.486  71.558  1.00  0.00    -0.081 OA 
BRANCH  30  32
HETATM   32  C   UNL     1      -9.221   7.212  69.759  1.00  0.00    -0.143 C  
HETATM   33  N   UNL     1      -9.390   7.869  68.452  1.00  0.00    -0.141 N  
HETATM   34  C   UNL     1     -10.016   9.219  68.429  1.00  0.00    -0.176 C  
HETATM   35  S   UNL     1     -10.760   9.303  70.072  1.00  0.00    -0.242 S  
HETATM   36  C   UNL     1     -10.845   8.742  67.235  1.00  0.00    -0.077 C  
HETATM   37  O   UNL     1      -9.934  10.159  70.908  1.00  0.00     0.180 OA 
HETATM   38  O   UNL     1     -12.185   9.540  69.964  1.00  0.00     0.125 OA 
HETATM   39  C   UNL     1     -10.475   7.576  70.590  1.00  0.00    -0.216 C  
HETATM   40  C   UNL     1     -10.206   7.369  67.483  1.00  0.00    -0.224 C  
HETATM   41  C   UNL     1     -10.321   7.481  72.114  1.00  0.00    -0.252 C  
HETATM   42  C   UNL     1     -11.692   6.704  70.216  1.00  0.00    -0.432 C  
HETATM   43  O   UNL     1     -10.433   6.224  67.176  1.00  0.00    -0.192 OA 
ENDBRANCH  30  32
ENDBRANCH  29  30
ENDBRANCH  28  29
ENDBRANCH  27  28
ENDBRANCH  25  27
ENDBRANCH   7  25
TORSDOF 9
ENDMDL
MODEL      271
REMARK 921   NORMALIZED FREE ENERGY PREDICTED BY IDOCK:   -3.45 KCAL/MOL
REMARK 922        TOTAL FREE ENERGY PREDICTED BY IDOCK:   -5.78 KCAL/MOL
REMARK 923 INTER-LIGAND FREE ENERGY PREDICTED BY IDOCK:   -5.13 KCAL/MOL
REMARK 924 INTRA-LIGAND FREE ENERGY PREDICTED BY IDOCK:   -0.65 KCAL/MOL
REMARK 927      BINDING AFFINITY PREDICTED BY RF-SCORE:    0.00 PKD
ROOT
HETATM    1  C   UNL     1      -8.842   9.347  65.265  1.00  0.00    -0.227 C  
HETATM    2  C   UNL     1      -8.469   8.647  66.589  1.00  0.00    -0.112 C  
HETATM    3  S   UNL     1      -8.900   9.823  67.958  1.00  0.00    -0.118 SA 
HETATM    4  C   UNL     1      -9.346   7.391  66.665  1.00  0.00    -0.215 C  
HETATM    5  C   UNL     1      -7.178  10.505  68.095  1.00  0.00    -0.087 C  
HETATM    6  C   UNL     1      -6.826  11.761  67.248  1.00  0.00    -0.134 C  
HETATM    7  C   UNL     1      -6.944   8.412  66.744  1.00  0.00    -0.073 C  
HETATM    8  C   UNL     1      -6.196  10.733  66.271  1.00  0.00    -0.130 C  
HETATM    9  O   UNL     1      -5.849  10.721  65.112  1.00  0.00    -0.120 OA 
HETATM   10  N   UNL     1      -6.377   9.705  67.150  1.00  0.00    -0.064 N  
ENDROOT
BRANCH   6  11
HETATM   11  N   UNL     1      -7.964  12.575  66.742  1.00  0.00    -0.399 N  
HETATM   12  C   UNL     1      -7.975  13.947  66.873  1.00  0.00     0.219 C  
HETATM   13  O   UNL     1      -6.988  14.575  67.255  1.00  0.00    -0.214 OA 
HETATM   14  H   UNL     1      -8.751  12.109  66.290  1.00  0.00     0.000 HD 
BRANCH  12  15
HETATM   15  C   UNL     1      -9.321  14.629  66.541  1.00  0.00    -0.288 C  
HETATM   16  H2  UNL     1      -8.690  15.245  64.641  1.00  0.00     0.000 HD 
HETATM   17  N   UNL     1      -9.130  15.644  65.470  1.00  0.00    -0.270 NA 
HETATM   18  H1  UNL     1     -10.019  16.094  65.251  1.00  0.00     0.000 HD 
BRANCH  15  19
HETATM   19  C   UNL     1     -10.020  15.210  67.757  1.00  0.00    -0.225 A  
HETATM   20  C   UNL     1      -9.589  16.395  68.376  1.00  0.00    -0.219 A  
HETATM   21  C   UNL     1     -11.174  14.581  68.256  1.00  0.00    -0.295 A  
HETATM   22  C   UNL     1     -11.910  15.159  69.293  1.00  0.00    -0.347 A  
HETATM   23  C   UNL     1     -10.330  16.976  69.406  1.00  0.00    -0.230 A  
HETATM   24  C   UNL     1     -11.499  16.366  69.854  1.00  0.00    -0.088 A  
ENDBRANCH  15  19
ENDBRANCH  12  15
ENDBRANCH   6  11
BRANCH   7  25
HETATM   25  C   UNL     1      -6.544   7.405  67.847  1.00  0.00    -0.054 C  
HETATM   26  O   UNL     1      -6.486   7.651  69.048  1.00  0.00    -0.038 OA 
BRANCH  25  27
HETATM   27  O   UNL     1      -6.242   6.183  67.321  1.00  0.00    -0.027 OA 
BRANCH  27  28
HETATM   28  C   UNL     1      -5.142   5.517  67.948  1.00  0.00    -0.004 C  
BRANCH  28  29
HETATM   29  O   UNL     1      -5.564   4.300  68.556  1.00  0.00    -0.012 OA 
BRANCH  29  30
HETATM   30  C   UNL     1      -6.237   4.419  69.730  1.00  0.00    -0.027 C  
HETATM   31  O   UNL     1      -5.749   4.842  70.769  1.00  0.00    -0.014 OA 
BRANCH  30  32
HETATM   32  C   UNL     1      -7.709   3.977  69.583  1.00  0.00    -0.052 C  
HETATM   33  N   UNL     1      -8.575   4.979  70.226  1.00  0.00    -0.101 N  
HETATM   34  C   UNL     1      -8.817   4.852  71.689  1.00  0.00    -0.131 C  
HETATM   35  S   UNL     1      -8.274   3.159  72.001  1.00  0.00    -0.063 S  
HETATM   36  C   UNL     1     -10.292   5.145  71.404  1.00  0.00    -0.273 C  
HETATM   37  O   UNL     1      -6.971   3.204  72.644  1.00  0.00    -0.035 OA 
HETATM   38  O   UNL     1      -9.353   2.387  72.586  1.00  0.00    -0.080 OA 
HETATM   39  C   UNL     1      -8.025   2.629  70.272  1.00  0.00    -0.042 C  
HETATM   40  C   UNL     1      -9.897   5.106  69.921  1.00  0.00    -0.219 C  
HETATM   41  C   UNL     1      -6.930   1.557  70.183  1.00  0.00    -0.033 C  
HETATM   42  C   UNL     1      -9.316   1.984  69.724  1.00  0.00    -0.158 C  
HETATM   43  O   UNL     1     -10.463   4.984  68.862  1.00  0.00    -0.130 OA 
ENDBRANCH  30  32
ENDBRANCH  29  30
ENDBRANCH  28  29
ENDBRANCH  27  28
ENDBRANCH  25  27
ENDBRANCH   7  25
TORSDOF 9
ENDMDL
MODEL      272
REMARK 921   NORMALIZED FREE ENERGY PREDICTED BY IDOCK:   -3.41 KCAL/MOL
REMARK 922        TOTAL FREE ENERGY PREDICTED BY IDOCK:   -5.71 KCAL/MOL
REMARK 923 INTER-LIGAND FREE ENERGY PREDICTED BY IDOCK:   -8.12 KCAL/MOL
REMARK 924 INTRA-LIGAND FREE ENERGY PREDICTED BY IDOCK:    2.41 KCAL/MOL
REMARK 927      BINDING AFFINITY PREDICTED BY RF-SCORE:    0.00 PKD
ROOT
HETATM    1  C   UNL     1      -9.304   9.000  69.054  1.00  0.00    -0.140 C  
HETATM    2  C   UNL     1      -9.416  10.392  68.398  1.00  0.00    -0.149 C  
HETATM    3  S   UNL     1      -9.288  10.134  66.565  1.00  0.00    -0.169 SA 
HETATM    4  C   UNL     1     -10.806  10.924  68.769  1.00  0.00    -0.251 C  
HETATM    5  C   UNL     1      -7.468  10.501  66.505  1.00  0.00    -0.128 C  
HETATM    6  C   UNL     1      -6.483   9.307  66.652  1.00  0.00    -0.067 C  
HETATM    7  C   UNL     1      -8.226  11.325  68.743  1.00  0.00    -0.122 C  
HETATM    8  C   UNL     1      -6.390   9.768  68.131  1.00  0.00    -0.055 C  
HETATM    9  O   UNL     1      -6.023   9.287  69.179  1.00  0.00    -0.041 OA 
HETATM   10  N   UNL     1      -7.116  10.895  67.881  1.00  0.00    -0.080 N  
ENDROOT
BRANCH   6  11
HETATM   11  N   UNL     1      -7.028   7.947  66.394  1.00  0.00    -0.065 N  
HETATM   12  C   UNL     1      -7.046   7.414  65.123  1.00  0.00    -0.064 C  
HETATM   13  O   UNL     1      -6.471   7.954  64.179  1.00  0.00    -0.059 OA 
HETATM   14  H   UNL     1      -7.394   7.398  67.172  1.00  0.00     0.000 HD 
BRANCH  12  15
HETATM   15  C   UNL     1      -7.868   6.114  64.965  1.00  0.00    -0.110 C  
HETATM   16  H2  UNL     1      -8.143   6.383  62.907  1.00  0.00     0.000 HD 
HETATM   17  N   UNL     1      -8.702   6.182  63.735  1.00  0.00    -0.258 NA 
HETATM   18  H1  UNL     1      -9.244   5.325  63.632  1.00  0.00     0.000 HD 
BRANCH  15  19
HETATM   19  C   UNL     1      -8.690   5.767  66.193  1.00  0.00    -0.139 A  
HETATM   20  C   UNL     1      -9.889   6.431  66.506  1.00  0.00    -0.170 A  
HETATM   21  C   UNL     1      -8.281   4.709  67.022  1.00  0.00    -0.106 A  
HETATM   22  C   UNL     1      -9.081   4.284  68.085  1.00  0.00    -0.168 A  
HETATM   23  C   UNL     1     -10.691   6.000  67.563  1.00  0.00    -0.383 A  
HETATM   24  C   UNL     1     -10.295   4.918  68.343  1.00  0.00    -0.033 A  
ENDBRANCH  15  19
ENDBRANCH  12  15
ENDBRANCH   6  11
BRANCH   7  25
HETATM   25  C   UNL     1      -8.453  12.822  68.433  1.00  0.00    -0.115 C  
HETATM   26  O   UNL     1      -7.660  13.728  68.673  1.00  0.00    -0.128 OA 
BRANCH  25  27
HETATM   27  O   UNL     1      -9.673  13.032  67.858  1.00  0.00    -0.205 OA 
BRANCH  27  28
HETATM   28  C   UNL     1     -10.513  13.954  68.559  1.00  0.00    -0.250 C  
BRANCH  28  29
HETATM   29  O   UNL     1     -10.206  15.297  68.198  1.00  0.00    -0.226 OA 
BRANCH  29  30
HETATM   30  C   UNL     1     -10.371  16.232  69.169  1.00  0.00    -0.272 C  
HETATM   31  O   UNL     1     -10.836  16.006  70.278  1.00  0.00    -0.324 OA 
BRANCH  30  32
HETATM   32  C   UNL     1      -9.869  17.618  68.708  1.00  0.00    -0.334 C  
HETATM   33  N   UNL     1     -10.674  18.060  67.558  1.00  0.00    -0.388 N  
HETATM   34  C   UNL     1     -10.261  17.602  66.203  1.00  0.00    -0.343 C  
HETATM   35  S   UNL     1      -8.578  17.024  66.512  1.00  0.00    -0.284 S  
HETATM   36  C   UNL     1     -10.504  19.032  65.717  1.00  0.00    -0.375 C  
HETATM   37  O   UNL     1      -8.588  15.572  66.543  1.00  0.00    -0.269 OA 
HETATM   38  O   UNL     1      -7.643  17.733  65.662  1.00  0.00    -0.541 OA 
HETATM   39  C   UNL     1      -8.398  17.617  68.229  1.00  0.00    -0.274 C  
HETATM   40  C   UNL     1     -10.768  19.368  67.192  1.00  0.00    -0.483 C  
HETATM   41  C   UNL     1      -7.435  16.719  69.018  1.00  0.00    -0.228 C  
HETATM   42  C   UNL     1      -7.783  19.033  68.239  1.00  0.00    -0.346 C  
HETATM   43  O   UNL     1     -10.809  20.363  67.874  1.00  0.00     0.024 OA 
ENDBRANCH  30  32
ENDBRANCH  29  30
ENDBRANCH  28  29
ENDBRANCH  27  28
ENDBRANCH  25  27
ENDBRANCH   7  25
TORSDOF 9
ENDMDL
MODEL      273
REMARK 921   NORMALIZED FREE ENERGY PREDICTED BY IDOCK:   -3.36 KCAL/MOL
REMARK 922        TOTAL FREE ENERGY PREDICTED BY IDOCK:   -5.63 KCAL/MOL
REMARK 923 INTER-LIGAND FREE ENERGY PREDICTED BY IDOCK:   -7.02 KCAL/MOL
REMARK 924 INTRA-LIGAND FREE ENERGY PREDICTED BY IDOCK:    1.39 KCAL/MOL
REMARK 927      BINDING AFFINITY PREDICTED BY RF-SCORE:    0.00 PKD
ROOT
HETATM    1  C   UNL     1     -12.927  12.409  65.575  1.00  0.00     1.016 C  
HETATM    2  C   UNL     1     -11.813  13.277  64.953  1.00  0.00    -0.362 C  
HETATM    3  S   UNL     1     -10.201  12.458  65.366  1.00  0.00    -0.275 SA 
HETATM    4  C   UNL     1     -12.055  13.253  63.439  1.00  0.00    -0.508 C  
HETATM    5  C   UNL     1      -9.887  13.522  66.855  1.00  0.00    -0.257 C  
HETATM    6  C   UNL     1     -10.397  13.010  68.232  1.00  0.00    -0.252 C  
HETATM    7  C   UNL     1     -11.709  14.686  65.595  1.00  0.00    -0.304 C  
HETATM    8  C   UNL     1     -11.592  13.965  67.969  1.00  0.00    -0.333 C  
HETATM    9  O   UNL     1     -12.716  14.103  68.396  1.00  0.00     0.305 OA 
HETATM   10  N   UNL     1     -10.994  14.496  66.864  1.00  0.00    -0.309 N  
ENDROOT
BRANCH   6  11
HETATM   11  N   UNL     1     -10.696  11.557  68.344  1.00  0.00    -0.197 N  
HETATM   12  C   UNL     1      -9.762  10.671  68.838  1.00  0.00    -0.202 C  
HETATM   13  O   UNL     1      -8.715  11.050  69.360  1.00  0.00     0.016 OA 
HETATM   14  H   UNL     1     -11.609  11.209  68.049  1.00  0.00     0.000 HD 
BRANCH  12  15
HETATM   15  C   UNL     1     -10.111   9.177  68.655  1.00  0.00    -0.194 C  
HETATM   16  H2  UNL     1     -10.673   8.928  70.657  1.00  0.00     0.000 HD 
HETATM   17  N   UNL     1     -10.072   8.477  69.968  1.00  0.00    -0.189 NA 
HETATM   18  H1  UNL     1     -10.302   7.491  69.847  1.00  0.00     0.000 HD 
BRANCH  15  19
HETATM   19  C   UNL     1      -9.255   8.480  67.613  1.00  0.00    -0.147 A  
HETATM   20  C   UNL     1      -8.180   9.121  66.974  1.00  0.00    -0.116 A  
HETATM   21  C   UNL     1      -9.499   7.129  67.310  1.00  0.00    -0.169 A  
HETATM   22  C   UNL     1      -8.651   6.426  66.451  1.00  0.00    -0.134 A  
HETATM   23  C   UNL     1      -7.328   8.414  66.123  1.00  0.00    -0.084 A  
HETATM   24  C   UNL     1      -7.555   7.064  65.873  1.00  0.00    -0.097 A  
ENDBRANCH  15  19
ENDBRANCH  12  15
ENDBRANCH   6  11
BRANCH   7  25
HETATM   25  C   UNL     1     -10.885  15.715  64.789  1.00  0.00    -0.355 C  
HETATM   26  O   UNL     1     -11.334  16.724  64.253  1.00  0.00    -1.170 OA 
BRANCH  25  27
HETATM   27  O   UNL     1      -9.569  15.360  64.726  1.00  0.00     0.053 OA 
BRANCH  27  28
HETATM   28  C   UNL     1      -8.722  16.036  65.661  1.00  0.00     0.482 C  
BRANCH  28  29
HETATM   29  O   UNL     1      -8.874  17.448  65.555  1.00  0.00    -0.240 OA 
BRANCH  29  30
HETATM   30  C   UNL     1      -7.889  18.199  66.111  1.00  0.00    -0.204 C  
HETATM   31  O   UNL     1      -7.197  19.000  65.497  1.00  0.00    -0.466 OA 
BRANCH  30  32
HETATM   32  C   UNL     1      -7.769  17.938  67.628  1.00  0.00    -0.213 C  
HETATM   33  N   UNL     1      -8.920  17.131  68.067  1.00  0.00    -0.228 N  
HETATM   34  C   UNL     1     -10.176  17.846  68.419  1.00  0.00    -0.394 C  
HETATM   35  S   UNL     1      -9.590  19.544  68.601  1.00  0.00    -0.403 S  
HETATM   36  C   UNL     1     -10.275  16.933  69.643  1.00  0.00    -0.050 C  
HETATM   37  O   UNL     1      -9.985  20.296  67.422  1.00  0.00    -0.410 OA 
HETATM   38  O   UNL     1      -9.901  20.041  69.926  1.00  0.00    -0.022 OA 
HETATM   39  C   UNL     1      -7.796  19.226  68.484  1.00  0.00    -0.348 C  
HETATM   40  C   UNL     1      -8.902  16.397  69.214  1.00  0.00    -0.121 C  
HETATM   41  C   UNL     1      -7.065  20.440  67.893  1.00  0.00    -0.327 C  
HETATM   42  C   UNL     1      -7.206  19.001  69.892  1.00  0.00     0.310 C  
HETATM   43  O   UNL     1      -8.001  15.777  69.724  1.00  0.00    -0.121 OA 
ENDBRANCH  30  32
ENDBRANCH  29  30
ENDBRANCH  28  29
ENDBRANCH  27  28
ENDBRANCH  25  27
ENDBRANCH   7  25
TORSDOF 9
ENDMDL
MODEL      274
REMARK 921   NORMALIZED FREE ENERGY PREDICTED BY IDOCK:   -3.36 KCAL/MOL
REMARK 922        TOTAL FREE ENERGY PREDICTED BY IDOCK:   -5.63 KCAL/MOL
REMARK 923 INTER-LIGAND FREE ENERGY PREDICTED BY IDOCK:   -6.02 KCAL/MOL
REMARK 924 INTRA-LIGAND FREE ENERGY PREDICTED BY IDOCK:    0.39 KCAL/MOL
REMARK 927      BINDING AFFINITY PREDICTED BY RF-SCORE:    0.00 PKD
ROOT
HETATM    1  C   UNL     1      -8.124   6.155  67.313  1.00  0.00    -0.106 C  
HETATM    2  C   UNL     1      -7.780   7.516  66.673  1.00  0.00    -0.101 C  
HETATM    3  S   UNL     1      -7.328   8.663  68.059  1.00  0.00    -0.093 SA 
HETATM    4  C   UNL     1      -6.568   7.264  65.768  1.00  0.00    -0.048 C  
HETATM    5  C   UNL     1      -9.027   9.404  68.180  1.00  0.00    -0.128 C  
HETATM    6  C   UNL     1     -10.034   8.749  69.168  1.00  0.00    -0.191 C  
HETATM    7  C   UNL     1      -8.998   8.193  65.990  1.00  0.00    -0.171 C  
HETATM    8  C   UNL     1     -10.580   8.042  67.900  1.00  0.00    -0.145 C  
HETATM    9  O   UNL     1     -11.270   7.077  67.661  1.00  0.00    -0.155 OA 
HETATM   10  N   UNL     1      -9.788   8.788  67.077  1.00  0.00    -0.194 N  
ENDROOT
BRANCH   6  11
HETATM   11  N   UNL     1      -9.466   7.888  70.240  1.00  0.00    -0.163 N  
HETATM   12  C   UNL     1      -9.823   8.060  71.560  1.00  0.00    -0.170 C  
HETATM   13  O   UNL     1     -10.740   8.809  71.897  1.00  0.00    -0.313 OA 
HETATM   14  H   UNL     1      -8.800   7.156  69.993  1.00  0.00     0.000 HD 
BRANCH  12  15
HETATM   15  C   UNL     1      -8.968   7.277  72.581  1.00  0.00    -0.131 C  
HETATM   16  H2  UNL     1      -9.677   8.376  74.217  1.00  0.00     0.000 HD 
HETATM   17  N   UNL     1      -8.785   8.080  73.820  1.00  0.00    -0.272 NA 
HETATM   18  H1  UNL     1      -8.221   7.563  74.494  1.00  0.00     0.000 HD 
BRANCH  15  19
HETATM   19  C   UNL     1      -7.644   6.793  72.016  1.00  0.00    -0.094 A  
HETATM   20  C   UNL     1      -6.478   7.576  72.061  1.00  0.00    -0.042 A  
HETATM   21  C   UNL     1      -7.555   5.498  71.479  1.00  0.00    -0.104 A  
HETATM   22  C   UNL     1      -6.324   4.979  71.068  1.00  0.00    -0.023 A  
HETATM   23  C   UNL     1      -5.249   7.053  71.658  1.00  0.00    -0.028 A  
HETATM   24  C   UNL     1      -5.169   5.750  71.175  1.00  0.00    -0.012 A  
ENDBRANCH  15  19
ENDBRANCH  12  15
ENDBRANCH   6  11
BRANCH   7  25
HETATM   25  C   UNL     1      -8.652   9.352  65.029  1.00  0.00    -0.172 C  
HETATM   26  O   UNL     1      -9.099   9.495  63.895  1.00  0.00    -0.230 OA 
BRANCH  25  27
HETATM   27  O   UNL     1      -7.758  10.216  65.591  1.00  0.00    -0.130 OA 
BRANCH  27  28
HETATM   28  C   UNL     1      -8.149  11.591  65.551  1.00  0.00     0.504 C  
BRANCH  28  29
HETATM   29  O   UNL     1      -9.068  11.889  66.597  1.00  0.00    -0.194 OA 
BRANCH  29  30
HETATM   30  C   UNL     1      -9.776  13.040  66.463  1.00  0.00    -0.266 C  
HETATM   31  O   UNL     1     -10.988  13.094  66.302  1.00  0.00    -0.277 OA 
BRANCH  30  32
HETATM   32  C   UNL     1      -8.861  14.280  66.566  1.00  0.00    -0.063 C  
HETATM   33  N   UNL     1      -8.066  14.185  67.801  1.00  0.00    -0.151 N  
HETATM   34  C   UNL     1      -8.676  14.689  69.061  1.00  0.00    -0.097 C  
HETATM   35  S   UNL     1     -10.050  15.676  68.431  1.00  0.00    -0.217 S  
HETATM   36  C   UNL     1      -7.332  15.353  69.369  1.00  0.00    -0.213 C  
HETATM   37  O   UNL     1     -11.281  14.929  68.624  1.00  0.00    -0.251 OA 
HETATM   38  O   UNL     1      -9.941  17.043  68.900  1.00  0.00    -0.264 OA 
HETATM   39  C   UNL     1      -9.636  15.616  66.654  1.00  0.00    -0.248 C  
HETATM   40  C   UNL     1      -6.904  14.874  67.975  1.00  0.00    -0.137 C  
HETATM   41  C   UNL     1     -10.904  15.716  65.794  1.00  0.00    -0.312 C  
HETATM   42  C   UNL     1      -8.753  16.825  66.275  1.00  0.00    -0.342 C  
HETATM   43  O   UNL     1      -6.034  15.140  67.182  1.00  0.00    -0.272 OA 
ENDBRANCH  30  32
ENDBRANCH  29  30
ENDBRANCH  28  29
ENDBRANCH  27  28
ENDBRANCH  25  27
ENDBRANCH   7  25
TORSDOF 9
ENDMDL
MODEL      275
REMARK 921   NORMALIZED FREE ENERGY PREDICTED BY IDOCK:   -3.31 KCAL/MOL
REMARK 922        TOTAL FREE ENERGY PREDICTED BY IDOCK:   -5.56 KCAL/MOL
REMARK 923 INTER-LIGAND FREE ENERGY PREDICTED BY IDOCK:   -5.75 KCAL/MOL
REMARK 924 INTRA-LIGAND FREE ENERGY PREDICTED BY IDOCK:    0.19 KCAL/MOL
REMARK 927      BINDING AFFINITY PREDICTED BY RF-SCORE:    0.00 PKD
ROOT
HETATM    1  C   UNL     1      -9.055   8.736  70.240  1.00  0.00    -0.185 C  
HETATM    2  C   UNL     1      -9.052   9.432  68.863  1.00  0.00    -0.140 C  
HETATM    3  S   UNL     1      -9.102   8.090  67.584  1.00  0.00    -0.138 SA 
HETATM    4  C   UNL     1     -10.334  10.272  68.811  1.00  0.00    -0.211 C  
HETATM    5  C   UNL     1      -7.263   8.077  67.329  1.00  0.00    -0.087 C  
HETATM    6  C   UNL     1      -6.419   7.098  68.194  1.00  0.00    -0.045 C  
HETATM    7  C   UNL     1      -7.734  10.198  68.571  1.00  0.00    -0.090 C  
HETATM    8  C   UNL     1      -6.153   8.349  69.073  1.00  0.00    -0.043 C  
HETATM    9  O   UNL     1      -5.763   8.566  70.197  1.00  0.00    -0.024 OA 
HETATM   10  N   UNL     1      -6.757   9.177  68.171  1.00  0.00    -0.060 N  
ENDROOT
BRANCH   6  11
HETATM   11  N   UNL     1      -7.140   5.961  68.826  1.00  0.00    -0.078 N  
HETATM   12  C   UNL     1      -6.520   4.748  69.033  1.00  0.00    -0.036 C  
HETATM   13  O   UNL     1      -5.311   4.595  68.866  1.00  0.00    -0.010 OA 
HETATM   14  H   UNL     1      -8.112   6.081  69.111  1.00  0.00     0.000 HD 
BRANCH  12  15
HETATM   15  C   UNL     1      -7.457   3.593  69.454  1.00  0.00    -0.052 C  
HETATM   16  H2  UNL     1      -8.048   3.181  67.488  1.00  0.00     0.000 HD 
HETATM   17  N   UNL     1      -8.476   3.349  68.398  1.00  0.00    -0.081 NA 
HETATM   18  H1  UNL     1      -9.094   2.587  68.676  1.00  0.00     0.000 HD 
BRANCH  15  19
HETATM   19  C   UNL     1      -8.089   3.795  70.820  1.00  0.00    -0.066 A  
HETATM   20  C   UNL     1      -8.870   2.804  71.439  1.00  0.00    -0.131 A  
HETATM   21  C   UNL     1      -7.845   4.986  71.524  1.00  0.00    -0.110 A  
HETATM   22  C   UNL     1      -8.307   5.148  72.833  1.00  0.00    -0.109 A  
HETATM   23  C   UNL     1      -9.324   2.965  72.749  1.00  0.00    -0.135 A  
HETATM   24  C   UNL     1      -9.030   4.130  73.451  1.00  0.00    -0.105 A  
ENDBRANCH  15  19
ENDBRANCH  12  15
ENDBRANCH   6  11
BRANCH   7  25
HETATM   25  C   UNL     1      -7.806  11.204  67.400  1.00  0.00    -0.121 C  
HETATM   26  O   UNL     1      -7.550  10.949  66.227  1.00  0.00    -0.142 OA 
BRANCH  25  27
HETATM   27  O   UNL     1      -8.183  12.443  67.828  1.00  0.00    -0.141 OA 
BRANCH  27  28
HETATM   28  C   UNL     1      -8.852  13.237  66.844  1.00  0.00    -0.178 C  
BRANCH  28  29
HETATM   29  O   UNL     1      -8.549  14.619  67.015  1.00  0.00    -0.213 OA 
BRANCH  29  30
HETATM   30  C   UNL     1      -9.611  15.462  67.076  1.00  0.00    -0.218 C  
HETATM   31  O   UNL     1     -10.781  15.104  67.115  1.00  0.00    -0.296 OA 
BRANCH  30  32
HETATM   32  C   UNL     1      -9.157  16.938  67.118  1.00  0.00    -0.217 C  
HETATM   33  N   UNL     1      -7.859  17.058  66.434  1.00  0.00    -0.283 N  
HETATM   34  C   UNL     1      -6.629  16.791  67.228  1.00  0.00    -0.172 C  
HETATM   35  S   UNL     1      -7.261  16.871  68.917  1.00  0.00    -0.232 S  
HETATM   36  C   UNL     1      -6.018  18.034  66.577  1.00  0.00    -0.206 C  
HETATM   37  O   UNL     1      -7.382  15.516  69.428  1.00  0.00    -0.187 OA 
HETATM   38  O   UNL     1      -6.543  17.877  69.673  1.00  0.00    -0.200 OA 
HETATM   39  C   UNL     1      -8.942  17.480  68.550  1.00  0.00    -0.279 C  
HETATM   40  C   UNL     1      -7.400  18.242  65.942  1.00  0.00    -0.202 C  
HETATM   41  C   UNL     1      -9.941  16.994  69.609  1.00  0.00     0.138 C  
HETATM   42  C   UNL     1      -8.968  19.023  68.597  1.00  0.00    -0.402 C  
HETATM   43  O   UNL     1      -8.001  19.149  65.418  1.00  0.00    -0.263 OA 
ENDBRANCH  30  32
ENDBRANCH  29  30
ENDBRANCH  28  29
ENDBRANCH  27  28
ENDBRANCH  25  27
ENDBRANCH   7  25
TORSDOF 9
ENDMDL
MODEL      276
REMARK 921   NORMALIZED FREE ENERGY PREDICTED BY IDOCK:   -3.20 KCAL/MOL
REMARK 922        TOTAL FREE ENERGY PREDICTED BY IDOCK:   -5.38 KCAL/MOL
REMARK 923 INTER-LIGAND FREE ENERGY PREDICTED BY IDOCK:   -6.74 KCAL/MOL
REMARK 924 INTRA-LIGAND FREE ENERGY PREDICTED BY IDOCK:    1.36 KCAL/MOL
REMARK 927      BINDING AFFINITY PREDICTED BY RF-SCORE:    0.00 PKD
ROOT
HETATM    1  C   UNL     1      -8.155  12.429  68.563  1.00  0.00    -0.096 C  
HETATM    2  C   UNL     1      -7.041  11.375  68.731  1.00  0.00    -0.102 C  
HETATM    3  S   UNL     1      -7.068  10.319  67.206  1.00  0.00    -0.089 SA 
HETATM    4  C   UNL     1      -5.726  12.159  68.817  1.00  0.00    -0.054 C  
HETATM    5  C   UNL     1      -8.123   8.998  67.975  1.00  0.00    -0.105 C  
HETATM    6  C   UNL     1      -9.665   9.116  67.813  1.00  0.00    -0.154 C  
HETATM    7  C   UNL     1      -7.310  10.385  69.894  1.00  0.00    -0.142 C  
HETATM    8  C   UNL     1      -9.613   9.719  69.242  1.00  0.00    -0.197 C  
HETATM    9  O   UNL     1     -10.342  10.384  69.941  1.00  0.00    -0.244 OA 
HETATM   10  N   UNL     1      -8.289   9.418  69.379  1.00  0.00    -0.116 N  
ENDROOT
BRANCH   6  11
HETATM   11  N   UNL     1     -10.163   9.993  66.720  1.00  0.00    -0.227 N  
HETATM   12  C   UNL     1      -9.880   9.718  65.399  1.00  0.00    -0.295 C  
HETATM   13  O   UNL     1      -9.354   8.663  65.048  1.00  0.00     0.060 OA 
HETATM   14  H   UNL     1     -10.725  10.812  66.951  1.00  0.00     0.000 HD 
BRANCH  12  15
HETATM   15  C   UNL     1     -10.238  10.843  64.401  1.00  0.00    -0.358 C  
HETATM   16  H2  UNL     1      -8.534  10.524  63.227  1.00  0.00     0.000 HD 
HETATM   17  N   UNL     1      -9.018  11.298  63.682  1.00  0.00    -0.421 NA 
HETATM   18  H1  UNL     1      -9.254  12.040  63.024  1.00  0.00     0.000 HD 
BRANCH  15  19
HETATM   19  C   UNL     1     -10.987  12.000  65.039  1.00  0.00    -0.355 A  
HETATM   20  C   UNL     1     -11.242  12.059  66.419  1.00  0.00    -0.389 A  
HETATM   21  C   UNL     1     -11.393  13.083  64.240  1.00  0.00    -0.419 A  
HETATM   22  C   UNL     1     -11.971  14.217  64.817  1.00  0.00    -0.449 A  
HETATM   23  C   UNL     1     -11.811  13.196  66.994  1.00  0.00    -0.435 A  
HETATM   24  C   UNL     1     -12.161  14.281  66.195  1.00  0.00    -0.430 A  
ENDBRANCH  15  19
ENDBRANCH  12  15
ENDBRANCH   6  11
BRANCH   7  25
HETATM   25  C   UNL     1      -6.087   9.555  70.347  1.00  0.00    -0.059 C  
HETATM   26  O   UNL     1      -5.505   9.674  71.421  1.00  0.00    -0.063 OA 
BRANCH  25  27
HETATM   27  O   UNL     1      -5.708   8.662  69.388  1.00  0.00    -0.034 OA 
BRANCH  27  28
HETATM   28  C   UNL     1      -5.279   7.393  69.889  1.00  0.00    -0.023 C  
BRANCH  28  29
HETATM   29  O   UNL     1      -6.065   6.996  71.008  1.00  0.00    -0.035 OA 
BRANCH  29  30
HETATM   30  C   UNL     1      -6.570   5.736  70.970  1.00  0.00    -0.045 C  
HETATM   31  O   UNL     1      -5.894   4.717  71.003  1.00  0.00    -0.015 OA 
BRANCH  30  32
HETATM   32  C   UNL     1      -8.113   5.749  70.907  1.00  0.00    -0.119 C  
HETATM   33  N   UNL     1      -8.641   4.843  71.940  1.00  0.00    -0.126 N  
HETATM   34  C   UNL     1      -8.767   3.400  71.601  1.00  0.00    -0.085 C  
HETATM   35  S   UNL     1      -8.629   3.436  69.801  1.00  0.00    -0.069 S  
HETATM   36  C   UNL     1     -10.144   3.430  72.267  1.00  0.00    -0.219 C  
HETATM   37  O   UNL     1      -7.301   2.979  69.431  1.00  0.00    -0.044 OA 
HETATM   38  O   UNL     1      -9.804   2.840  69.198  1.00  0.00     0.082 OA 
HETATM   39  C   UNL     1      -8.683   5.245  69.560  1.00  0.00    -0.104 C  
HETATM   40  C   UNL     1      -9.913   4.941  72.416  1.00  0.00    -0.177 C  
HETATM   41  C   UNL     1      -7.899   5.652  68.305  1.00  0.00    -0.096 C  
HETATM   42  C   UNL     1     -10.140   5.707  69.337  1.00  0.00    -0.290 C  
HETATM   43  O   UNL     1     -10.590   5.918  72.625  1.00  0.00    -0.201 OA 
ENDBRANCH  30  32
ENDBRANCH  29  30
ENDBRANCH  28  29
ENDBRANCH  27  28
ENDBRANCH  25  27
ENDBRANCH   7  25
TORSDOF 9
ENDMDL
MODEL      277
REMARK 921   NORMALIZED FREE ENERGY PREDICTED BY IDOCK:   -3.13 KCAL/MOL
REMARK 922        TOTAL FREE ENERGY PREDICTED BY IDOCK:   -5.29 KCAL/MOL
REMARK 923 INTER-LIGAND FREE ENERGY PREDICTED BY IDOCK:   -5.84 KCAL/MOL
REMARK 924 INTRA-LIGAND FREE ENERGY PREDICTED BY IDOCK:    0.55 KCAL/MOL
REMARK 927      BINDING AFFINITY PREDICTED BY RF-SCORE:    0.00 PKD
ROOT
HETATM    1  C   UNL     1      -8.992   9.284  69.806  1.00  0.00    -0.180 C  
HETATM    2  C   UNL     1      -8.067  10.253  69.042  1.00  0.00    -0.132 C  
HETATM    3  S   UNL     1      -7.147   9.242  67.788  1.00  0.00    -0.082 SA 
HETATM    4  C   UNL     1      -8.992  11.259  68.345  1.00  0.00    -0.167 C  
HETATM    5  C   UNL     1      -5.651   9.020  68.866  1.00  0.00    -0.040 C  
HETATM    6  C   UNL     1      -5.598   7.767  69.785  1.00  0.00    -0.023 C  
HETATM    7  C   UNL     1      -6.957  10.868  69.936  1.00  0.00    -0.090 C  
HETATM    8  C   UNL     1      -6.081   8.747  70.887  1.00  0.00    -0.040 C  
HETATM    9  O   UNL     1      -6.594   8.657  71.979  1.00  0.00    -0.077 OA 
HETATM   10  N   UNL     1      -5.928   9.828  70.068  1.00  0.00    -0.042 N  
ENDROOT
BRANCH   6  11
HETATM   11  N   UNL     1      -6.499   6.636  69.436  1.00  0.00    -0.042 N  
HETATM   12  C   UNL     1      -6.299   5.376  69.958  1.00  0.00    -0.030 C  
HETATM   13  O   UNL     1      -5.484   5.161  70.854  1.00  0.00    -0.004 OA 
HETATM   14  H   UNL     1      -7.279   6.795  68.798  1.00  0.00     0.000 HD 
BRANCH  12  15
HETATM   15  C   UNL     1      -7.143   4.254  69.312  1.00  0.00    -0.050 C  
HETATM   16  H2  UNL     1      -7.134   5.154  67.422  1.00  0.00     0.000 HD 
HETATM   17  N   UNL     1      -7.805   4.756  68.078  1.00  0.00    -0.082 NA 
HETATM   18  H1  UNL     1      -8.362   4.016  67.652  1.00  0.00     0.000 HD 
BRANCH  15  19
HETATM   19  C   UNL     1      -8.133   3.616  70.270  1.00  0.00    -0.058 A  
HETATM   20  C   UNL     1      -7.897   2.370  70.875  1.00  0.00    -0.043 A  
HETATM   21  C   UNL     1      -9.304   4.311  70.616  1.00  0.00    -0.213 A  
HETATM   22  C   UNL     1     -10.172   3.808  71.590  1.00  0.00    -0.063 A  
HETATM   23  C   UNL     1      -8.759   1.873  71.853  1.00  0.00    -0.088 A  
HETATM   24  C   UNL     1      -9.889   2.599  72.221  1.00  0.00    -0.230 A  
ENDBRANCH  15  19
ENDBRANCH  12  15
ENDBRANCH   6  11
BRANCH   7  25
HETATM   25  C   UNL     1      -6.244  12.103  69.340  1.00  0.00    -0.106 C  
HETATM   26  O   UNL     1      -5.141  12.520  69.681  1.00  0.00    -0.071 OA 
BRANCH  25  27
HETATM   27  O   UNL     1      -7.002  12.701  68.377  1.00  0.00    -0.079 OA 
BRANCH  27  28
HETATM   28  C   UNL     1      -6.869  14.123  68.308  1.00  0.00    -0.107 C  
BRANCH  28  29
HETATM   29  O   UNL     1      -7.516  14.749  69.412  1.00  0.00    -0.163 OA 
BRANCH  29  30
HETATM   30  C   UNL     1      -8.511  15.621  69.108  1.00  0.00    -0.253 C  
HETATM   31  O   UNL     1      -9.667  15.516  69.493  1.00  0.00    -0.258 OA 
BRANCH  30  32
HETATM   32  C   UNL     1      -7.993  16.784  68.234  1.00  0.00    -0.200 C  
HETATM   33  N   UNL     1      -8.210  18.052  68.948  1.00  0.00    -0.205 N  
HETATM   34  C   UNL     1      -9.538  18.709  68.810  1.00  0.00    -0.344 C  
HETATM   35  S   UNL     1     -10.221  17.851  67.376  1.00  0.00    -0.375 S  
HETATM   36  C   UNL     1      -8.791  20.033  68.628  1.00  0.00    -0.029 C  
HETATM   37  O   UNL     1     -11.209  16.893  67.840  1.00  0.00    -0.239 OA 
HETATM   38  O   UNL     1     -10.556  18.803  66.336  1.00  0.00    -0.408 OA 
HETATM   39  C   UNL     1      -8.731  16.919  66.881  1.00  0.00    -0.223 C  
HETATM   40  C   UNL     1      -7.512  19.184  68.654  1.00  0.00    -0.334 C  
HETATM   41  C   UNL     1      -9.115  15.603  66.190  1.00  0.00    -0.378 C  
HETATM   42  C   UNL     1      -7.915  17.732  65.853  1.00  0.00    -0.063 C  
HETATM   43  O   UNL     1      -6.359  19.321  68.325  1.00  0.00    -0.222 OA 
ENDBRANCH  30  32
ENDBRANCH  29  30
ENDBRANCH  28  29
ENDBRANCH  27  28
ENDBRANCH  25  27
ENDBRANCH   7  25
TORSDOF 9
ENDMDL
MODEL      278
REMARK 921   NORMALIZED FREE ENERGY PREDICTED BY IDOCK:   -3.11 KCAL/MOL
REMARK 922        TOTAL FREE ENERGY PREDICTED BY IDOCK:   -5.26 KCAL/MOL
REMARK 923 INTER-LIGAND FREE ENERGY PREDICTED BY IDOCK:   -6.31 KCAL/MOL
REMARK 924 INTRA-LIGAND FREE ENERGY PREDICTED BY IDOCK:    1.05 KCAL/MOL
REMARK 927      BINDING AFFINITY PREDICTED BY RF-SCORE:    0.00 PKD
ROOT
HETATM    1  C   UNL     1     -11.969  10.855  66.957  1.00  0.00     1.198 C  
HETATM    2  C   UNL     1     -11.127  11.782  66.056  1.00  0.00    -0.312 C  
HETATM    3  S   UNL     1      -9.658  10.796  65.496  1.00  0.00    -0.239 SA 
HETATM    4  C   UNL     1     -12.021  12.138  64.862  1.00  0.00    -0.356 C  
HETATM    5  C   UNL     1      -8.541  11.451  66.827  1.00  0.00    -0.166 C  
HETATM    6  C   UNL     1      -8.457  10.653  68.159  1.00  0.00    -0.122 C  
HETATM    7  C   UNL     1     -10.517  12.987  66.821  1.00  0.00    -0.259 C  
HETATM    8  C   UNL     1      -9.469  11.710  68.676  1.00  0.00    -0.123 C  
HETATM    9  O   UNL     1     -10.243  11.806  69.601  1.00  0.00     0.331 OA 
HETATM   10  N   UNL     1      -9.351  12.456  67.540  1.00  0.00    -0.176 N  
ENDROOT
BRANCH   6  11
HETATM   11  N   UNL     1      -8.907   9.236  68.127  1.00  0.00    -0.129 N  
HETATM   12  C   UNL     1      -9.479   8.642  69.232  1.00  0.00    -0.158 C  
HETATM   13  O   UNL     1      -9.796   9.287  70.230  1.00  0.00    -0.190 OA 
HETATM   14  H   UNL     1      -8.790   8.693  67.271  1.00  0.00     0.000 HD 
BRANCH  12  15
HETATM   15  C   UNL     1      -9.657   7.109  69.137  1.00  0.00    -0.154 C  
HETATM   16  H2  UNL     1     -10.647   7.206  67.294  1.00  0.00     0.000 HD 
HETATM   17  N   UNL     1     -10.774   6.779  68.212  1.00  0.00    -0.280 NA 
HETATM   18  H1  UNL     1     -10.891   5.768  68.150  1.00  0.00     0.000 HD 
BRANCH  15  19
HETATM   19  C   UNL     1      -9.820   6.436  70.489  1.00  0.00    -0.207 A  
HETATM   20  C   UNL     1     -11.058   6.371  71.151  1.00  0.00    -0.344 A  
HETATM   21  C   UNL     1      -8.714   5.802  71.081  1.00  0.00    -0.135 A  
HETATM   22  C   UNL     1      -8.861   5.067  72.261  1.00  0.00    -0.135 A  
HETATM   23  C   UNL     1     -11.204   5.629  72.323  1.00  0.00    -0.317 A  
HETATM   24  C   UNL     1     -10.110   4.965  72.870  1.00  0.00    -0.208 A  
ENDBRANCH  15  19
ENDBRANCH  12  15
ENDBRANCH   6  11
BRANCH   7  25
HETATM   25  C   UNL     1      -9.986  14.131  65.928  1.00  0.00    -0.311 C  
HETATM   26  O   UNL     1      -9.725  14.037  64.732  1.00  0.00    -0.027 OA 
BRANCH  25  27
HETATM   27  O   UNL     1      -9.821  15.283  66.639  1.00  0.00    -0.234 OA 
BRANCH  27  28
HETATM   28  C   UNL     1      -8.508  15.472  67.175  1.00  0.00    -0.212 C  
BRANCH  28  29
HETATM   29  O   UNL     1      -7.611  15.937  66.172  1.00  0.00     0.144 OA 
BRANCH  29  30
HETATM   30  C   UNL     1      -7.337  17.267  66.183  1.00  0.00    -0.281 C  
HETATM   31  O   UNL     1      -6.810  17.875  65.262  1.00  0.00    -0.351 OA 
BRANCH  30  32
HETATM   32  C   UNL     1      -7.802  17.926  67.500  1.00  0.00    -0.212 C  
HETATM   33  N   UNL     1      -8.791  18.971  67.189  1.00  0.00    -0.283 N  
HETATM   34  C   UNL     1      -8.283  20.326  66.839  1.00  0.00    -0.294 C  
HETATM   35  S   UNL     1      -6.574  20.234  67.414  1.00  0.00    -0.242 S  
HETATM   36  C   UNL     1      -9.370  20.897  67.753  1.00  0.00    -0.141 C  
HETATM   37  O   UNL     1      -5.708  20.069  66.259  1.00  0.00    -0.170 OA 
HETATM   38  O   UNL     1      -6.314  21.282  68.380  1.00  0.00    -0.175 OA 
HETATM   39  C   UNL     1      -6.663  18.628  68.278  1.00  0.00    -0.225 C  
HETATM   40  C   UNL     1      -9.677  19.436  68.113  1.00  0.00    -0.383 C  
HETATM   41  C   UNL     1      -5.301  17.922  68.258  1.00  0.00    -0.155 C  
HETATM   42  C   UNL     1      -7.023  18.846  69.763  1.00  0.00     0.069 C  
HETATM   43  O   UNL     1     -10.257  18.850  68.994  1.00  0.00    -0.346 OA 
ENDBRANCH  30  32
ENDBRANCH  29  30
ENDBRANCH  28  29
ENDBRANCH  27  28
ENDBRANCH  25  27
ENDBRANCH   7  25
TORSDOF 9
ENDMDL
MODEL      279
REMARK 921   NORMALIZED FREE ENERGY PREDICTED BY IDOCK:   -3.11 KCAL/MOL
REMARK 922        TOTAL FREE ENERGY PREDICTED BY IDOCK:   -5.24 KCAL/MOL
REMARK 923 INTER-LIGAND FREE ENERGY PREDICTED BY IDOCK:   -5.98 KCAL/MOL
REMARK 924 INTRA-LIGAND FREE ENERGY PREDICTED BY IDOCK:    0.73 KCAL/MOL
REMARK 927      BINDING AFFINITY PREDICTED BY RF-SCORE:    0.00 PKD
ROOT
HETATM    1  C   UNL     1      -9.059   9.272  69.752  1.00  0.00    -0.186 C  
HETATM    2  C   UNL     1      -8.084  10.281  69.111  1.00  0.00    -0.138 C  
HETATM    3  S   UNL     1      -7.163   9.368  67.784  1.00  0.00    -0.083 SA 
HETATM    4  C   UNL     1      -8.957  11.382  68.497  1.00  0.00    -0.158 C  
HETATM    5  C   UNL     1      -5.704   8.990  68.868  1.00  0.00    -0.040 C  
HETATM    6  C   UNL     1      -5.716   7.650  69.658  1.00  0.00    -0.023 C  
HETATM    7  C   UNL     1      -6.979  10.765  70.087  1.00  0.00     0.002 C  
HETATM    8  C   UNL     1      -6.196   8.532  70.842  1.00  0.00    -0.036 C  
HETATM    9  O   UNL     1      -6.740   8.351  71.907  1.00  0.00    -0.069 OA 
HETATM   10  N   UNL     1      -5.987   9.682  70.139  1.00  0.00    -0.045 N  
ENDROOT
BRANCH   6  11
HETATM   11  N   UNL     1      -6.641   6.590  69.176  1.00  0.00    -0.043 N  
HETATM   12  C   UNL     1      -6.575   5.305  69.669  1.00  0.00    -0.043 C  
HETATM   13  O   UNL     1      -5.873   5.011  70.636  1.00  0.00    -0.015 OA 
HETATM   14  H   UNL     1      -7.339   6.819  68.468  1.00  0.00     0.000 HD 
BRANCH  12  15
HETATM   15  C   UNL     1      -7.413   4.260  68.899  1.00  0.00    -0.055 C  
HETATM   16  H2  UNL     1      -5.910   2.804  68.975  1.00  0.00     0.000 HD 
HETATM   17  N   UNL     1      -6.522   3.239  68.285  1.00  0.00    -0.036 NA 
HETATM   18  H1  UNL     1      -7.076   2.550  67.777  1.00  0.00     0.000 HD 
BRANCH  15  19
HETATM   19  C   UNL     1      -8.360   4.874  67.883  1.00  0.00    -0.103 A  
HETATM   20  C   UNL     1      -9.749   4.929  68.089  1.00  0.00    -0.202 A  
HETATM   21  C   UNL     1      -7.836   5.463  66.720  1.00  0.00    -0.101 A  
HETATM   22  C   UNL     1      -8.668   6.147  65.829  1.00  0.00    -0.151 A  
HETATM   23  C   UNL     1     -10.577   5.620  67.203  1.00  0.00    -0.344 A  
HETATM   24  C   UNL     1     -10.034   6.241  66.081  1.00  0.00     0.061 A  
ENDBRANCH  15  19
ENDBRANCH  12  15
ENDBRANCH   6  11
BRANCH   7  25
HETATM   25  C   UNL     1      -6.212  12.028  69.635  1.00  0.00    -0.131 C  
HETATM   26  O   UNL     1      -5.131  12.402  70.082  1.00  0.00    -0.080 OA 
BRANCH  25  27
HETATM   27  O   UNL     1      -6.893  12.706  68.667  1.00  0.00    -0.080 OA 
BRANCH  27  28
HETATM   28  C   UNL     1      -6.696  14.123  68.679  1.00  0.00    -0.094 C  
BRANCH  28  29
HETATM   29  O   UNL     1      -7.496  14.739  69.684  1.00  0.00    -0.157 OA 
BRANCH  29  30
HETATM   30  C   UNL     1      -8.475  15.570  69.244  1.00  0.00    -0.265 C  
HETATM   31  O   UNL     1      -9.656  15.473  69.547  1.00  0.00    -0.260 OA 
BRANCH  30  32
HETATM   32  C   UNL     1      -7.905  16.678  68.331  1.00  0.00    -0.202 C  
HETATM   33  N   UNL     1      -8.115  17.985  68.977  1.00  0.00    -0.130 N  
HETATM   34  C   UNL     1      -9.423  18.662  68.766  1.00  0.00    -0.321 C  
HETATM   35  S   UNL     1     -10.082  17.749  67.354  1.00  0.00    -0.353 S  
HETATM   36  C   UNL     1      -8.642  19.959  68.545  1.00  0.00    -0.179 C  
HETATM   37  O   UNL     1     -11.105  16.835  67.833  1.00  0.00    -0.302 OA 
HETATM   38  O   UNL     1     -10.364  18.656  66.260  1.00  0.00    -0.406 OA 
HETATM   39  C   UNL     1      -8.599  16.763  66.951  1.00  0.00    -0.212 C  
HETATM   40  C   UNL     1      -7.383  19.086  68.651  1.00  0.00    -0.318 C  
HETATM   41  C   UNL     1      -8.991  15.424  66.313  1.00  0.00    -0.341 C  
HETATM   42  C   UNL     1      -7.734  17.508  65.912  1.00  0.00    -0.119 C  
HETATM   43  O   UNL     1      -6.218  19.182  68.352  1.00  0.00    -0.219 OA 
ENDBRANCH  30  32
ENDBRANCH  29  30
ENDBRANCH  28  29
ENDBRANCH  27  28
ENDBRANCH  25  27
ENDBRANCH   7  25
TORSDOF 9
ENDMDL
MODEL      280
REMARK 921   NORMALIZED FREE ENERGY PREDICTED BY IDOCK:   -3.05 KCAL/MOL
REMARK 922        TOTAL FREE ENERGY PREDICTED BY IDOCK:   -5.16 KCAL/MOL
REMARK 923 INTER-LIGAND FREE ENERGY PREDICTED BY IDOCK:   -6.16 KCAL/MOL
REMARK 924 INTRA-LIGAND FREE ENERGY PREDICTED BY IDOCK:    1.01 KCAL/MOL
REMARK 927      BINDING AFFINITY PREDICTED BY RF-SCORE:    0.00 PKD
ROOT
HETATM    1  C   UNL     1      -9.479   9.560  67.233  1.00  0.00    -0.170 C  
HETATM    2  C   UNL     1      -8.214   9.598  68.116  1.00  0.00    -0.106 C  
HETATM    3  S   UNL     1      -7.078  10.861  67.370  1.00  0.00    -0.098 SA 
HETATM    4  C   UNL     1      -8.680  10.050  69.505  1.00  0.00    -0.205 C  
HETATM    5  C   UNL     1      -6.097   9.610  66.410  1.00  0.00    -0.060 C  
HETATM    6  C   UNL     1      -6.552   9.292  64.957  1.00  0.00    -0.077 C  
HETATM    7  C   UNL     1      -7.404   8.275  68.076  1.00  0.00    -0.096 C  
HETATM    8  C   UNL     1      -7.235   8.059  65.607  1.00  0.00    -0.071 C  
HETATM    9  O   UNL     1      -8.101   7.272  65.301  1.00  0.00    -0.124 OA 
HETATM   10  N   UNL     1      -6.650   8.304  66.815  1.00  0.00    -0.056 N  
ENDROOT
BRANCH   6  11
HETATM   11  N   UNL     1      -7.433  10.289  64.292  1.00  0.00    -0.263 N  
HETATM   12  C   UNL     1      -8.625   9.914  63.710  1.00  0.00    -0.199 C  
HETATM   13  O   UNL     1      -9.096   8.786  63.853  1.00  0.00     0.181 OA 
HETATM   14  H   UNL     1      -7.150  11.268  64.267  1.00  0.00     0.000 HD 
BRANCH  12  15
HETATM   15  C   UNL     1      -9.302  10.996  62.840  1.00  0.00    -0.361 C  
HETATM   16  H2  UNL     1      -7.527  11.497  61.848  1.00  0.00     0.000 HD 
HETATM   17  N   UNL     1      -8.287  11.963  62.342  1.00  0.00    -0.230 NA 
HETATM   18  H1  UNL     1      -8.734  12.677  61.768  1.00  0.00     0.000 HD 
BRANCH  15  19
HETATM   19  C   UNL     1     -10.459  11.692  63.534  1.00  0.00    -0.498 A  
HETATM   20  C   UNL     1     -11.763  11.686  63.008  1.00  0.00     0.092 A  
HETATM   21  C   UNL     1     -10.245  12.319  64.773  1.00  0.00    -0.308 A  
HETATM   22  C   UNL     1     -11.313  12.857  65.495  1.00  0.00    -0.340 A  
HETATM   23  C   UNL     1     -12.830  12.217  63.734  1.00  0.00    -0.451 A  
HETATM   24  C   UNL     1     -12.607  12.789  64.984  1.00  0.00    -0.538 A  
ENDBRANCH  15  19
ENDBRANCH  12  15
ENDBRANCH   6  11
BRANCH   7  25
HETATM   25  C   UNL     1      -6.354   8.115  69.199  1.00  0.00    -0.039 C  
HETATM   26  O   UNL     1      -5.307   8.750  69.289  1.00  0.00    -0.034 OA 
BRANCH  25  27
HETATM   27  O   UNL     1      -6.723   7.155  70.094  1.00  0.00    -0.049 OA 
BRANCH  27  28
HETATM   28  C   UNL     1      -7.425   6.046  69.525  1.00  0.00    -0.088 C  
BRANCH  28  29
HETATM   29  O   UNL     1      -8.463   5.601  70.394  1.00  0.00    -0.122 OA 
BRANCH  29  30
HETATM   30  C   UNL     1      -8.874   4.318  70.228  1.00  0.00    -0.084 C  
HETATM   31  O   UNL     1      -8.459   3.563  69.360  1.00  0.00    -0.062 OA 
BRANCH  30  32
HETATM   32  C   UNL     1      -9.918   3.919  71.295  1.00  0.00    -0.113 C  
HETATM   33  N   UNL     1      -9.920   4.931  72.364  1.00  0.00    -0.171 N  
HETATM   34  C   UNL     1      -8.928   4.782  73.463  1.00  0.00    -0.107 C  
HETATM   35  S   UNL     1      -8.399   3.069  73.247  1.00  0.00    -0.077 S  
HETATM   36  C   UNL     1     -10.057   5.120  74.440  1.00  0.00    -0.270 C  
HETATM   37  O   UNL     1      -7.086   3.068  72.625  1.00  0.00    -0.036 OA 
HETATM   38  O   UNL     1      -8.635   2.316  74.462  1.00  0.00    -0.064 OA 
HETATM   39  C   UNL     1      -9.616   2.566  71.982  1.00  0.00    -0.131 C  
HETATM   40  C   UNL     1     -10.975   5.098  73.209  1.00  0.00    -0.314 C  
HETATM   41  C   UNL     1      -9.040   1.467  71.078  1.00  0.00    -0.137 C  
HETATM   42  C   UNL     1     -10.867   1.967  72.660  1.00  0.00    -0.116 C  
HETATM   43  O   UNL     1     -12.160   5.012  72.996  1.00  0.00    -0.171 OA 
ENDBRANCH  30  32
ENDBRANCH  29  30
ENDBRANCH  28  29
ENDBRANCH  27  28
ENDBRANCH  25  27
ENDBRANCH   7  25
TORSDOF 9
ENDMDL
MODEL      281
REMARK 921   NORMALIZED FREE ENERGY PREDICTED BY IDOCK:   -2.96 KCAL/MOL
REMARK 922        TOTAL FREE ENERGY PREDICTED BY IDOCK:   -5.03 KCAL/MOL
REMARK 923 INTER-LIGAND FREE ENERGY PREDICTED BY IDOCK:   -5.12 KCAL/MOL
REMARK 924 INTRA-LIGAND FREE ENERGY PREDICTED BY IDOCK:    0.09 KCAL/MOL
REMARK 927      BINDING AFFINITY PREDICTED BY RF-SCORE:    0.00 PKD
ROOT
HETATM    1  C   UNL     1     -10.750   8.089  66.759  1.00  0.00    -0.077 C  
HETATM    2  C   UNL     1     -10.091   6.957  67.576  1.00  0.00    -0.174 C  
HETATM    3  S   UNL     1      -8.708   7.729  68.542  1.00  0.00    -0.127 SA 
HETATM    4  C   UNL     1     -11.177   6.431  68.521  1.00  0.00    -0.321 C  
HETATM    5  C   UNL     1      -7.406   7.280  67.295  1.00  0.00    -0.098 C  
HETATM    6  C   UNL     1      -7.085   8.314  66.179  1.00  0.00    -0.065 C  
HETATM    7  C   UNL     1      -9.397   5.890  66.689  1.00  0.00    -0.145 C  
HETATM    8  C   UNL     1      -8.026   7.437  65.311  1.00  0.00    -0.127 C  
HETATM    9  O   UNL     1      -8.642   7.567  64.278  1.00  0.00     0.143 OA 
HETATM   10  N   UNL     1      -8.116   6.480  66.279  1.00  0.00    -0.111 N  
ENDROOT
BRANCH   6  11
HETATM   11  N   UNL     1      -7.496   9.722  66.424  1.00  0.00    -0.098 N  
HETATM   12  C   UNL     1      -6.707  10.579  67.161  1.00  0.00    -0.079 C  
HETATM   13  O   UNL     1      -5.564  10.281  67.506  1.00  0.00    -0.044 OA 
HETATM   14  H   UNL     1      -8.378  10.060  66.040  1.00  0.00     0.000 HD 
BRANCH  12  15
HETATM   15  C   UNL     1      -7.373  11.918  67.550  1.00  0.00    -0.132 C  
HETATM   16  H2  UNL     1      -5.601  12.729  68.316  1.00  0.00     0.000 HD 
HETATM   17  N   UNL     1      -6.572  12.603  68.600  1.00  0.00    -0.077 NA 
HETATM   18  H1  UNL     1      -7.012  13.486  68.856  1.00  0.00     0.000 HD 
BRANCH  15  19
HETATM   19  C   UNL     1      -8.831  11.773  67.950  1.00  0.00    -0.165 A  
HETATM   20  C   UNL     1      -9.882  12.194  67.118  1.00  0.00    -0.205 A  
HETATM   21  C   UNL     1      -9.154  11.146  69.165  1.00  0.00     0.048 A  
HETATM   22  C   UNL     1     -10.485  10.886  69.502  1.00  0.00    -0.176 A  
HETATM   23  C   UNL     1     -11.210  11.925  67.452  1.00  0.00    -0.366 A  
HETATM   24  C   UNL     1     -11.511  11.258  68.636  1.00  0.00    -0.362 A  
ENDBRANCH  15  19
ENDBRANCH  12  15
ENDBRANCH   6  11
BRANCH   7  25
HETATM   25  C   UNL     1      -9.049   4.566  67.406  1.00  0.00    -0.128 C  
HETATM   26  O   UNL     1      -9.853   3.692  67.716  1.00  0.00    -0.110 OA 
BRANCH  25  27
HETATM   27  O   UNL     1      -7.715   4.481  67.677  1.00  0.00    -0.084 OA 
BRANCH  27  28
HETATM   28  C   UNL     1      -7.381   4.547  69.066  1.00  0.00    -0.056 C  
BRANCH  28  29
HETATM   29  O   UNL     1      -8.550   4.713  69.862  1.00  0.00    -0.073 OA 
BRANCH  29  30
HETATM   30  C   UNL     1      -8.953   3.627  70.571  1.00  0.00    -0.094 C  
HETATM   31  O   UNL     1      -8.620   2.476  70.324  1.00  0.00    -0.048 OA 
BRANCH  30  32
HETATM   32  C   UNL     1      -9.865   4.030  71.750  1.00  0.00    -0.179 C  
HETATM   33  N   UNL     1     -10.256   5.440  71.592  1.00  0.00    -0.202 N  
HETATM   34  C   UNL     1      -9.331   6.481  72.119  1.00  0.00    -0.142 C  
HETATM   35  S   UNL     1      -8.261   5.505  73.196  1.00  0.00    -0.118 S  
HETATM   36  C   UNL     1     -10.560   7.188  72.694  1.00  0.00    -0.290 C  
HETATM   37  O   UNL     1      -6.987   5.308  72.525  1.00  0.00    -0.076 OA 
HETATM   38  O   UNL     1      -8.303   6.025  74.548  1.00  0.00    -0.114 OA 
HETATM   39  C   UNL     1      -9.175   3.926  73.131  1.00  0.00    -0.106 C  
HETATM   40  C   UNL     1     -11.352   5.967  72.205  1.00  0.00    -0.303 C  
HETATM   41  C   UNL     1      -8.223   2.736  73.319  1.00  0.00    -0.064 C  
HETATM   42  C   UNL     1     -10.196   3.858  74.287  1.00  0.00    -0.236 C  
HETATM   43  O   UNL     1     -12.430   5.471  72.426  1.00  0.00     0.063 OA 
ENDBRANCH  30  32
ENDBRANCH  29  30
ENDBRANCH  28  29
ENDBRANCH  27  28
ENDBRANCH  25  27
ENDBRANCH   7  25
TORSDOF 9
ENDMDL
MODEL      282
REMARK 921   NORMALIZED FREE ENERGY PREDICTED BY IDOCK:   -2.89 KCAL/MOL
REMARK 922        TOTAL FREE ENERGY PREDICTED BY IDOCK:   -4.92 KCAL/MOL
REMARK 923 INTER-LIGAND FREE ENERGY PREDICTED BY IDOCK:   -5.82 KCAL/MOL
REMARK 924 INTRA-LIGAND FREE ENERGY PREDICTED BY IDOCK:    0.90 KCAL/MOL
REMARK 927      BINDING AFFINITY PREDICTED BY RF-SCORE:    0.00 PKD
ROOT
HETATM    1  C   UNL     1      -8.965  10.011  65.619  1.00  0.00    -0.203 C  
HETATM    2  C   UNL     1      -9.423   9.259  66.887  1.00  0.00    -0.161 C  
HETATM    3  S   UNL     1     -10.483  10.435  67.854  1.00  0.00    -0.228 SA 
HETATM    4  C   UNL     1     -10.254   8.068  66.395  1.00  0.00    -0.096 C  
HETATM    5  C   UNL     1      -9.096  10.990  68.957  1.00  0.00    -0.063 C  
HETATM    6  C   UNL     1      -8.273  12.234  68.517  1.00  0.00    -0.096 C  
HETATM    7  C   UNL     1      -8.252   8.913  67.845  1.00  0.00    -0.110 C  
HETATM    8  C   UNL     1      -7.257  11.184  67.994  1.00  0.00    -0.079 C  
HETATM    9  O   UNL     1      -6.327  11.171  67.221  1.00  0.00    -0.061 OA 
HETATM   10  N   UNL     1      -7.945  10.154  68.568  1.00  0.00    -0.101 N  
ENDROOT
BRANCH   6  11
HETATM   11  N   UNL     1      -8.899  13.137  67.514  1.00  0.00    -0.188 N  
HETATM   12  C   UNL     1      -8.496  14.449  67.384  1.00  0.00    -0.203 C  
HETATM   13  O   UNL     1      -7.503  14.888  67.962  1.00  0.00    -0.106 OA 
HETATM   14  H   UNL     1      -9.639  12.779  66.911  1.00  0.00     0.000 HD 
BRANCH  12  15
HETATM   15  C   UNL     1      -9.401  15.330  66.493  1.00  0.00    -0.281 C  
HETATM   16  H2  UNL     1      -9.081  17.051  67.643  1.00  0.00     0.000 HD 
HETATM   17  N   UNL     1      -9.862  16.523  67.252  1.00  0.00    -0.249 NA 
HETATM   18  H1  UNL     1     -10.458  17.105  66.665  1.00  0.00     0.000 HD 
BRANCH  15  19
HETATM   19  C   UNL     1     -10.558  14.571  65.869  1.00  0.00    -0.315 A  
HETATM   20  C   UNL     1     -11.540  13.930  66.644  1.00  0.00    -0.392 A  
HETATM   21  C   UNL     1     -10.696  14.549  64.471  1.00  0.00    -0.198 A  
HETATM   22  C   UNL     1     -11.817  13.967  63.873  1.00  0.00    -0.263 A  
HETATM   23  C   UNL     1     -12.663  13.357  66.046  1.00  0.00    -0.233 A  
HETATM   24  C   UNL     1     -12.809  13.389  64.662  1.00  0.00    -0.148 A  
ENDBRANCH  15  19
ENDBRANCH  12  15
ENDBRANCH   6  11
BRANCH   7  25
HETATM   25  C   UNL     1      -8.580   7.858  68.926  1.00  0.00    -0.132 C  
HETATM   26  O   UNL     1      -9.176   8.078  69.977  1.00  0.00    -0.154 OA 
BRANCH  25  27
HETATM   27  O   UNL     1      -8.109   6.626  68.580  1.00  0.00    -0.116 OA 
BRANCH  27  28
HETATM   28  C   UNL     1      -6.898   6.242  69.239  1.00  0.00    -0.062 C  
BRANCH  28  29
HETATM   29  O   UNL     1      -7.079   5.032  69.968  1.00  0.00    -0.051 OA 
BRANCH  29  30
HETATM   30  C   UNL     1      -8.237   4.362  69.740  1.00  0.00    -0.062 C  
HETATM   31  O   UNL     1      -8.535   3.831  68.678  1.00  0.00    -0.079 OA 
BRANCH  30  32
HETATM   32  C   UNL     1      -9.127   4.328  71.002  1.00  0.00    -0.123 C  
HETATM   33  N   UNL     1      -9.104   5.655  71.639  1.00  0.00    -0.139 N  
HETATM   34  C   UNL     1      -7.994   5.953  72.585  1.00  0.00    -0.105 C  
HETATM   35  S   UNL     1      -7.347   4.301  72.919  1.00  0.00    -0.076 S  
HETATM   36  C   UNL     1      -9.040   6.570  73.516  1.00  0.00    -0.139 C  
HETATM   37  O   UNL     1      -6.110   4.131  72.175  1.00  0.00    -0.015 OA 
HETATM   38  O   UNL     1      -7.391   4.024  74.340  1.00  0.00    -0.067 OA 
HETATM   39  C   UNL     1      -8.641   3.326  72.077  1.00  0.00    -0.078 C  
HETATM   40  C   UNL     1     -10.076   6.069  72.498  1.00  0.00    -0.178 C  
HETATM   41  C   UNL     1      -8.071   2.001  71.551  1.00  0.00    -0.043 C  
HETATM   42  C   UNL     1      -9.760   2.957  73.075  1.00  0.00    -0.165 C  
HETATM   43  O   UNL     1     -11.265   5.862  72.482  1.00  0.00    -0.264 OA 
ENDBRANCH  30  32
ENDBRANCH  29  30
ENDBRANCH  28  29
ENDBRANCH  27  28
ENDBRANCH  25  27
ENDBRANCH   7  25
TORSDOF 9
ENDMDL
MODEL      283
REMARK 921   NORMALIZED FREE ENERGY PREDICTED BY IDOCK:   -2.83 KCAL/MOL
REMARK 922        TOTAL FREE ENERGY PREDICTED BY IDOCK:   -4.83 KCAL/MOL
REMARK 923 INTER-LIGAND FREE ENERGY PREDICTED BY IDOCK:   -5.56 KCAL/MOL
REMARK 924 INTRA-LIGAND FREE ENERGY PREDICTED BY IDOCK:    0.73 KCAL/MOL
REMARK 927      BINDING AFFINITY PREDICTED BY RF-SCORE:    0.00 PKD
ROOT
HETATM    1  C   UNL     1      -9.061   9.590  65.333  1.00  0.00    -0.273 C  
HETATM    2  C   UNL     1      -9.103   9.029  66.770  1.00  0.00    -0.145 C  
HETATM    3  S   UNL     1      -9.864  10.343  67.836  1.00  0.00    -0.157 SA 
HETATM    4  C   UNL     1     -10.008   7.792  66.715  1.00  0.00    -0.331 C  
HETATM    5  C   UNL     1      -8.230  11.028  68.393  1.00  0.00    -0.137 C  
HETATM    6  C   UNL     1      -7.609  12.187  67.562  1.00  0.00    -0.151 C  
HETATM    7  C   UNL     1      -7.693   8.804  67.378  1.00  0.00    -0.097 C  
HETATM    8  C   UNL     1      -6.763  11.060  66.912  1.00  0.00    -0.120 C  
HETATM    9  O   UNL     1      -6.102  10.926  65.908  1.00  0.00    -0.133 OA 
HETATM   10  N   UNL     1      -7.222  10.130  67.799  1.00  0.00    -0.086 N  
ENDROOT
BRANCH   6  11
HETATM   11  N   UNL     1      -8.528  12.949  66.675  1.00  0.00    -0.424 N  
HETATM   12  C   UNL     1      -8.929  14.229  66.992  1.00  0.00    -0.236 C  
HETATM   13  O   UNL     1      -8.426  14.861  67.920  1.00  0.00    -0.143 OA 
HETATM   14  H   UNL     1      -8.867  12.517  65.816  1.00  0.00     0.000 HD 
BRANCH  12  15
HETATM   15  C   UNL     1     -10.075  14.794  66.123  1.00  0.00    -0.296 C  
HETATM   16  H2  UNL     1     -10.454  16.389  67.426  1.00  0.00     0.000 HD 
HETATM   17  N   UNL     1     -10.969  15.651  66.948  1.00  0.00    -0.288 NA 
HETATM   18  H1  UNL     1     -11.725  16.024  66.374  1.00  0.00     0.000 HD 
BRANCH  15  19
HETATM   19  C   UNL     1     -10.847  13.725  65.370  1.00  0.00    -0.312 A  
HETATM   20  C   UNL     1     -11.275  13.902  64.044  1.00  0.00    -0.040 A  
HETATM   21  C   UNL     1     -11.097  12.489  65.991  1.00  0.00    -0.329 A  
HETATM   22  C   UNL     1     -11.692  11.443  65.282  1.00  0.00     0.258 A  
HETATM   23  C   UNL     1     -11.861  12.853  63.335  1.00  0.00    -0.576 A  
HETATM   24  C   UNL     1     -12.057  11.619  63.949  1.00  0.00    -0.298 A  
ENDBRANCH  15  19
ENDBRANCH  12  15
ENDBRANCH   6  11
BRANCH   7  25
HETATM   25  C   UNL     1      -7.658   7.916  68.642  1.00  0.00    -0.101 C  
HETATM   26  O   UNL     1      -8.627   7.635  69.342  1.00  0.00    -0.134 OA 
BRANCH  25  27
HETATM   27  O   UNL     1      -6.394   7.478  68.908  1.00  0.00    -0.037 OA 
BRANCH  27  28
HETATM   28  C   UNL     1      -6.010   7.560  70.284  1.00  0.00    -0.023 C  
BRANCH  28  29
HETATM   29  O   UNL     1      -5.812   6.262  70.835  1.00  0.00    -0.024 OA 
BRANCH  29  30
HETATM   30  C   UNL     1      -6.734   5.849  71.742  1.00  0.00    -0.059 C  
HETATM   31  O   UNL     1      -6.837   6.291  72.878  1.00  0.00    -0.075 OA 
BRANCH  30  32
HETATM   32  C   UNL     1      -7.660   4.764  71.149  1.00  0.00    -0.081 C  
HETATM   33  N   UNL     1      -9.026   4.973  71.656  1.00  0.00    -0.132 N  
HETATM   34  C   UNL     1      -9.379   4.373  72.971  1.00  0.00    -0.121 C  
HETATM   35  S   UNL     1      -8.035   3.189  73.203  1.00  0.00    -0.065 S  
HETATM   36  C   UNL     1     -10.698   3.923  72.339  1.00  0.00     0.010 C  
HETATM   37  O   UNL     1      -7.101   3.736  74.173  1.00  0.00    -0.050 OA 
HETATM   38  O   UNL     1      -8.570   1.853  73.373  1.00  0.00    -0.063 OA 
HETATM   39  C   UNL     1      -7.266   3.324  71.552  1.00  0.00    -0.036 C  
HETATM   40  C   UNL     1     -10.124   4.472  71.025  1.00  0.00    -0.152 C  
HETATM   41  C   UNL     1      -5.761   3.035  71.627  1.00  0.00    -0.009 C  
HETATM   42  C   UNL     1      -7.869   2.268  70.600  1.00  0.00    -0.046 C  
HETATM   43  O   UNL     1     -10.352   4.348  69.846  1.00  0.00    -0.048 OA 
ENDBRANCH  30  32
ENDBRANCH  29  30
ENDBRANCH  28  29
ENDBRANCH  27  28
ENDBRANCH  25  27
ENDBRANCH   7  25
TORSDOF 9
ENDMDL
MODEL      284
REMARK 921   NORMALIZED FREE ENERGY PREDICTED BY IDOCK:   -2.80 KCAL/MOL
REMARK 922        TOTAL FREE ENERGY PREDICTED BY IDOCK:   -4.77 KCAL/MOL
REMARK 923 INTER-LIGAND FREE ENERGY PREDICTED BY IDOCK:   -4.80 KCAL/MOL
REMARK 924 INTRA-LIGAND FREE ENERGY PREDICTED BY IDOCK:    0.03 KCAL/MOL
REMARK 927      BINDING AFFINITY PREDICTED BY RF-SCORE:    0.00 PKD
ROOT
HETATM    1  C   UNL     1     -12.174  15.696  65.503  1.00  0.00     0.907 C  
HETATM    2  C   UNL     1     -11.919  14.221  65.133  1.00  0.00    -0.395 C  
HETATM    3  S   UNL     1     -12.178  13.227  66.678  1.00  0.00    -0.219 SA 
HETATM    4  C   UNL     1     -12.975  13.860  64.080  1.00  0.00     0.557 C  
HETATM    5  C   UNL     1     -10.374  13.193  67.120  1.00  0.00    -0.247 C  
HETATM    6  C   UNL     1      -9.833  14.321  68.042  1.00  0.00    -0.224 C  
HETATM    7  C   UNL     1     -10.447  13.939  64.732  1.00  0.00    -0.429 C  
HETATM    8  C   UNL     1      -9.357  14.966  66.713  1.00  0.00    -0.250 C  
HETATM    9  O   UNL     1      -9.008  16.065  66.346  1.00  0.00    -0.258 OA 
HETATM   10  N   UNL     1      -9.696  13.859  65.992  1.00  0.00    -0.280 N  
ENDROOT
BRANCH   6  11
HETATM   11  N   UNL     1     -10.832  15.073  68.847  1.00  0.00    -0.234 N  
HETATM   12  C   UNL     1     -10.458  16.141  69.635  1.00  0.00    -0.291 C  
HETATM   13  O   UNL     1      -9.328  16.625  69.586  1.00  0.00     0.033 OA 
HETATM   14  H   UNL     1     -11.813  14.795  68.815  1.00  0.00     0.000 HD 
BRANCH  12  15
HETATM   15  C   UNL     1     -11.545  16.656  70.605  1.00  0.00     0.300 C  
HETATM   16  H2  UNL     1     -10.430  18.336  71.170  1.00  0.00     0.000 HD 
HETATM   17  N   UNL     1     -10.942  17.573  71.610  1.00  0.00     1.012 NA 
HETATM   18  H1  UNL     1     -11.660  17.913  72.249  1.00  0.00     0.000 HD 
BRANCH  15  19
HETATM   19  C   UNL     1     -12.349  15.546  71.257  1.00  0.00    -0.468 A  
HETATM   20  C   UNL     1     -13.274  14.768  70.539  1.00  0.00    -0.204 A  
HETATM   21  C   UNL     1     -12.130  15.238  72.610  1.00  0.00    -0.522 A  
HETATM   22  C   UNL     1     -12.761  14.141  73.204  1.00  0.00    -0.227 A  
HETATM   23  C   UNL     1     -13.896  13.668  71.131  1.00  0.00     0.178 A  
HETATM   24  C   UNL     1     -13.629  13.346  72.458  1.00  0.00    -0.659 A  
ENDBRANCH  15  19
ENDBRANCH  12  15
ENDBRANCH   6  11
BRANCH   7  25
HETATM   25  C   UNL     1     -10.210  12.595  64.006  1.00  0.00    -0.338 C  
HETATM   26  O   UNL     1      -9.490  12.432  63.025  1.00  0.00     0.010 OA 
BRANCH  25  27
HETATM   27  O   UNL     1     -10.920  11.584  64.586  1.00  0.00    -0.317 OA 
BRANCH  27  28
HETATM   28  C   UNL     1     -10.209  10.348  64.709  1.00  0.00    -0.249 C  
BRANCH  28  29
HETATM   29  O   UNL     1      -9.454  10.315  65.916  1.00  0.00    -0.170 OA 
BRANCH  29  30
HETATM   30  C   UNL     1      -8.731   9.188  66.140  1.00  0.00    -0.148 C  
HETATM   31  O   UNL     1      -8.571   8.292  65.322  1.00  0.00    -0.171 OA 
BRANCH  30  32
HETATM   32  C   UNL     1      -8.108   9.189  67.553  1.00  0.00    -0.104 C  
HETATM   33  N   UNL     1      -7.180   8.052  67.667  1.00  0.00    -0.089 N  
HETATM   34  C   UNL     1      -7.744   6.731  68.057  1.00  0.00    -0.112 C  
HETATM   35  S   UNL     1      -9.363   7.203  68.701  1.00  0.00    -0.132 S  
HETATM   36  C   UNL     1      -6.555   6.577  69.008  1.00  0.00    -0.047 C  
HETATM   37  O   UNL     1     -10.369   6.871  67.706  1.00  0.00    -0.171 OA 
HETATM   38  O   UNL     1      -9.509   6.749  70.069  1.00  0.00    -0.158 OA 
HETATM   39  C   UNL     1      -9.145   9.015  68.688  1.00  0.00    -0.137 C  
HETATM   40  C   UNL     1      -6.187   8.011  68.599  1.00  0.00    -0.044 C  
HETATM   41  C   UNL     1     -10.490   9.726  68.484  1.00  0.00    -0.239 C  
HETATM   42  C   UNL     1      -8.599   9.492  70.051  1.00  0.00    -0.234 C  
HETATM   43  O   UNL     1      -5.491   8.898  69.030  1.00  0.00    -0.036 OA 
ENDBRANCH  30  32
ENDBRANCH  29  30
ENDBRANCH  28  29
ENDBRANCH  27  28
ENDBRANCH  25  27
ENDBRANCH   7  25
TORSDOF 9
ENDMDL
MODEL      285
REMARK 921   NORMALIZED FREE ENERGY PREDICTED BY IDOCK:   -2.77 KCAL/MOL
REMARK 922        TOTAL FREE ENERGY PREDICTED BY IDOCK:   -4.74 KCAL/MOL
REMARK 923 INTER-LIGAND FREE ENERGY PREDICTED BY IDOCK:   -5.02 KCAL/MOL
REMARK 924 INTRA-LIGAND FREE ENERGY PREDICTED BY IDOCK:    0.28 KCAL/MOL
REMARK 927      BINDING AFFINITY PREDICTED BY RF-SCORE:    0.00 PKD
ROOT
HETATM    1  C   UNL     1     -11.969  10.857  66.956  1.00  0.00     1.198 C  
HETATM    2  C   UNL     1     -11.131  11.778  66.044  1.00  0.00    -0.312 C  
HETATM    3  S   UNL     1      -9.666  10.788  65.484  1.00  0.00    -0.258 SA 
HETATM    4  C   UNL     1     -12.032  12.126  64.853  1.00  0.00    -0.356 C  
HETATM    5  C   UNL     1      -8.542  11.452  66.806  1.00  0.00    -0.166 C  
HETATM    6  C   UNL     1      -8.451  10.663  68.143  1.00  0.00    -0.122 C  
HETATM    7  C   UNL     1     -10.518  12.988  66.799  1.00  0.00    -0.259 C  
HETATM    8  C   UNL     1      -9.460  11.723  68.657  1.00  0.00    -0.100 C  
HETATM    9  O   UNL     1     -10.230  11.825  69.585  1.00  0.00     0.331 OA 
HETATM   10  N   UNL     1      -9.348  12.462  67.515  1.00  0.00    -0.176 N  
ENDROOT
BRANCH   6  11
HETATM   11  N   UNL     1      -8.901   9.245  68.122  1.00  0.00    -0.129 N  
HETATM   12  C   UNL     1      -8.023   8.212  68.370  1.00  0.00    -0.123 C  
HETATM   13  O   UNL     1      -6.880   8.411  68.781  1.00  0.00    -0.060 OA 
HETATM   14  H   UNL     1      -9.879   9.033  67.920  1.00  0.00     0.000 HD 
BRANCH  12  15
HETATM   15  C   UNL     1      -8.564   6.798  68.062  1.00  0.00    -0.122 C  
HETATM   16  H2  UNL     1      -9.590   6.651  69.882  1.00  0.00     0.000 HD 
HETATM   17  N   UNL     1      -8.934   6.105  69.326  1.00  0.00    -0.124 NA 
HETATM   18  H1  UNL     1      -9.291   5.172  69.122  1.00  0.00     0.000 HD 
BRANCH  15  19
HETATM   19  C   UNL     1      -7.626   5.964  67.209  1.00  0.00    -0.096 A  
HETATM   20  C   UNL     1      -6.343   5.594  67.646  1.00  0.00    -0.042 A  
HETATM   21  C   UNL     1      -8.065   5.492  65.960  1.00  0.00    -0.108 A  
HETATM   22  C   UNL     1      -7.273   4.620  65.208  1.00  0.00    -0.068 A  
HETATM   23  C   UNL     1      -5.557   4.716  66.899  1.00  0.00    -0.014 A  
HETATM   24  C   UNL     1      -6.028   4.217  65.687  1.00  0.00    -0.023 A  
ENDBRANCH  15  19
ENDBRANCH  12  15
ENDBRANCH   6  11
BRANCH   7  25
HETATM   25  C   UNL     1      -9.991  14.125  65.895  1.00  0.00    -0.311 C  
HETATM   26  O   UNL     1      -9.737  14.024  64.699  1.00  0.00    -0.016 OA 
BRANCH  25  27
HETATM   27  O   UNL     1      -9.822  15.282  66.598  1.00  0.00    -0.234 OA 
BRANCH  27  28
HETATM   28  C   UNL     1      -8.505  15.475  67.124  1.00  0.00    -0.212 C  
BRANCH  28  29
HETATM   29  O   UNL     1      -7.614  15.927  66.110  1.00  0.00     0.144 OA 
BRANCH  29  30
HETATM   30  C   UNL     1      -7.340  17.257  66.103  1.00  0.00    -0.281 C  
HETATM   31  O   UNL     1      -6.817  17.854  65.171  1.00  0.00    -0.231 OA 
BRANCH  30  32
HETATM   32  C   UNL     1      -7.797  17.934  67.414  1.00  0.00    -0.208 C  
HETATM   33  N   UNL     1      -8.788  18.974  67.095  1.00  0.00    -0.283 N  
HETATM   34  C   UNL     1      -8.284  20.324  66.725  1.00  0.00    -0.264 C  
HETATM   35  S   UNL     1      -6.572  20.240  67.290  1.00  0.00    -0.234 S  
HETATM   36  C   UNL     1      -9.366  20.907  67.637  1.00  0.00    -0.234 C  
HETATM   37  O   UNL     1      -5.712  20.060  66.133  1.00  0.00    -0.164 OA 
HETATM   38  O   UNL     1      -6.307  21.301  68.241  1.00  0.00    -0.233 OA 
HETATM   39  C   UNL     1      -6.655  18.646  68.176  1.00  0.00    -0.222 C  
HETATM   40  C   UNL     1      -9.670  19.450  68.017  1.00  0.00    -0.356 C  
HETATM   41  C   UNL     1      -5.292  17.940  68.157  1.00  0.00    -0.151 C  
HETATM   42  C   UNL     1      -7.006  18.883  69.661  1.00  0.00    -0.041 C  
HETATM   43  O   UNL     1     -10.245  18.876  68.909  1.00  0.00    -0.360 OA 
ENDBRANCH  30  32
ENDBRANCH  29  30
ENDBRANCH  28  29
ENDBRANCH  27  28
ENDBRANCH  25  27
ENDBRANCH   7  25
TORSDOF 9
ENDMDL
MODEL      286
REMARK 921   NORMALIZED FREE ENERGY PREDICTED BY IDOCK:   -2.64 KCAL/MOL
REMARK 922        TOTAL FREE ENERGY PREDICTED BY IDOCK:   -4.54 KCAL/MOL
REMARK 923 INTER-LIGAND FREE ENERGY PREDICTED BY IDOCK:   -6.47 KCAL/MOL
REMARK 924 INTRA-LIGAND FREE ENERGY PREDICTED BY IDOCK:    1.93 KCAL/MOL
REMARK 927      BINDING AFFINITY PREDICTED BY RF-SCORE:    0.00 PKD
ROOT
HETATM    1  C   UNL     1     -10.597  17.112  70.018  1.00  0.00     0.304 C  
HETATM    2  C   UNL     1     -10.741  15.589  70.221  1.00  0.00    -0.333 C  
HETATM    3  S   UNL     1      -9.043  14.863  70.045  1.00  0.00     0.736 SA 
HETATM    4  C   UNL     1     -11.259  15.400  71.652  1.00  0.00    -0.386 C  
HETATM    5  C   UNL     1      -9.271  14.419  68.256  1.00  0.00    -0.201 C  
HETATM    6  C   UNL     1      -8.838  15.464  67.189  1.00  0.00    -0.213 C  
HETATM    7  C   UNL     1     -11.575  14.903  69.107  1.00  0.00    -0.307 C  
HETATM    8  C   UNL     1     -10.348  15.823  67.153  1.00  0.00    -0.291 C  
HETATM    9  O   UNL     1     -11.020  16.752  66.769  1.00  0.00    -0.088 OA 
HETATM   10  N   UNL     1     -10.672  14.768  67.956  1.00  0.00    -0.244 N  
ENDROOT
BRANCH   6  11
HETATM   11  N   UNL     1      -7.894  16.525  67.628  1.00  0.00    -0.155 N  
HETATM   12  C   UNL     1      -6.532  16.310  67.642  1.00  0.00    -0.158 C  
HETATM   13  O   UNL     1      -6.024  15.307  67.141  1.00  0.00    -0.290 OA 
HETATM   14  H   UNL     1      -8.260  17.430  67.925  1.00  0.00     0.000 HD 
BRANCH  12  15
HETATM   15  C   UNL     1      -5.701  17.397  68.359  1.00  0.00    -0.154 C  
HETATM   16  H2  UNL     1      -5.793  16.429  70.214  1.00  0.00     0.000 HD 
HETATM   17  N   UNL     1      -5.959  17.356  69.824  1.00  0.00    -0.245 NA 
HETATM   18  H1  UNL     1      -5.410  18.074  70.297  1.00  0.00     0.000 HD 
BRANCH  15  19
HETATM   19  C   UNL     1      -5.900  18.788  67.784  1.00  0.00    -0.192 A  
HETATM   20  C   UNL     1      -5.191  19.245  66.660  1.00  0.00    -0.165 A  
HETATM   21  C   UNL     1      -6.866  19.638  68.352  1.00  0.00    -0.329 A  
HETATM   22  C   UNL     1      -7.160  20.873  67.769  1.00  0.00    -0.279 A  
HETATM   23  C   UNL     1      -5.493  20.474  66.074  1.00  0.00    -0.214 A  
HETATM   24  C   UNL     1      -6.488  21.281  66.619  1.00  0.00    -0.317 A  
ENDBRANCH  15  19
ENDBRANCH  12  15
ENDBRANCH   6  11
BRANCH   7  25
HETATM   25  C   UNL     1     -12.061  13.474  69.439  1.00  0.00    -0.289 C  
HETATM   26  O   UNL     1     -12.072  12.967  70.557  1.00  0.00    -0.356 OA 
BRANCH  25  27
HETATM   27  O   UNL     1     -12.477  12.816  68.318  1.00  0.00     0.081 OA 
BRANCH  27  28
HETATM   28  C   UNL     1     -11.468  12.642  67.319  1.00  0.00    -0.342 C  
BRANCH  28  29
HETATM   29  O   UNL     1     -11.136  11.265  67.167  1.00  0.00    -0.279 OA 
BRANCH  29  30
HETATM   30  C   UNL     1     -11.021  10.546  68.313  1.00  0.00    -0.263 C  
HETATM   31  O   UNL     1     -11.964  10.186  69.004  1.00  0.00     0.035 OA 
BRANCH  30  32
HETATM   32  C   UNL     1      -9.545  10.214  68.624  1.00  0.00    -0.163 C  
HETATM   33  N   UNL     1      -8.692  10.796  67.574  1.00  0.00    -0.125 N  
HETATM   34  C   UNL     1      -8.477  10.002  66.334  1.00  0.00    -0.129 C  
HETATM   35  S   UNL     1      -9.022   8.361  66.854  1.00  0.00    -0.151 S  
HETATM   36  C   UNL     1      -6.997  10.384  66.425  1.00  0.00    -0.114 C  
HETATM   37  O   UNL     1     -10.336   8.111  66.286  1.00  0.00    -0.110 OA 
HETATM   38  O   UNL     1      -7.952   7.399  66.677  1.00  0.00    -0.115 OA 
HETATM   39  C   UNL     1      -9.239   8.698  68.635  1.00  0.00    -0.138 C  
HETATM   40  C   UNL     1      -7.366  11.041  67.763  1.00  0.00    -0.093 C  
HETATM   41  C   UNL     1     -10.330   7.797  69.231  1.00  0.00    -0.220 C  
HETATM   42  C   UNL     1      -7.937   8.373  69.398  1.00  0.00    -0.112 C  
HETATM   43  O   UNL     1      -6.781  11.422  68.747  1.00  0.00    -0.061 OA 
ENDBRANCH  30  32
ENDBRANCH  29  30
ENDBRANCH  28  29
ENDBRANCH  27  28
ENDBRANCH  25  27
ENDBRANCH   7  25
TORSDOF 9
ENDMDL
MODEL      287
REMARK 921   NORMALIZED FREE ENERGY PREDICTED BY IDOCK:   -2.63 KCAL/MOL
REMARK 922        TOTAL FREE ENERGY PREDICTED BY IDOCK:   -4.52 KCAL/MOL
REMARK 923 INTER-LIGAND FREE ENERGY PREDICTED BY IDOCK:   -5.37 KCAL/MOL
REMARK 924 INTRA-LIGAND FREE ENERGY PREDICTED BY IDOCK:    0.85 KCAL/MOL
REMARK 927      BINDING AFFINITY PREDICTED BY RF-SCORE:    0.00 PKD
ROOT
HETATM    1  C   UNL     1      -9.262  12.092  68.433  1.00  0.00    -0.154 C  
HETATM    2  C   UNL     1      -8.155  11.317  67.689  1.00  0.00    -0.119 C  
HETATM    3  S   UNL     1      -8.457  11.560  65.875  1.00  0.00     0.157 SA 
HETATM    4  C   UNL     1      -6.830  11.969  68.105  1.00  0.00    -0.069 C  
HETATM    5  C   UNL     1      -9.390   9.967  65.679  1.00  0.00    -0.214 C  
HETATM    6  C   UNL     1     -10.935  10.007  65.851  1.00  0.00     0.601 C  
HETATM    7  C   UNL     1      -8.242   9.782  67.895  1.00  0.00    -0.113 C  
HETATM    8  C   UNL     1     -10.633   9.497  67.285  1.00  0.00    -0.248 C  
HETATM    9  O   UNL     1     -11.223   9.443  68.340  1.00  0.00    -0.006 OA 
HETATM   10  N   UNL     1      -9.311   9.317  67.000  1.00  0.00    -0.140 N  
ENDROOT
BRANCH   6  11
HETATM   11  N   UNL     1     -11.595  11.334  65.722  1.00  0.00     0.216 N  
HETATM   12  C   UNL     1     -11.258  12.204  64.707  1.00  0.00    -0.323 C  
HETATM   13  O   UNL     1     -10.531  11.869  63.774  1.00  0.00    -0.340 OA 
HETATM   14  H   UNL     1     -12.310  11.605  66.397  1.00  0.00     0.000 HD 
BRANCH  12  15
HETATM   15  C   UNL     1     -11.830  13.633  64.849  1.00  0.00    -0.375 C  
HETATM   16  H2  UNL     1     -12.467  13.717  62.856  1.00  0.00     0.000 HD 
HETATM   17  N   UNL     1     -11.928  14.280  63.513  1.00  0.00    -0.768 NA 
HETATM   18  H1  UNL     1     -12.305  15.222  63.606  1.00  0.00     0.000 HD 
BRANCH  15  19
HETATM   19  C   UNL     1     -11.070  14.492  65.843  1.00  0.00    -0.327 A  
HETATM   20  C   UNL     1     -11.315  14.435  67.225  1.00  0.00    -0.357 A  
HETATM   21  C   UNL     1     -10.044  15.335  65.383  1.00  0.00    -0.397 A  
HETATM   22  C   UNL     1      -9.243  16.042  66.285  1.00  0.00    -0.368 A  
HETATM   23  C   UNL     1     -10.509  15.135  68.125  1.00  0.00    -0.245 A  
HETATM   24  C   UNL     1      -9.464  15.926  67.656  1.00  0.00    -0.219 A  
ENDBRANCH  15  19
ENDBRANCH  12  15
ENDBRANCH   6  11
BRANCH   7  25
HETATM   25  C   UNL     1      -6.975   8.993  67.494  1.00  0.00    -0.078 C  
HETATM   26  O   UNL     1      -6.482   8.962  66.370  1.00  0.00    -0.064 OA 
BRANCH  25  27
HETATM   27  O   UNL     1      -6.460   8.305  68.553  1.00  0.00    -0.052 OA 
BRANCH  27  28
HETATM   28  C   UNL     1      -6.747   6.903  68.552  1.00  0.00    -0.064 C  
BRANCH  28  29
HETATM   29  O   UNL     1      -7.952   6.631  69.262  1.00  0.00    -0.108 OA 
BRANCH  29  30
HETATM   30  C   UNL     1      -7.871   6.670  70.617  1.00  0.00    -0.106 C  
HETATM   31  O   UNL     1      -7.516   7.647  71.262  1.00  0.00    -0.075 OA 
BRANCH  30  32
HETATM   32  C   UNL     1      -8.313   5.331  71.247  1.00  0.00    -0.123 C  
HETATM   33  N   UNL     1      -9.008   5.606  72.515  1.00  0.00    -0.133 N  
HETATM   34  C   UNL     1      -8.180   5.763  73.741  1.00  0.00    -0.110 C  
HETATM   35  S   UNL     1      -6.602   5.065  73.207  1.00  0.00    -0.068 S  
HETATM   36  C   UNL     1      -9.202   4.884  74.465  1.00  0.00    -0.120 C  
HETATM   37  O   UNL     1      -5.679   6.157  72.949  1.00  0.00    -0.036 OA 
HETATM   38  O   UNL     1      -6.218   3.972  74.078  1.00  0.00    -0.029 OA 
HETATM   39  C   UNL     1      -7.134   4.392  71.596  1.00  0.00    -0.046 C  
HETATM   40  C   UNL     1      -9.860   4.712  73.089  1.00  0.00    -0.143 C  
HETATM   41  C   UNL     1      -5.967   4.378  70.599  1.00  0.00    -0.014 C  
HETATM   42  C   UNL     1      -7.589   2.925  71.759  1.00  0.00    -0.048 C  
HETATM   43  O   UNL     1     -10.644   3.950  72.577  1.00  0.00    -0.147 OA 
ENDBRANCH  30  32
ENDBRANCH  29  30
ENDBRANCH  28  29
ENDBRANCH  27  28
ENDBRANCH  25  27
ENDBRANCH   7  25
TORSDOF 9
ENDMDL
MODEL      288
REMARK 921   NORMALIZED FREE ENERGY PREDICTED BY IDOCK:   -2.62 KCAL/MOL
REMARK 922        TOTAL FREE ENERGY PREDICTED BY IDOCK:   -4.50 KCAL/MOL
REMARK 923 INTER-LIGAND FREE ENERGY PREDICTED BY IDOCK:   -6.43 KCAL/MOL
REMARK 924 INTRA-LIGAND FREE ENERGY PREDICTED BY IDOCK:    1.93 KCAL/MOL
REMARK 927      BINDING AFFINITY PREDICTED BY RF-SCORE:    0.00 PKD
ROOT
HETATM    1  C   UNL     1     -13.125  12.891  66.580  1.00  0.00     2.342 C  
HETATM    2  C   UNL     1     -11.859  13.427  65.882  1.00  0.00    -0.376 C  
HETATM    3  S   UNL     1     -10.478  12.264  66.307  1.00  0.00    -0.245 SA 
HETATM    4  C   UNL     1     -12.154  13.383  64.378  1.00  0.00    -0.468 C  
HETATM    5  C   UNL     1      -9.862  13.297  67.722  1.00  0.00    -0.224 C  
HETATM    6  C   UNL     1     -10.430  12.999  69.138  1.00  0.00     0.111 C  
HETATM    7  C   UNL     1     -11.394  14.801  66.435  1.00  0.00    -0.339 C  
HETATM    8  C   UNL     1     -11.368  14.200  68.845  1.00  0.00    -0.277 C  
HETATM    9  O   UNL     1     -12.409  14.630  69.288  1.00  0.00    -0.238 OA 
HETATM   10  N   UNL     1     -10.700  14.511  67.697  1.00  0.00    -0.252 N  
ENDROOT
BRANCH   6  11
HETATM   11  N   UNL     1     -11.067  11.671  69.344  1.00  0.00    -0.382 N  
HETATM   12  C   UNL     1     -10.313  10.517  69.397  1.00  0.00    -0.234 C  
HETATM   13  O   UNL     1      -9.084  10.542  69.445  1.00  0.00    -0.181 OA 
HETATM   14  H   UNL     1     -12.080  11.611  69.449  1.00  0.00     0.000 HD 
BRANCH  12  15
HETATM   15  C   UNL     1     -11.120   9.201  69.355  1.00  0.00    -0.008 C  
HETATM   16  H2  UNL     1     -12.943  10.152  69.753  1.00  0.00     0.000 HD 
HETATM   17  N   UNL     1     -12.400   9.360  70.097  1.00  0.00    -0.296 NA 
HETATM   18  H1  UNL     1     -12.933   8.491  70.069  1.00  0.00     0.000 HD 
BRANCH  15  19
HETATM   19  C   UNL     1     -10.333   7.993  69.833  1.00  0.00    -0.221 A  
HETATM   20  C   UNL     1      -9.324   8.093  70.806  1.00  0.00    -0.174 A  
HETATM   21  C   UNL     1     -10.653   6.719  69.334  1.00  0.00    -0.265 A  
HETATM   22  C   UNL     1     -10.033   5.576  69.847  1.00  0.00    -0.282 A  
HETATM   23  C   UNL     1      -8.712   6.950  71.322  1.00  0.00    -0.134 A  
HETATM   24  C   UNL     1      -9.077   5.691  70.853  1.00  0.00    -0.160 A  
ENDBRANCH  15  19
ENDBRANCH  12  15
ENDBRANCH   6  11
BRANCH   7  25
HETATM   25  C   UNL     1     -10.375  15.554  65.550  1.00  0.00    -0.394 C  
HETATM   26  O   UNL     1     -10.550  16.661  65.048  1.00  0.00    -0.683 OA 
BRANCH  25  27
HETATM   27  O   UNL     1      -9.235  14.827  65.372  1.00  0.00     0.141 OA 
BRANCH  27  28
HETATM   28  C   UNL     1      -8.224  15.050  66.359  1.00  0.00     0.317 C  
BRANCH  28  29
HETATM   29  O   UNL     1      -8.094  16.438  66.648  1.00  0.00    -0.225 OA 
BRANCH  29  30
HETATM   30  C   UNL     1      -7.505  16.752  67.830  1.00  0.00    -0.160 C  
HETATM   31  O   UNL     1      -6.670  16.058  68.395  1.00  0.00    -0.115 OA 
BRANCH  30  32
HETATM   32  C   UNL     1      -8.002  18.113  68.364  1.00  0.00    -0.302 C  
HETATM   33  N   UNL     1      -8.976  18.673  67.413  1.00  0.00    -0.271 N  
HETATM   34  C   UNL     1      -8.452  19.459  66.263  1.00  0.00    -0.334 C  
HETATM   35  S   UNL     1      -6.759  19.796  66.794  1.00  0.00    -0.199 S  
HETATM   36  C   UNL     1      -9.560  20.478  66.539  1.00  0.00    -0.338 C  
HETATM   37  O   UNL     1      -5.863  18.916  66.063  1.00  0.00    -0.149 OA 
HETATM   38  O   UNL     1      -6.520  21.225  66.824  1.00  0.00    -0.344 OA 
HETATM   39  C   UNL     1      -6.881  19.170  68.505  1.00  0.00    -0.277 C  
HETATM   40  C   UNL     1      -9.884  19.622  67.771  1.00  0.00    -0.383 C  
HETATM   41  C   UNL     1      -5.522  18.648  68.992  1.00  0.00    -0.203 C  
HETATM   42  C   UNL     1      -7.279  20.316  69.460  1.00  0.00     0.137 C  
HETATM   43  O   UNL     1     -10.492  19.762  68.805  1.00  0.00    -0.346 OA 
ENDBRANCH  30  32
ENDBRANCH  29  30
ENDBRANCH  28  29
ENDBRANCH  27  28
ENDBRANCH  25  27
ENDBRANCH   7  25
TORSDOF 9
ENDMDL
MODEL      289
REMARK 921   NORMALIZED FREE ENERGY PREDICTED BY IDOCK:   -2.47 KCAL/MOL
REMARK 922        TOTAL FREE ENERGY PREDICTED BY IDOCK:   -4.28 KCAL/MOL
REMARK 923 INTER-LIGAND FREE ENERGY PREDICTED BY IDOCK:   -4.87 KCAL/MOL
REMARK 924 INTRA-LIGAND FREE ENERGY PREDICTED BY IDOCK:    0.59 KCAL/MOL
REMARK 927      BINDING AFFINITY PREDICTED BY RF-SCORE:    0.00 PKD
ROOT
HETATM    1  C   UNL     1      -5.502  13.855  67.359  1.00  0.00     0.322 C  
HETATM    2  C   UNL     1      -5.958  12.780  68.368  1.00  0.00    -0.068 C  
HETATM    3  S   UNL     1      -7.803  12.652  68.218  1.00  0.00    -0.145 SA 
HETATM    4  C   UNL     1      -5.291  11.473  67.923  1.00  0.00    -0.046 C  
HETATM    5  C   UNL     1      -8.133  13.802  69.638  1.00  0.00     0.965 C  
HETATM    6  C   UNL     1      -8.301  15.315  69.321  1.00  0.00    -0.243 C  
HETATM    7  C   UNL     1      -5.715  13.189  69.845  1.00  0.00    -0.121 C  
HETATM    8  C   UNL     1      -6.817  15.414  69.762  1.00  0.00    -0.162 C  
HETATM    9  O   UNL     1      -5.913  16.208  69.631  1.00  0.00    -0.150 OA 
HETATM   10  N   UNL     1      -6.801  14.118  70.187  1.00  0.00     0.038 N  
ENDROOT
BRANCH   6  11
HETATM   11  N   UNL     1      -8.622  15.679  67.914  1.00  0.00    -0.160 N  
HETATM   12  C   UNL     1      -9.573  16.632  67.621  1.00  0.00    -0.239 C  
HETATM   13  O   UNL     1     -10.078  17.341  68.491  1.00  0.00    -0.298 OA 
HETATM   14  H   UNL     1      -8.128  15.214  67.152  1.00  0.00     0.000 HD 
BRANCH  12  15
HETATM   15  C   UNL     1      -9.982  16.719  66.134  1.00  0.00    -0.327 C  
HETATM   16  H2  UNL     1      -9.726  18.796  66.049  1.00  0.00     0.000 HD 
HETATM   17  N   UNL     1     -10.429  18.100  65.805  1.00  0.00    -0.613 NA 
HETATM   18  H1  UNL     1     -10.699  18.157  64.824  1.00  0.00     0.000 HD 
BRANCH  15  19
HETATM   19  C   UNL     1     -11.008  15.677  65.727  1.00  0.00    -0.250 A  
HETATM   20  C   UNL     1     -11.535  15.610  64.426  1.00  0.00    -0.266 A  
HETATM   21  C   UNL     1     -11.410  14.704  66.658  1.00  0.00    -0.358 A  
HETATM   22  C   UNL     1     -12.255  13.658  66.278  1.00  0.00    -0.484 A  
HETATM   23  C   UNL     1     -12.371  14.559  64.045  1.00  0.00    -0.207 A  
HETATM   24  C   UNL     1     -12.719  13.576  64.967  1.00  0.00    -0.399 A  
ENDBRANCH  15  19
ENDBRANCH  12  15
ENDBRANCH   6  11
BRANCH   7  25
HETATM   25  C   UNL     1      -5.801  12.034  70.868  1.00  0.00     0.100 C  
HETATM   26  O   UNL     1      -5.127  11.937  71.889  1.00  0.00    -0.320 OA 
BRANCH  25  27
HETATM   27  O   UNL     1      -6.726  11.104  70.493  1.00  0.00    -0.211 OA 
BRANCH  27  28
HETATM   28  C   UNL     1      -6.310   9.745  70.664  1.00  0.00    -0.105 C  
BRANCH  28  29
HETATM   29  O   UNL     1      -7.275   8.847  70.125  1.00  0.00    -0.049 OA 
BRANCH  29  30
HETATM   30  C   UNL     1      -6.789   7.825  69.375  1.00  0.00    -0.044 C  
HETATM   31  O   UNL     1      -5.614   7.692  69.061  1.00  0.00    -0.021 OA 
BRANCH  30  32
HETATM   32  C   UNL     1      -7.905   6.829  68.990  1.00  0.00    -0.111 C  
HETATM   33  N   UNL     1      -7.545   5.492  69.489  1.00  0.00    -0.070 N  
HETATM   34  C   UNL     1      -6.670   4.643  68.636  1.00  0.00    -0.050 C  
HETATM   35  S   UNL     1      -6.785   5.487  67.044  1.00  0.00    -0.063 S  
HETATM   36  C   UNL     1      -7.604   3.473  68.954  1.00  0.00    -0.052 C  
HETATM   37  O   UNL     1      -5.560   6.238  66.830  1.00  0.00    -0.012 OA 
HETATM   38  O   UNL     1      -7.272   4.575  66.028  1.00  0.00    -0.073 OA 
HETATM   39  C   UNL     1      -8.103   6.680  67.463  1.00  0.00    -0.118 C  
HETATM   40  C   UNL     1      -8.471   4.511  69.682  1.00  0.00    -0.069 C  
HETATM   41  C   UNL     1      -7.957   7.966  66.638  1.00  0.00    -0.103 C  
HETATM   42  C   UNL     1      -9.485   6.087  67.112  1.00  0.00    -0.125 C  
HETATM   43  O   UNL     1      -9.609   4.586  70.076  1.00  0.00    -0.158 OA 
ENDBRANCH  30  32
ENDBRANCH  29  30
ENDBRANCH  28  29
ENDBRANCH  27  28
ENDBRANCH  25  27
ENDBRANCH   7  25
TORSDOF 9
ENDMDL
MODEL      290
REMARK 921   NORMALIZED FREE ENERGY PREDICTED BY IDOCK:   -2.44 KCAL/MOL
REMARK 922        TOTAL FREE ENERGY PREDICTED BY IDOCK:   -4.24 KCAL/MOL
REMARK 923 INTER-LIGAND FREE ENERGY PREDICTED BY IDOCK:   -4.79 KCAL/MOL
REMARK 924 INTRA-LIGAND FREE ENERGY PREDICTED BY IDOCK:    0.56 KCAL/MOL
REMARK 927      BINDING AFFINITY PREDICTED BY RF-SCORE:    0.00 PKD
ROOT
HETATM    1  C   UNL     1      -6.872   8.035  65.042  1.00  0.00    -0.055 C  
HETATM    2  C   UNL     1      -7.721   6.788  65.363  1.00  0.00    -0.100 C  
HETATM    3  S   UNL     1      -9.283   7.392  66.163  1.00  0.00    -0.041 SA 
HETATM    4  C   UNL     1      -8.030   6.128  64.014  1.00  0.00    -0.110 C  
HETATM    5  C   UNL     1      -8.657   7.134  67.892  1.00  0.00    -0.123 C  
HETATM    6  C   UNL     1      -7.943   8.326  68.590  1.00  0.00    -0.122 C  
HETATM    7  C   UNL     1      -7.071   5.866  66.428  1.00  0.00    -0.068 C  
HETATM    8  C   UNL     1      -6.642   7.600  68.155  1.00  0.00    -0.054 C  
HETATM    9  O   UNL     1      -5.475   7.892  68.024  1.00  0.00    -0.031 OA 
HETATM   10  N   UNL     1      -7.333   6.505  67.725  1.00  0.00    -0.093 N  
ENDROOT
BRANCH   6  11
HETATM   11  N   UNL     1      -8.188   9.682  68.029  1.00  0.00    -0.109 N  
HETATM   12  C   UNL     1      -9.326  10.392  68.349  1.00  0.00    -0.150 C  
HETATM   13  O   UNL     1     -10.102  10.022  69.229  1.00  0.00    -0.188 OA 
HETATM   14  H   UNL     1      -7.502  10.094  67.397  1.00  0.00     0.000 HD 
BRANCH  12  15
HETATM   15  C   UNL     1      -9.570  11.660  67.500  1.00  0.00    -0.171 C  
HETATM   16  H2  UNL     1     -10.056  12.839  69.161  1.00  0.00     0.000 HD 
HETATM   17  N   UNL     1     -10.436  12.615  68.242  1.00  0.00    -0.233 NA 
HETATM   18  H1  UNL     1     -10.598  13.451  67.682  1.00  0.00     0.000 HD 
BRANCH  15  19
HETATM   19  C   UNL     1     -10.110  11.363  66.112  1.00  0.00    -0.271 A  
HETATM   20  C   UNL     1     -11.459  11.563  65.773  1.00  0.00    -0.076 A  
HETATM   21  C   UNL     1      -9.229  10.928  65.107  1.00  0.00    -0.240 A  
HETATM   22  C   UNL     1      -9.671  10.768  63.791  1.00  0.00    -0.372 A  
HETATM   23  C   UNL     1     -11.896  11.412  64.456  1.00  0.00     0.131 A  
HETATM   24  C   UNL     1     -10.999  11.028  63.463  1.00  0.00    -0.027 A  
ENDBRANCH  15  19
ENDBRANCH  12  15
ENDBRANCH   6  11
BRANCH   7  25
HETATM   25  C   UNL     1      -7.671   4.445  66.522  1.00  0.00    -0.094 C  
HETATM   26  O   UNL     1      -7.368   3.496  65.805  1.00  0.00    -0.073 OA 
BRANCH  25  27
HETATM   27  O   UNL     1      -8.611   4.365  67.508  1.00  0.00    -0.103 OA 
BRANCH  27  28
HETATM   28  C   UNL     1      -8.104   3.969  68.786  1.00  0.00    -0.071 C  
BRANCH  28  29
HETATM   29  O   UNL     1      -9.169   3.713  69.697  1.00  0.00    -0.119 OA 
BRANCH  29  30
HETATM   30  C   UNL     1      -9.780   4.804  70.225  1.00  0.00    -0.225 C  
HETATM   31  O   UNL     1     -10.765   5.348  69.746  1.00  0.00    -0.315 OA 
BRANCH  30  32
HETATM   32  C   UNL     1      -9.091   5.260  71.530  1.00  0.00    -0.145 C  
HETATM   33  N   UNL     1      -7.831   4.516  71.691  1.00  0.00    -0.089 N  
HETATM   34  C   UNL     1      -7.891   3.178  72.341  1.00  0.00    -0.059 C  
HETATM   35  S   UNL     1      -9.523   3.222  73.112  1.00  0.00    -0.099 S  
HETATM   36  C   UNL     1      -6.652   3.584  73.142  1.00  0.00    -0.029 C  
HETATM   37  O   UNL     1     -10.431   2.414  72.316  1.00  0.00    -0.131 OA 
HETATM   38  O   UNL     1      -9.408   3.003  74.540  1.00  0.00    -0.084 OA 
HETATM   39  C   UNL     1      -9.923   4.976  72.803  1.00  0.00    -0.163 C  
HETATM   40  C   UNL     1      -6.815   4.960  72.482  1.00  0.00    -0.069 C  
HETATM   41  C   UNL     1     -11.439   5.175  72.672  1.00  0.00    -0.221 C  
HETATM   42  C   UNL     1      -9.469   5.841  73.999  1.00  0.00    -0.141 C  
HETATM   43  O   UNL     1      -6.425   6.085  72.683  1.00  0.00    -0.060 OA 
ENDBRANCH  30  32
ENDBRANCH  29  30
ENDBRANCH  28  29
ENDBRANCH  27  28
ENDBRANCH  25  27
ENDBRANCH   7  25
TORSDOF 9
ENDMDL
MODEL      291
REMARK 921   NORMALIZED FREE ENERGY PREDICTED BY IDOCK:   -2.21 KCAL/MOL
REMARK 922        TOTAL FREE ENERGY PREDICTED BY IDOCK:   -3.88 KCAL/MOL
REMARK 923 INTER-LIGAND FREE ENERGY PREDICTED BY IDOCK:   -6.06 KCAL/MOL
REMARK 924 INTRA-LIGAND FREE ENERGY PREDICTED BY IDOCK:    2.17 KCAL/MOL
REMARK 927      BINDING AFFINITY PREDICTED BY RF-SCORE:    0.00 PKD
ROOT
HETATM    1  C   UNL     1      -7.014   7.904  65.063  1.00  0.00    -0.059 C  
HETATM    2  C   UNL     1      -7.920   6.771  65.587  1.00  0.00    -0.116 C  
HETATM    3  S   UNL     1      -9.423   7.579  66.316  1.00  0.00    -0.036 SA 
HETATM    4  C   UNL     1      -8.302   5.934  64.360  1.00  0.00    -0.048 C  
HETATM    5  C   UNL     1      -8.764   7.548  68.052  1.00  0.00    -0.121 C  
HETATM    6  C   UNL     1      -7.966   8.788  68.546  1.00  0.00    -0.112 C  
HETATM    7  C   UNL     1      -7.291   5.984  66.767  1.00  0.00    -0.079 C  
HETATM    8  C   UNL     1      -6.720   7.930  68.201  1.00  0.00    -0.064 C  
HETATM    9  O   UNL     1      -5.543   8.131  68.005  1.00  0.00    -0.033 OA 
HETATM   10  N   UNL     1      -7.482   6.825  67.957  1.00  0.00    -0.096 N  
ENDROOT
BRANCH   6  11
HETATM   11  N   UNL     1      -8.153  10.056  67.791  1.00  0.00    -0.109 N  
HETATM   12  C   UNL     1      -9.109  10.976  68.165  1.00  0.00    -0.155 C  
HETATM   13  O   UNL     1      -9.732  10.879  69.222  1.00  0.00    -0.170 OA 
HETATM   14  H   UNL     1      -7.563  10.248  66.982  1.00  0.00     0.000 HD 
BRANCH  12  15
HETATM   15  C   UNL     1      -9.364  12.111  67.148  1.00  0.00    -0.193 C  
HETATM   16  H2  UNL     1      -7.724  11.589  65.955  1.00  0.00     0.000 HD 
HETATM   17  N   UNL     1      -8.115  12.418  66.400  1.00  0.00    -0.359 NA 
HETATM   18  H1  UNL     1      -8.283  13.167  65.729  1.00  0.00     0.000 HD 
BRANCH  15  19
HETATM   19  C   UNL     1      -9.975  13.354  67.770  1.00  0.00    -0.233 A  
HETATM   20  C   UNL     1     -11.358  13.600  67.750  1.00  0.00    -0.336 A  
HETATM   21  C   UNL     1      -9.146  14.269  68.442  1.00  0.00    -0.194 A  
HETATM   22  C   UNL     1      -9.693  15.354  69.132  1.00  0.00    -0.252 A  
HETATM   23  C   UNL     1     -11.903  14.680  68.447  1.00  0.00    -0.330 A  
HETATM   24  C   UNL     1     -11.072  15.548  69.150  1.00  0.00    -0.272 A  
ENDBRANCH  15  19
ENDBRANCH  12  15
ENDBRANCH   6  11
BRANCH   7  25
HETATM   25  C   UNL     1      -7.965   4.631  67.087  1.00  0.00    -0.102 C  
HETATM   26  O   UNL     1      -7.602   3.537  66.664  1.00  0.00    -0.078 OA 
BRANCH  25  27
HETATM   27  O   UNL     1      -9.046   4.793  67.904  1.00  0.00    -0.109 OA 
BRANCH  27  28
HETATM   28  C   UNL     1      -8.749   4.751  69.303  1.00  0.00    -0.083 C  
BRANCH  28  29
HETATM   29  O   UNL     1      -9.927   4.507  70.065  1.00  0.00    -0.220 OA 
BRANCH  29  30
HETATM   30  C   UNL     1     -10.501   5.592  70.646  1.00  0.00    -0.272 C  
HETATM   31  O   UNL     1     -11.406   6.248  70.148  1.00  0.00    -0.372 OA 
BRANCH  30  32
HETATM   32  C   UNL     1      -9.885   5.880  72.033  1.00  0.00    -0.157 C  
HETATM   33  N   UNL     1      -8.450   5.555  71.996  1.00  0.00    -0.126 N  
HETATM   34  C   UNL     1      -8.050   4.145  72.253  1.00  0.00    -0.091 C  
HETATM   35  S   UNL     1      -9.553   3.469  72.990  1.00  0.00    -0.124 S  
HETATM   36  C   UNL     1      -6.936   4.694  73.148  1.00  0.00    -0.073 C  
HETATM   37  O   UNL     1     -10.229   2.656  71.993  1.00  0.00    -0.150 OA 
HETATM   38  O   UNL     1      -9.267   2.929  74.304  1.00  0.00    -0.081 OA 
HETATM   39  C   UNL     1     -10.492   5.024  73.170  1.00  0.00    -0.206 C  
HETATM   40  C   UNL     1      -7.561   6.072  72.889  1.00  0.00    -0.102 C  
HETATM   41  C   UNL     1     -12.002   4.764  73.082  1.00  0.00     0.017 C  
HETATM   42  C   UNL     1     -10.233   5.641  74.562  1.00  0.00    -0.288 C  
HETATM   43  O   UNL     1      -7.519   7.167  73.395  1.00  0.00    -0.075 OA 
ENDBRANCH  30  32
ENDBRANCH  29  30
ENDBRANCH  28  29
ENDBRANCH  27  28
ENDBRANCH  25  27
ENDBRANCH   7  25
TORSDOF 9
ENDMDL
MODEL      292
REMARK 921   NORMALIZED FREE ENERGY PREDICTED BY IDOCK:   -1.29 KCAL/MOL
REMARK 922        TOTAL FREE ENERGY PREDICTED BY IDOCK:   -2.47 KCAL/MOL
REMARK 923 INTER-LIGAND FREE ENERGY PREDICTED BY IDOCK:   -2.95 KCAL/MOL
REMARK 924 INTRA-LIGAND FREE ENERGY PREDICTED BY IDOCK:    0.48 KCAL/MOL
REMARK 927      BINDING AFFINITY PREDICTED BY RF-SCORE:    0.00 PKD
ROOT
HETATM    1  C   UNL     1      -9.226  12.671  67.119  1.00  0.00    -0.214 C  
HETATM    2  C   UNL     1      -8.977  12.016  68.493  1.00  0.00    -0.098 C  
HETATM    3  S   UNL     1      -8.639  13.392  69.691  1.00  0.00     1.976 SA 
HETATM    4  C   UNL     1     -10.279  11.294  68.860  1.00  0.00    -0.195 C  
HETATM    5  C   UNL     1      -6.793  13.250  69.541  1.00  0.00     0.081 C  
HETATM    6  C   UNL     1      -6.083  14.126  68.470  1.00  0.00    -0.091 C  
HETATM    7  C   UNL     1      -7.693  11.145  68.529  1.00  0.00    -0.129 C  
HETATM    8  C   UNL     1      -6.117  12.833  67.614  1.00  0.00    -0.152 C  
HETATM    9  O   UNL     1      -6.001  12.552  66.443  1.00  0.00     0.284 OA 
HETATM   10  N   UNL     1      -6.573  12.087  68.661  1.00  0.00    -0.069 N  
ENDROOT
BRANCH   6  11
HETATM   11  N   UNL     1      -6.832  15.305  67.958  1.00  0.00    -0.126 N  
HETATM   12  C   UNL     1      -6.240  16.213  67.107  1.00  0.00    -0.099 C  
HETATM   13  O   UNL     1      -5.136  16.012  66.602  1.00  0.00    -0.132 OA 
HETATM   14  H   UNL     1      -7.802  15.443  68.241  1.00  0.00     0.000 HD 
BRANCH  12  15
HETATM   15  C   UNL     1      -7.044  17.511  66.866  1.00  0.00    -0.190 C  
HETATM   16  H2  UNL     1      -5.609  18.727  67.785  1.00  0.00     0.000 HD 
HETATM   17  N   UNL     1      -6.614  18.565  67.823  1.00  0.00    -0.212 NA 
HETATM   18  H1  UNL     1      -7.145  19.421  67.664  1.00  0.00     0.000 HD 
BRANCH  15  19
HETATM   19  C   UNL     1      -8.548  17.302  66.886  1.00  0.00    -0.263 A  
HETATM   20  C   UNL     1      -9.254  16.823  65.770  1.00  0.00    -0.001 A  
HETATM   21  C   UNL     1      -9.262  17.538  68.074  1.00  0.00    -0.275 A  
HETATM   22  C   UNL     1     -10.623  17.235  68.160  1.00  0.00    -0.386 A  
HETATM   23  C   UNL     1     -10.612  16.513  65.861  1.00  0.00    -0.279 A  
HETATM   24  C   UNL     1     -11.292  16.705  67.059  1.00  0.00     0.464 A  
ENDBRANCH  15  19
ENDBRANCH  12  15
ENDBRANCH   6  11
BRANCH   7  25
HETATM   25  C   UNL     1      -7.586  10.182  69.734  1.00  0.00    -0.170 C  
HETATM   26  O   UNL     1      -6.686  10.184  70.568  1.00  0.00    -0.178 OA 
BRANCH  25  27
HETATM   27  O   UNL     1      -8.625   9.299  69.759  1.00  0.00    -0.133 OA 
BRANCH  27  28
HETATM   28  C   UNL     1      -8.684   8.412  68.638  1.00  0.00    -0.133 C  
BRANCH  28  29
HETATM   29  O   UNL     1      -8.023   7.184  68.926  1.00  0.00    -0.116 OA 
BRANCH  29  30
HETATM   30  C   UNL     1      -7.839   6.897  70.240  1.00  0.00    -0.109 C  
HETATM   31  O   UNL     1      -6.822   7.152  70.870  1.00  0.00    -0.052 OA 
BRANCH  30  32
HETATM   32  C   UNL     1      -9.090   6.229  70.851  1.00  0.00    -0.151 C  
HETATM   33  N   UNL     1      -9.509   6.994  72.037  1.00  0.00    -0.140 N  
HETATM   34  C   UNL     1      -8.860   6.672  73.337  1.00  0.00    -0.123 C  
HETATM   35  S   UNL     1      -8.102   5.073  72.979  1.00  0.00    -0.105 S  
HETATM   36  C   UNL     1     -10.250   6.738  73.973  1.00  0.00    -0.399 C  
HETATM   37  O   UNL     1      -6.675   5.271  72.791  1.00  0.00    -0.065 OA 
HETATM   38  O   UNL     1      -8.586   4.071  73.907  1.00  0.00    -0.093 OA 
HETATM   39  C   UNL     1      -8.845   4.781  71.337  1.00  0.00    -0.128 C  
HETATM   40  C   UNL     1     -10.772   6.925  72.541  1.00  0.00    -0.232 C  
HETATM   41  C   UNL     1      -7.916   3.927  70.462  1.00  0.00    -0.054 C  
HETATM   42  C   UNL     1     -10.161   3.987  71.485  1.00  0.00    -0.166 C  
HETATM   43  O   UNL     1     -11.830   6.821  71.970  1.00  0.00    -0.292 OA 
ENDBRANCH  30  32
ENDBRANCH  29  30
ENDBRANCH  28  29
ENDBRANCH  27  28
ENDBRANCH  25  27
ENDBRANCH   7  25
TORSDOF 9
ENDMDL
MODEL      293
REMARK 921   NORMALIZED FREE ENERGY PREDICTED BY IDOCK:   -1.22 KCAL/MOL
REMARK 922        TOTAL FREE ENERGY PREDICTED BY IDOCK:   -2.36 KCAL/MOL
REMARK 923 INTER-LIGAND FREE ENERGY PREDICTED BY IDOCK:   -3.81 KCAL/MOL
REMARK 924 INTRA-LIGAND FREE ENERGY PREDICTED BY IDOCK:    1.45 KCAL/MOL
REMARK 927      BINDING AFFINITY PREDICTED BY RF-SCORE:    0.00 PKD
ROOT
HETATM    1  C   UNL     1      -8.534   8.344  70.445  1.00  0.00    -0.130 C  
HETATM    2  C   UNL     1      -9.911   8.983  70.169  1.00  0.00    -0.187 C  
HETATM    3  S   UNL     1     -10.975   7.660  69.421  1.00  0.00     0.026 SA 
HETATM    4  C   UNL     1     -10.463   9.407  71.535  1.00  0.00    -0.299 C  
HETATM    5  C   UNL     1     -10.633   8.184  67.673  1.00  0.00    -0.188 C  
HETATM    6  C   UNL     1      -9.438   7.514  66.936  1.00  0.00    -0.171 C  
HETATM    7  C   UNL     1      -9.860  10.097  69.090  1.00  0.00    -0.214 C  
HETATM    8  C   UNL     1      -8.673   8.805  67.331  1.00  0.00    -0.130 C  
HETATM    9  O   UNL     1      -7.516   9.150  67.415  1.00  0.00    -0.084 OA 
HETATM   10  N   UNL     1      -9.809   9.400  67.797  1.00  0.00    -0.162 N  
ENDROOT
BRANCH   6  11
HETATM   11  N   UNL     1      -8.938   6.228  67.492  1.00  0.00    -0.110 N  
HETATM   12  C   UNL     1      -9.689   5.075  67.411  1.00  0.00    -0.158 C  
HETATM   13  O   UNL     1     -10.718   5.011  66.740  1.00  0.00    -0.225 OA 
HETATM   14  H   UNL     1      -8.022   6.198  67.940  1.00  0.00     0.000 HD 
BRANCH  12  15
HETATM   15  C   UNL     1      -9.164   3.887  68.250  1.00  0.00    -0.155 C  
HETATM   16  H2  UNL     1     -10.053   4.573  70.017  1.00  0.00     0.000 HD 
HETATM   17  N   UNL     1      -9.143   4.249  69.692  1.00  0.00    -0.103 NA 
HETATM   18  H1  UNL     1      -8.797   3.466  70.246  1.00  0.00     0.000 HD 
BRANCH  15  19
HETATM   19  C   UNL     1      -7.823   3.358  67.775  1.00  0.00    -0.076 A  
HETATM   20  C   UNL     1      -7.260   3.736  66.544  1.00  0.00    -0.068 A  
HETATM   21  C   UNL     1      -7.082   2.506  68.611  1.00  0.00    -0.044 A  
HETATM   22  C   UNL     1      -5.791   2.104  68.258  1.00  0.00    -0.023 A  
HETATM   23  C   UNL     1      -5.967   3.342  66.197  1.00  0.00    -0.024 A  
HETATM   24  C   UNL     1      -5.227   2.538  67.060  1.00  0.00    -0.009 A  
ENDBRANCH  15  19
ENDBRANCH  12  15
ENDBRANCH   6  11
BRANCH   7  25
HETATM   25  C   UNL     1     -11.104  11.013  69.033  1.00  0.00    -0.244 C  
HETATM   26  O   UNL     1     -11.853  11.254  69.975  1.00  0.00    -0.307 OA 
BRANCH  25  27
HETATM   27  O   UNL     1     -11.288  11.526  67.783  1.00  0.00    -0.260 OA 
BRANCH  27  28
HETATM   28  C   UNL     1     -11.739  12.884  67.755  1.00  0.00    -0.362 C  
BRANCH  28  29
HETATM   29  O   UNL     1     -10.796  13.718  67.089  1.00  0.00    -0.279 OA 
BRANCH  29  30
HETATM   30  C   UNL     1     -11.198  14.989  66.831  1.00  0.00    -0.323 C  
HETATM   31  O   UNL     1     -12.333  15.305  66.502  1.00  0.00     0.386 OA 
BRANCH  30  32
HETATM   32  C   UNL     1     -10.045  15.997  67.033  1.00  0.00    -0.271 C  
HETATM   33  N   UNL     1      -8.859  15.519  66.303  1.00  0.00    -0.321 N  
HETATM   34  C   UNL     1      -7.963  14.551  66.991  1.00  0.00    -0.041 C  
HETATM   35  S   UNL     1      -8.495  14.719  68.708  1.00  0.00    -0.160 S  
HETATM   36  C   UNL     1      -6.782  15.374  66.469  1.00  0.00     1.587 C  
HETATM   37  O   UNL     1      -9.312  13.567  69.051  1.00  0.00     0.110 OA 
HETATM   38  O   UNL     1      -7.374  15.097  69.544  1.00  0.00    -0.188 OA 
HETATM   39  C   UNL     1      -9.608  16.152  68.509  1.00  0.00    -0.215 C  
HETATM   40  C   UNL     1      -7.842  16.349  65.939  1.00  0.00     0.527 C  
HETATM   41  C   UNL     1     -10.735  16.116  69.550  1.00  0.00    -0.313 C  
HETATM   42  C   UNL     1      -8.830  17.464  68.750  1.00  0.00    -0.220 C  
HETATM   43  O   UNL     1      -7.874  17.496  65.565  1.00  0.00    -0.386 OA 
ENDBRANCH  30  32
ENDBRANCH  29  30
ENDBRANCH  28  29
ENDBRANCH  27  28
ENDBRANCH  25  27
ENDBRANCH   7  25
TORSDOF 9
ENDMDL
MODEL      294
REMARK 921   NORMALIZED FREE ENERGY PREDICTED BY IDOCK:   -0.91 KCAL/MOL
REMARK 922        TOTAL FREE ENERGY PREDICTED BY IDOCK:   -1.89 KCAL/MOL
REMARK 923 INTER-LIGAND FREE ENERGY PREDICTED BY IDOCK:   -4.24 KCAL/MOL
REMARK 924 INTRA-LIGAND FREE ENERGY PREDICTED BY IDOCK:    2.35 KCAL/MOL
REMARK 927      BINDING AFFINITY PREDICTED BY RF-SCORE:    0.00 PKD
ROOT
HETATM    1  C   UNL     1     -10.859   6.995  66.507  1.00  0.00     0.198 C  
HETATM    2  C   UNL     1      -9.763   6.611  67.523  1.00  0.00    -0.127 C  
HETATM    3  S   UNL     1      -8.206   7.458  66.977  1.00  0.00    -0.122 SA 
HETATM    4  C   UNL     1     -10.228   7.161  68.876  1.00  0.00    -0.188 C  
HETATM    5  C   UNL     1      -7.560   5.978  66.061  1.00  0.00    -0.087 C  
HETATM    6  C   UNL     1      -7.913   5.849  64.552  1.00  0.00    -0.126 C  
HETATM    7  C   UNL     1      -9.412   5.099  67.497  1.00  0.00    -0.133 C  
HETATM    8  C   UNL     1      -9.022   4.887  65.053  1.00  0.00    -0.147 C  
HETATM    9  O   UNL     1     -10.049   4.424  64.610  1.00  0.00    -0.142 OA 
HETATM   10  N   UNL     1      -8.541   4.910  66.329  1.00  0.00    -0.114 N  
ENDROOT
BRANCH   6  11
HETATM   11  N   UNL     1      -8.347   7.088  63.852  1.00  0.00    -0.347 N  
HETATM   12  C   UNL     1      -7.464   8.116  63.605  1.00  0.00    -0.120 C  
HETATM   13  O   UNL     1      -6.254   7.998  63.794  1.00  0.00    -0.065 OA 
HETATM   14  H   UNL     1      -9.317   7.178  63.550  1.00  0.00     0.000 HD 
BRANCH  12  15
HETATM   15  C   UNL     1      -8.106   9.432  63.109  1.00  0.00    -0.153 C  
HETATM   16  H2  UNL     1      -6.712   9.686  61.568  1.00  0.00     0.000 HD 
HETATM   17  N   UNL     1      -7.116  10.225  62.333  1.00  0.00    -0.135 NA 
HETATM   18  H1  UNL     1      -7.540  11.093  62.006  1.00  0.00     0.000 HD 
BRANCH  15  19
HETATM   19  C   UNL     1      -8.745  10.248  64.219  1.00  0.00    -0.217 A  
HETATM   20  C   UNL     1     -10.087  10.661  64.169  1.00  0.00    -0.402 A  
HETATM   21  C   UNL     1      -7.995  10.557  65.367  1.00  0.00    -0.129 A  
HETATM   22  C   UNL     1      -8.591  11.196  66.457  1.00  0.00    -0.169 A  
HETATM   23  C   UNL     1     -10.682  11.291  65.263  1.00  0.00    -0.302 A  
HETATM   24  C   UNL     1      -9.939  11.546  66.412  1.00  0.00    -0.241 A  
ENDBRANCH  15  19
ENDBRANCH  12  15
ENDBRANCH   6  11
BRANCH   7  25
HETATM   25  C   UNL     1      -8.610   4.591  68.716  1.00  0.00    -0.085 C  
HETATM   26  O   UNL     1      -9.086   4.300  69.810  1.00  0.00    -0.096 OA 
BRANCH  25  27
HETATM   27  O   UNL     1      -7.277   4.512  68.438  1.00  0.00    -0.059 OA 
BRANCH  27  28
HETATM   28  C   UNL     1      -6.482   5.546  69.025  1.00  0.00    -0.042 C  
BRANCH  28  29
HETATM   29  O   UNL     1      -6.329   5.337  70.426  1.00  0.00    -0.025 OA 
BRANCH  29  30
HETATM   30  C   UNL     1      -5.842   4.126  70.801  1.00  0.00    -0.014 C  
HETATM   31  O   UNL     1      -5.437   3.270  70.026  1.00  0.00    -0.014 OA 
BRANCH  30  32
HETATM   32  C   UNL     1      -5.834   3.974  72.338  1.00  0.00    -0.008 C  
HETATM   33  N   UNL     1      -6.998   3.170  72.745  1.00  0.00    -0.040 N  
HETATM   34  C   UNL     1      -8.292   3.876  72.949  1.00  0.00    -0.095 C  
HETATM   35  S   UNL     1      -7.756   5.596  73.053  1.00  0.00    -0.101 S  
HETATM   36  C   UNL     1      -8.467   3.048  74.224  1.00  0.00    -0.069 C  
HETATM   37  O   UNL     1      -8.074   6.255  71.797  1.00  0.00    -0.102 OA 
HETATM   38  O   UNL     1      -8.179   6.177  74.312  1.00  0.00    -0.111 OA 
HETATM   39  C   UNL     1      -5.953   5.318  73.095  1.00  0.00    -0.024 C  
HETATM   40  C   UNL     1      -7.054   2.519  73.939  1.00  0.00    -0.035 C  
HETATM   41  C   UNL     1      -5.203   6.506  72.477  1.00  0.00    -0.032 C  
HETATM   42  C   UNL     1      -5.468   5.206  74.557  1.00  0.00    -0.023 C  
HETATM   43  O   UNL     1      -6.183   1.958  74.558  1.00  0.00    -0.004 OA 
ENDBRANCH  30  32
ENDBRANCH  29  30
ENDBRANCH  28  29
ENDBRANCH  27  28
ENDBRANCH  25  27
ENDBRANCH   7  25
TORSDOF 9
ENDMDL
MODEL      295
REMARK 921   NORMALIZED FREE ENERGY PREDICTED BY IDOCK:   -0.85 KCAL/MOL
REMARK 922        TOTAL FREE ENERGY PREDICTED BY IDOCK:   -1.80 KCAL/MOL
REMARK 923 INTER-LIGAND FREE ENERGY PREDICTED BY IDOCK:   -4.72 KCAL/MOL
REMARK 924 INTRA-LIGAND FREE ENERGY PREDICTED BY IDOCK:    2.93 KCAL/MOL
REMARK 927      BINDING AFFINITY PREDICTED BY RF-SCORE:    0.00 PKD
ROOT
HETATM    1  C   UNL     1      -7.042   7.914  65.092  1.00  0.00    -0.060 C  
HETATM    2  C   UNL     1      -8.035   6.853  65.609  1.00  0.00    -0.120 C  
HETATM    3  S   UNL     1      -9.485   7.773  66.313  1.00  0.00    -0.081 SA 
HETATM    4  C   UNL     1      -8.461   6.038  64.382  1.00  0.00     0.050 C  
HETATM    5  C   UNL     1      -8.853   7.706  68.058  1.00  0.00    -0.127 C  
HETATM    6  C   UNL     1      -7.974   8.888  68.556  1.00  0.00    -0.104 C  
HETATM    7  C   UNL     1      -7.481   6.031  66.803  1.00  0.00    -0.087 C  
HETATM    8  C   UNL     1      -6.789   7.940  68.234  1.00  0.00    -0.071 C  
HETATM    9  O   UNL     1      -5.598   8.053  68.053  1.00  0.00    -0.032 OA 
HETATM   10  N   UNL     1      -7.626   6.891  67.985  1.00  0.00    -0.105 N  
ENDROOT
BRANCH   6  11
HETATM   11  N   UNL     1      -8.058  10.161  67.792  1.00  0.00    -0.109 N  
HETATM   12  C   UNL     1      -8.963  11.143  68.135  1.00  0.00    -0.159 C  
HETATM   13  O   UNL     1      -9.619  11.092  69.174  1.00  0.00    -0.166 OA 
HETATM   14  H   UNL     1      -7.435  10.310  66.998  1.00  0.00     0.000 HD 
BRANCH  12  15
HETATM   15  C   UNL     1      -9.116  12.286  67.107  1.00  0.00    -0.193 C  
HETATM   16  H2  UNL     1      -7.418  11.715  66.022  1.00  0.00     0.000 HD 
HETATM   17  N   UNL     1      -7.812  12.556  66.443  1.00  0.00    -0.152 NA 
HETATM   18  H1  UNL     1      -7.913  13.310  65.765  1.00  0.00     0.000 HD 
BRANCH  15  19
HETATM   19  C   UNL     1      -9.728  13.547  67.692  1.00  0.00    -0.229 A  
HETATM   20  C   UNL     1      -9.124  14.256  68.745  1.00  0.00    -0.103 A  
HETATM   21  C   UNL     1     -10.908  14.065  67.132  1.00  0.00    -0.288 A  
HETATM   22  C   UNL     1     -11.426  15.289  67.565  1.00  0.00    -0.271 A  
HETATM   23  C   UNL     1      -9.637  15.482  69.169  1.00  0.00    -0.253 A  
HETATM   24  C   UNL     1     -10.779  16.005  68.569  1.00  0.00    -0.287 A  
ENDBRANCH  15  19
ENDBRANCH  12  15
ENDBRANCH   6  11
BRANCH   7  25
HETATM   25  C   UNL     1      -8.256   4.732  67.121  1.00  0.00    -0.106 C  
HETATM   26  O   UNL     1      -7.936   3.605  66.756  1.00  0.00    -0.090 OA 
BRANCH  25  27
HETATM   27  O   UNL     1      -9.373   4.987  67.862  1.00  0.00    -0.115 OA 
BRANCH  27  28
HETATM   28  C   UNL     1      -9.145   5.086  69.271  1.00  0.00    -0.103 C  
BRANCH  28  29
HETATM   29  O   UNL     1      -8.568   3.887  69.778  1.00  0.00    -0.062 OA 
BRANCH  29  30
HETATM   30  C   UNL     1      -9.399   3.068  70.473  1.00  0.00    -0.152 C  
HETATM   31  O   UNL     1      -9.969   2.094  70.000  1.00  0.00     0.149 OA 
BRANCH  30  32
HETATM   32  C   UNL     1      -9.515   3.505  71.950  1.00  0.00    -0.137 C  
HETATM   33  N   UNL     1      -9.458   4.974  72.020  1.00  0.00    -0.140 N  
HETATM   34  C   UNL     1      -8.116   5.617  72.068  1.00  0.00    -0.112 C  
HETATM   35  S   UNL     1      -7.059   4.218  72.498  1.00  0.00    -0.064 S  
HETATM   36  C   UNL     1      -8.665   6.530  73.166  1.00  0.00    -0.128 C  
HETATM   37  O   UNL     1      -6.350   3.792  71.303  1.00  0.00    -0.014 OA 
HETATM   38  O   UNL     1      -6.332   4.497  73.720  1.00  0.00    -0.042 OA 
HETATM   39  C   UNL     1      -8.362   2.987  72.842  1.00  0.00    -0.076 C  
HETATM   40  C   UNL     1      -9.938   5.674  73.085  1.00  0.00    -0.175 C  
HETATM   41  C   UNL     1      -7.865   1.567  72.539  1.00  0.00    -0.044 C  
HETATM   42  C   UNL     1      -8.732   3.012  74.341  1.00  0.00    -0.082 C  
HETATM   43  O   UNL     1     -10.904   5.466  73.778  1.00  0.00    -0.284 OA 
ENDBRANCH  30  32
ENDBRANCH  29  30
ENDBRANCH  28  29
ENDBRANCH  27  28
ENDBRANCH  25  27
ENDBRANCH   7  25
TORSDOF 9
ENDMDL
MODEL      296
REMARK 921   NORMALIZED FREE ENERGY PREDICTED BY IDOCK:   -0.79 KCAL/MOL
REMARK 922        TOTAL FREE ENERGY PREDICTED BY IDOCK:   -1.71 KCAL/MOL
REMARK 923 INTER-LIGAND FREE ENERGY PREDICTED BY IDOCK:   -2.15 KCAL/MOL
REMARK 924 INTRA-LIGAND FREE ENERGY PREDICTED BY IDOCK:    0.44 KCAL/MOL
REMARK 927      BINDING AFFINITY PREDICTED BY RF-SCORE:    0.00 PKD
ROOT
HETATM    1  C   UNL     1      -5.462  17.221  67.862  1.00  0.00    -0.122 C  
HETATM    2  C   UNL     1      -5.960  15.950  67.144  1.00  0.00     0.094 C  
HETATM    3  S   UNL     1      -7.754  16.219  66.757  1.00  0.00    -0.257 SA 
HETATM    4  C   UNL     1      -5.142  15.847  65.851  1.00  0.00     3.483 C  
HETATM    5  C   UNL     1      -8.354  15.326  68.271  1.00  0.00    -0.148 C  
HETATM    6  C   UNL     1      -8.597  16.164  69.558  1.00  0.00     0.044 C  
HETATM    7  C   UNL     1      -5.943  14.691  68.052  1.00  0.00    -0.150 C  
HETATM    8  C   UNL     1      -7.195  15.647  69.973  1.00  0.00     0.152 C  
HETATM    9  O   UNL     1      -6.346  15.959  70.777  1.00  0.00     0.287 OA 
HETATM   10  N   UNL     1      -7.133  14.798  68.907  1.00  0.00    -0.110 N  
ENDROOT
BRANCH   6  11
HETATM   11  N   UNL     1      -8.760  17.633  69.386  1.00  0.00     0.311 N  
HETATM   12  C   UNL     1      -9.730  18.152  68.555  1.00  0.00    -0.362 C  
HETATM   13  O   UNL     1     -10.604  17.448  68.052  1.00  0.00    -0.371 OA 
HETATM   14  H   UNL     1      -8.143  18.268  69.893  1.00  0.00     0.000 HD 
BRANCH  12  15
HETATM   15  C   UNL     1      -9.615  19.668  68.276  1.00  0.00    -0.385 C  
HETATM   16  H2  UNL     1     -11.647  19.869  67.809  1.00  0.00     0.000 HD 
HETATM   17  N   UNL     1     -10.740  20.116  67.413  1.00  0.00    -0.209 NA 
HETATM   18  H1  UNL     1     -10.665  21.116  67.229  1.00  0.00     0.000 HD 
BRANCH  15  19
HETATM   19  C   UNL     1      -8.266  20.078  67.713  1.00  0.00    -0.330 A  
HETATM   20  C   UNL     1      -7.133  20.245  68.527  1.00  0.00    -0.206 A  
HETATM   21  C   UNL     1      -8.120  20.244  66.325  1.00  0.00    -0.202 A  
HETATM   22  C   UNL     1      -6.864  20.497  65.766  1.00  0.00    -0.240 A  
HETATM   23  C   UNL     1      -5.879  20.489  67.965  1.00  0.00    -0.294 A  
HETATM   24  C   UNL     1      -5.742  20.601  66.585  1.00  0.00    -0.228 A  
ENDBRANCH  15  19
ENDBRANCH  12  15
ENDBRANCH   6  11
BRANCH   7  25
HETATM   25  C   UNL     1      -6.071  13.343  67.307  1.00  0.00     0.275 C  
HETATM   26  O   UNL     1      -5.159  12.762  66.725  1.00  0.00    -0.269 OA 
BRANCH  25  27
HETATM   27  O   UNL     1      -7.347  12.864  67.357  1.00  0.00    -0.149 OA 
BRANCH  27  28
HETATM   28  C   UNL     1      -7.489  11.498  66.957  1.00  0.00    -0.151 C  
BRANCH  28  29
HETATM   29  O   UNL     1      -8.115  10.731  67.981  1.00  0.00    -0.109 OA 
BRANCH  29  30
HETATM   30  C   UNL     1      -9.436  10.468  67.810  1.00  0.00    -0.149 C  
HETATM   31  O   UNL     1     -10.139  10.977  66.947  1.00  0.00    -0.197 OA 
BRANCH  30  32
HETATM   32  C   UNL     1      -9.938   9.420  68.827  1.00  0.00    -0.179 C  
HETATM   33  N   UNL     1      -8.990   9.351  69.950  1.00  0.00    -0.182 N  
HETATM   34  C   UNL     1      -7.807   8.459  69.808  1.00  0.00    -0.099 C  
HETATM   35  S   UNL     1      -8.295   7.428  68.408  1.00  0.00    -0.125 S  
HETATM   36  C   UNL     1      -8.074   7.986  71.239  1.00  0.00    -0.110 C  
HETATM   37  O   UNL     1      -7.573   7.879  67.231  1.00  0.00    -0.097 OA 
HETATM   38  O   UNL     1      -8.278   6.030  68.787  1.00  0.00    -0.103 OA 
HETATM   39  C   UNL     1     -10.025   7.987  68.249  1.00  0.00    -0.185 C  
HETATM   40  C   UNL     1      -9.337   8.855  71.170  1.00  0.00    -0.257 C  
HETATM   41  C   UNL     1     -10.502   7.878  66.794  1.00  0.00    -0.317 C  
HETATM   42  C   UNL     1     -10.954   7.080  69.084  1.00  0.00    -0.193 C  
HETATM   43  O   UNL     1     -10.378   8.945  71.776  1.00  0.00    -0.310 OA 
ENDBRANCH  30  32
ENDBRANCH  29  30
ENDBRANCH  28  29
ENDBRANCH  27  28
ENDBRANCH  25  27
ENDBRANCH   7  25
TORSDOF 9
ENDMDL
MODEL      297
REMARK 921   NORMALIZED FREE ENERGY PREDICTED BY IDOCK:   -0.37 KCAL/MOL
REMARK 922        TOTAL FREE ENERGY PREDICTED BY IDOCK:   -1.07 KCAL/MOL
REMARK 923 INTER-LIGAND FREE ENERGY PREDICTED BY IDOCK:   -3.63 KCAL/MOL
REMARK 924 INTRA-LIGAND FREE ENERGY PREDICTED BY IDOCK:    2.57 KCAL/MOL
REMARK 927      BINDING AFFINITY PREDICTED BY RF-SCORE:    0.00 PKD
ROOT
HETATM    1  C   UNL     1     -12.726  12.533  66.703  1.00  0.00     1.369 C  
HETATM    2  C   UNL     1     -11.213  12.697  66.448  1.00  0.00    -0.305 C  
HETATM    3  S   UNL     1     -10.359  11.350  67.396  1.00  0.00    -0.209 SA 
HETATM    4  C   UNL     1     -11.014  12.501  64.940  1.00  0.00    -0.335 C  
HETATM    5  C   UNL     1     -10.000  12.428  68.866  1.00  0.00     0.079 C  
HETATM    6  C   UNL     1     -11.044  12.454  70.017  1.00  0.00     0.461 C  
HETATM    7  C   UNL     1     -10.636  14.012  67.036  1.00  0.00    -0.279 C  
HETATM    8  C   UNL     1     -11.524  13.767  69.343  1.00  0.00    -0.286 C  
HETATM    9  O   UNL     1     -12.518  14.456  69.372  1.00  0.00    -0.248 OA 
HETATM   10  N   UNL     1     -10.471  13.769  68.475  1.00  0.00    -0.241 N  
ENDROOT
BRANCH   6  11
HETATM   11  N   UNL     1     -12.010  11.325  70.079  1.00  0.00    -0.337 N  
HETATM   12  C   UNL     1     -11.677  10.131  70.681  1.00  0.00    -0.338 C  
HETATM   13  O   UNL     1     -10.644   9.995  71.336  1.00  0.00     0.035 OA 
HETATM   14  H   UNL     1     -12.937  11.436  69.668  1.00  0.00     0.000 HD 
BRANCH  12  15
HETATM   15  C   UNL     1     -12.672   8.973  70.444  1.00  0.00     0.615 C  
HETATM   16  H2  UNL     1     -14.348  10.147  70.890  1.00  0.00     0.000 HD 
HETATM   17  N   UNL     1     -13.952   9.244  71.152  1.00  0.00    -0.461 NA 
HETATM   18  H1  UNL     1     -14.609   8.480  70.995  1.00  0.00     0.000 HD 
BRANCH  15  19
HETATM   19  C   UNL     1     -12.106   7.608  70.795  1.00  0.00    -0.149 A  
HETATM   20  C   UNL     1     -11.482   6.786  69.841  1.00  0.00    -0.355 A  
HETATM   21  C   UNL     1     -12.150   7.165  72.128  1.00  0.00    -0.284 A  
HETATM   22  C   UNL     1     -11.526   5.972  72.504  1.00  0.00    -0.336 A  
HETATM   23  C   UNL     1     -10.852   5.600  70.220  1.00  0.00    -0.336 A  
HETATM   24  C   UNL     1     -10.861   5.201  71.554  1.00  0.00    -0.102 A  
ENDBRANCH  15  19
ENDBRANCH  12  15
ENDBRANCH   6  11
BRANCH   7  25
HETATM   25  C   UNL     1      -9.239  14.411  66.507  1.00  0.00    -0.244 C  
HETATM   26  O   UNL     1      -8.854  15.560  66.311  1.00  0.00    -0.306 OA 
BRANCH  25  27
HETATM   27  O   UNL     1      -8.467  13.313  66.262  1.00  0.00     0.311 OA 
BRANCH  27  28
HETATM   28  C   UNL     1      -7.319  13.190  67.106  1.00  0.00     0.067 C  
BRANCH  28  29
HETATM   29  O   UNL     1      -7.321  11.941  67.789  1.00  0.00    -0.094 OA 
BRANCH  29  30
HETATM   30  C   UNL     1      -6.189  11.199  67.685  1.00  0.00    -0.053 C  
HETATM   31  O   UNL     1      -5.127  11.474  68.227  1.00  0.00    -0.040 OA 
BRANCH  30  32
HETATM   32  C   UNL     1      -6.416   9.942  66.816  1.00  0.00    -0.070 C  
HETATM   33  N   UNL     1      -7.791   9.966  66.291  1.00  0.00    -0.106 N  
HETATM   34  C   UNL     1      -8.872   9.411  67.150  1.00  0.00    -0.127 C  
HETATM   35  S   UNL     1      -7.925   8.475  68.369  1.00  0.00    -0.119 S  
HETATM   36  C   UNL     1      -9.417   8.714  65.901  1.00  0.00    -0.243 C  
HETATM   37  O   UNL     1      -7.899   9.230  69.610  1.00  0.00    -0.077 OA 
HETATM   38  O   UNL     1      -8.338   7.086  68.364  1.00  0.00    -0.123 OA 
HETATM   39  C   UNL     1      -6.276   8.614  67.598  1.00  0.00    -0.052 C  
HETATM   40  C   UNL     1      -8.165   9.254  65.193  1.00  0.00    -0.141 C  
HETATM   41  C   UNL     1      -5.171   8.574  68.662  1.00  0.00    -0.029 C  
HETATM   42  C   UNL     1      -6.027   7.413  66.661  1.00  0.00    -0.036 C  
HETATM   43  O   UNL     1      -7.555   9.014  64.179  1.00  0.00    -0.109 OA 
ENDBRANCH  30  32
ENDBRANCH  29  30
ENDBRANCH  28  29
ENDBRANCH  27  28
ENDBRANCH  25  27
ENDBRANCH   7  25
TORSDOF 9
ENDMDL
MODEL      298
REMARK 921   NORMALIZED FREE ENERGY PREDICTED BY IDOCK:   -0.26 KCAL/MOL
REMARK 922        TOTAL FREE ENERGY PREDICTED BY IDOCK:   -0.91 KCAL/MOL
REMARK 923 INTER-LIGAND FREE ENERGY PREDICTED BY IDOCK:   -3.46 KCAL/MOL
REMARK 924 INTRA-LIGAND FREE ENERGY PREDICTED BY IDOCK:    2.55 KCAL/MOL
REMARK 927      BINDING AFFINITY PREDICTED BY RF-SCORE:    0.00 PKD
ROOT
HETATM    1  C   UNL     1      -8.880   8.020  71.338  1.00  0.00    -0.170 C  
HETATM    2  C   UNL     1      -7.939   8.561  70.242  1.00  0.00    -0.103 C  
HETATM    3  S   UNL     1      -8.461  10.308  69.900  1.00  0.00     0.147 SA 
HETATM    4  C   UNL     1      -6.528   8.530  70.842  1.00  0.00    -0.042 C  
HETATM    5  C   UNL     1      -9.523   9.850  68.447  1.00  0.00    -0.137 C  
HETATM    6  C   UNL     1     -11.025   9.547  68.714  1.00  0.00    -0.080 C  
HETATM    7  C   UNL     1      -8.107   7.833  68.882  1.00  0.00    -0.126 C  
HETATM    8  C   UNL     1     -10.572   8.064  68.679  1.00  0.00    -0.109 C  
HETATM    9  O   UNL     1     -11.018   7.001  69.046  1.00  0.00    -0.200 OA 
HETATM   10  N   UNL     1      -9.315   8.401  68.269  1.00  0.00    -0.135 N  
ENDROOT
BRANCH   6  11
HETATM   11  N   UNL     1     -11.600  10.056  69.988  1.00  0.00    -0.361 N  
HETATM   12  C   UNL     1     -11.809  11.404  70.190  1.00  0.00    -0.355 C  
HETATM   13  O   UNL     1     -11.691  12.227  69.283  1.00  0.00    -0.294 OA 
HETATM   14  H   UNL     1     -11.845   9.396  70.726  1.00  0.00     0.000 HD 
BRANCH  12  15
HETATM   15  C   UNL     1     -12.164  11.805  71.639  1.00  0.00     0.420 C  
HETATM   16  H2  UNL     1     -13.536  10.241  71.876  1.00  0.00     0.000 HD 
HETATM   17  N   UNL     1     -13.492  11.250  72.014  1.00  0.00    -0.460 NA 
HETATM   18  H1  UNL     1     -13.726  11.515  72.970  1.00  0.00     0.000 HD 
BRANCH  15  19
HETATM   19  C   UNL     1     -12.081  13.301  71.890  1.00  0.00     0.765 A  
HETATM   20  C   UNL     1     -12.483  13.881  73.104  1.00  0.00     0.302 A  
HETATM   21  C   UNL     1     -11.530  14.136  70.903  1.00  0.00     0.080 A  
HETATM   22  C   UNL     1     -11.325  15.496  71.153  1.00  0.00    -0.442 A  
HETATM   23  C   UNL     1     -12.269  15.237  73.355  1.00  0.00    -0.595 A  
HETATM   24  C   UNL     1     -11.676  16.041  72.386  1.00  0.00    -0.573 A  
ENDBRANCH  15  19
ENDBRANCH  12  15
ENDBRANCH   6  11
BRANCH   7  25
HETATM   25  C   UNL     1      -6.963   8.064  67.868  1.00  0.00    -0.078 C  
HETATM   26  O   UNL     1      -5.839   8.471  68.144  1.00  0.00    -0.040 OA 
BRANCH  25  27
HETATM   27  O   UNL     1      -7.358   7.771  66.596  1.00  0.00    -0.084 OA 
BRANCH  27  28
HETATM   28  C   UNL     1      -6.495   6.871  65.894  1.00  0.00    -0.051 C  
BRANCH  28  29
HETATM   29  O   UNL     1      -6.702   5.529  66.325  1.00  0.00    -0.054 OA 
BRANCH  29  30
HETATM   30  C   UNL     1      -7.992   5.106  66.369  1.00  0.00    -0.104 C  
HETATM   31  O   UNL     1      -8.890   5.545  65.664  1.00  0.00    -0.150 OA 
BRANCH  30  32
HETATM   32  C   UNL     1      -8.179   3.976  67.405  1.00  0.00    -0.098 C  
HETATM   33  N   UNL     1      -8.513   4.573  68.708  1.00  0.00    -0.084 N  
HETATM   34  C   UNL     1      -7.389   5.011  69.580  1.00  0.00    -0.057 C  
HETATM   35  S   UNL     1      -5.987   4.166  68.818  1.00  0.00    -0.027 S  
HETATM   36  C   UNL     1      -8.132   4.363  70.751  1.00  0.00    -0.071 C  
HETATM   37  O   UNL     1      -5.223   5.138  68.054  1.00  0.00    -0.003 OA 
HETATM   38  O   UNL     1      -5.328   3.316  69.788  1.00  0.00    -0.010 OA 
HETATM   39  C   UNL     1      -6.907   3.126  67.633  1.00  0.00    -0.049 C  
HETATM   40  C   UNL     1      -9.132   3.870  69.696  1.00  0.00    -0.122 C  
HETATM   41  C   UNL     1      -6.059   2.839  66.386  1.00  0.00    -0.024 C  
HETATM   42  C   UNL     1      -7.230   1.757  68.269  1.00  0.00    -0.043 C  
HETATM   43  O   UNL     1      -9.990   3.023  69.625  1.00  0.00     0.160 OA 
ENDBRANCH  30  32
ENDBRANCH  29  30
ENDBRANCH  28  29
ENDBRANCH  27  28
ENDBRANCH  25  27
ENDBRANCH   7  25
TORSDOF 9
ENDMDL
MODEL      299
REMARK 921   NORMALIZED FREE ENERGY PREDICTED BY IDOCK:   -0.23 KCAL/MOL
REMARK 922        TOTAL FREE ENERGY PREDICTED BY IDOCK:   -0.86 KCAL/MOL
REMARK 923 INTER-LIGAND FREE ENERGY PREDICTED BY IDOCK:   -2.09 KCAL/MOL
REMARK 924 INTRA-LIGAND FREE ENERGY PREDICTED BY IDOCK:    1.24 KCAL/MOL
REMARK 927      BINDING AFFINITY PREDICTED BY RF-SCORE:    0.00 PKD
ROOT
HETATM    1  C   UNL     1     -12.876  13.275  67.017  1.00  0.00     1.110 C  
HETATM    2  C   UNL     1     -11.366  13.168  66.718  1.00  0.00    -0.316 C  
HETATM    3  S   UNL     1     -10.657  11.977  67.951  1.00  0.00    -0.209 SA 
HETATM    4  C   UNL     1     -11.256  12.598  65.298  1.00  0.00    -0.335 C  
HETATM    5  C   UNL     1     -10.101  13.309  69.120  1.00  0.00     0.276 C  
HETATM    6  C   UNL     1     -11.086  13.747  70.241  1.00  0.00     0.398 C  
HETATM    7  C   UNL     1     -10.599  14.493  66.972  1.00  0.00    -0.278 C  
HETATM    8  C   UNL     1     -11.417  14.917  69.278  1.00  0.00    -0.303 C  
HETATM    9  O   UNL     1     -12.310  15.724  69.151  1.00  0.00    -0.212 OA 
HETATM   10  N   UNL     1     -10.409  14.573  68.426  1.00  0.00    -0.235 N  
ENDROOT
BRANCH   6  11
HETATM   11  N   UNL     1     -12.188  12.806  70.577  1.00  0.00    -0.419 N  
HETATM   12  C   UNL     1     -11.931  11.489  70.894  1.00  0.00    -0.115 C  
HETATM   13  O   UNL     1     -10.789  11.071  71.077  1.00  0.00     0.968 OA 
HETATM   14  H   UNL     1     -13.151  13.141  70.574  1.00  0.00     0.000 HD 
BRANCH  12  15
HETATM   15  C   UNL     1     -13.175  10.575  70.966  1.00  0.00    -0.239 C  
HETATM   16  H2  UNL     1     -14.314  11.985  72.015  1.00  0.00     0.000 HD 
HETATM   17  N   UNL     1     -14.060  11.000  72.084  1.00  0.00     0.172 NA 
HETATM   18  H1  UNL     1     -14.880  10.396  72.131  1.00  0.00     0.000 HD 
BRANCH  15  19
HETATM   19  C   UNL     1     -12.835   9.097  71.039  1.00  0.00    -0.158 A  
HETATM   20  C   UNL     1     -13.688   8.160  71.647  1.00  0.00    -0.403 A  
HETATM   21  C   UNL     1     -11.658   8.628  70.430  1.00  0.00    -0.090 A  
HETATM   22  C   UNL     1     -11.382   7.260  70.371  1.00  0.00    -0.299 A  
HETATM   23  C   UNL     1     -13.415   6.793  71.580  1.00  0.00    -0.180 A  
HETATM   24  C   UNL     1     -12.270   6.342  70.929  1.00  0.00    -0.082 A  
ENDBRANCH  15  19
ENDBRANCH  12  15
ENDBRANCH   6  11
BRANCH   7  25
HETATM   25  C   UNL     1      -9.185  14.561  66.351  1.00  0.00    -0.234 C  
HETATM   26  O   UNL     1      -8.579  15.592  66.073  1.00  0.00    -0.242 OA 
BRANCH  25  27
HETATM   27  O   UNL     1      -8.677  13.315  66.129  1.00  0.00     0.214 OA 
BRANCH  27  28
HETATM   28  C   UNL     1      -7.393  13.080  66.714  1.00  0.00     0.632 C  
BRANCH  28  29
HETATM   29  O   UNL     1      -7.462  12.048  67.693  1.00  0.00    -0.112 OA 
BRANCH  29  30
HETATM   30  C   UNL     1      -6.976  10.836  67.322  1.00  0.00    -0.086 C  
HETATM   31  O   UNL     1      -5.845  10.438  67.565  1.00  0.00    -0.045 OA 
BRANCH  30  32
HETATM   32  C   UNL     1      -8.043  10.006  66.574  1.00  0.00    -0.119 C  
HETATM   33  N   UNL     1      -8.373   8.817  67.377  1.00  0.00    -0.109 N  
HETATM   34  C   UNL     1      -7.512   7.613  67.221  1.00  0.00    -0.100 C  
HETATM   35  S   UNL     1      -6.636   7.988  65.687  1.00  0.00    -0.041 S  
HETATM   36  C   UNL     1      -8.795   6.780  67.189  1.00  0.00    -0.119 C  
HETATM   37  O   UNL     1      -5.283   8.399  66.018  1.00  0.00    -0.027 OA 
HETATM   38  O   UNL     1      -6.866   6.941  64.712  1.00  0.00    -0.044 OA 
HETATM   39  C   UNL     1      -7.568   9.480  65.199  1.00  0.00    -0.112 C  
HETATM   40  C   UNL     1      -9.535   8.126  67.215  1.00  0.00    -0.155 C  
HETATM   41  C   UNL     1      -6.683  10.433  64.384  1.00  0.00    -0.000 C  
HETATM   42  C   UNL     1      -8.751   9.091  64.287  1.00  0.00    -0.140 C  
HETATM   43  O   UNL     1     -10.645   8.525  66.960  1.00  0.00    -0.306 OA 
ENDBRANCH  30  32
ENDBRANCH  29  30
ENDBRANCH  28  29
ENDBRANCH  27  28
ENDBRANCH  25  27
ENDBRANCH   7  25
TORSDOF 9
ENDMDL
MODEL      300
REMARK 921   NORMALIZED FREE ENERGY PREDICTED BY IDOCK:    0.46 KCAL/MOL
REMARK 922        TOTAL FREE ENERGY PREDICTED BY IDOCK:    0.19 KCAL/MOL
REMARK 923 INTER-LIGAND FREE ENERGY PREDICTED BY IDOCK:   -2.66 KCAL/MOL
REMARK 924 INTRA-LIGAND FREE ENERGY PREDICTED BY IDOCK:    2.86 KCAL/MOL
REMARK 927      BINDING AFFINITY PREDICTED BY RF-SCORE:    0.00 PKD
ROOT
HETATM    1  C   UNL     1      -9.230   6.129  66.688  1.00  0.00    -0.155 C  
HETATM    2  C   UNL     1      -8.944   7.624  66.940  1.00  0.00    -0.138 C  
HETATM    3  S   UNL     1      -7.998   7.729  68.533  1.00  0.00    -0.123 SA 
HETATM    4  C   UNL     1      -8.073   8.092  65.767  1.00  0.00    -0.121 C  
HETATM    5  C   UNL     1      -9.505   8.076  69.561  1.00  0.00    -0.160 C  
HETATM    6  C   UNL     1     -10.250   6.863  70.187  1.00  0.00    -0.192 C  
HETATM    7  C   UNL     1     -10.229   8.456  67.196  1.00  0.00    -0.292 C  
HETATM    8  C   UNL     1     -11.206   7.024  68.975  1.00  0.00     0.000 C  
HETATM    9  O   UNL     1     -12.032   6.343  68.412  1.00  0.00     0.775 OA 
HETATM   10  N   UNL     1     -10.609   8.188  68.590  1.00  0.00    -0.159 N  
ENDROOT
BRANCH   6  11
HETATM   11  N   UNL     1      -9.493   5.588  70.295  1.00  0.00    -0.159 N  
HETATM   12  C   UNL     1      -8.504   5.421  71.241  1.00  0.00    -0.126 C  
HETATM   13  O   UNL     1      -8.315   6.240  72.139  1.00  0.00    -0.110 OA 
HETATM   14  H   UNL     1      -9.709   4.821  69.657  1.00  0.00     0.000 HD 
BRANCH  12  15
HETATM   15  C   UNL     1      -7.635   4.155  71.069  1.00  0.00    -0.055 C  
HETATM   16  H2  UNL     1      -6.197   4.796  72.450  1.00  0.00     0.000 HD 
HETATM   17  N   UNL     1      -6.238   4.431  71.499  1.00  0.00    -0.017 NA 
HETATM   18  H1  UNL     1      -5.664   3.596  71.385  1.00  0.00     0.000 HD 
BRANCH  15  19
HETATM   19  C   UNL     1      -7.694   3.566  69.671  1.00  0.00    -0.051 A  
HETATM   20  C   UNL     1      -6.552   3.079  69.013  1.00  0.00    -0.033 A  
HETATM   21  C   UNL     1      -8.936   3.447  69.024  1.00  0.00    -0.185 A  
HETATM   22  C   UNL     1      -9.040   2.796  67.793  1.00  0.00    -0.223 A  
HETATM   23  C   UNL     1      -6.659   2.421  67.787  1.00  0.00    -0.035 A  
HETATM   24  C   UNL     1      -7.904   2.266  67.184  1.00  0.00    -0.066 A  
ENDBRANCH  15  19
ENDBRANCH  12  15
ENDBRANCH   6  11
BRANCH   7  25
HETATM   25  C   UNL     1     -10.052   9.987  67.087  1.00  0.00    -0.212 C  
HETATM   26  O   UNL     1     -10.803  10.827  67.575  1.00  0.00    -0.246 OA 
BRANCH  25  27
HETATM   27  O   UNL     1      -8.947  10.311  66.356  1.00  0.00    -0.145 OA 
BRANCH  27  28
HETATM   28  C   UNL     1      -8.171  11.387  66.891  1.00  0.00    -0.157 C  
BRANCH  28  29
HETATM   29  O   UNL     1      -8.770  11.907  68.074  1.00  0.00    -0.158 OA 
BRANCH  29  30
HETATM   30  C   UNL     1      -8.001  12.743  68.818  1.00  0.00     0.069 C  
HETATM   31  O   UNL     1      -7.505  12.453  69.898  1.00  0.00     0.766 OA 
BRANCH  30  32
HETATM   32  C   UNL     1      -7.804  14.103  68.114  1.00  0.00    -0.142 C  
HETATM   33  N   UNL     1      -7.230  15.060  69.074  1.00  0.00    -0.130 N  
HETATM   34  C   UNL     1      -8.168  15.800  69.962  1.00  0.00     0.569 C  
HETATM   35  S   UNL     1      -9.748  15.527  69.132  1.00  0.00    -0.268 S  
HETATM   36  C   UNL     1      -7.352  17.060  69.664  1.00  0.00     0.338 C  
HETATM   37  O   UNL     1     -10.492  14.526  69.877  1.00  0.00    -0.026 OA 
HETATM   38  O   UNL     1     -10.361  16.795  68.794  1.00  0.00    -0.276 OA 
HETATM   39  C   UNL     1      -9.122  14.737  67.609  1.00  0.00    -0.185 C  
HETATM   40  C   UNL     1      -6.567  16.182  68.679  1.00  0.00    -0.126 C  
HETATM   41  C   UNL     1     -10.159  13.762  67.035  1.00  0.00    -0.256 C  
HETATM   42  C   UNL     1      -8.875  15.805  66.522  1.00  0.00    -0.345 C  
HETATM   43  O   UNL     1      -5.830  16.356  67.739  1.00  0.00    -0.112 OA 
ENDBRANCH  30  32
ENDBRANCH  29  30
ENDBRANCH  28  29
ENDBRANCH  27  28
ENDBRANCH  25  27
ENDBRANCH   7  25
TORSDOF 9
ENDMDL
MODEL      301
REMARK 921   NORMALIZED FREE ENERGY PREDICTED BY IDOCK:    1.25 KCAL/MOL
REMARK 922        TOTAL FREE ENERGY PREDICTED BY IDOCK:    1.41 KCAL/MOL
REMARK 923 INTER-LIGAND FREE ENERGY PREDICTED BY IDOCK:   -5.85 KCAL/MOL
REMARK 924 INTRA-LIGAND FREE ENERGY PREDICTED BY IDOCK:    7.26 KCAL/MOL
REMARK 927      BINDING AFFINITY PREDICTED BY RF-SCORE:    0.00 PKD
ROOT
HETATM    1  C   UNL     1      -9.441  16.295  69.332  1.00  0.00    -0.161 C  
HETATM    2  C   UNL     1      -9.942  15.020  68.622  1.00  0.00    -0.220 C  
HETATM    3  S   UNL     1      -8.561  13.784  68.699  1.00  0.00     0.013 SA 
HETATM    4  C   UNL     1     -11.147  14.530  69.434  1.00  0.00    -0.297 C  
HETATM    5  C   UNL     1      -7.914  14.200  67.008  1.00  0.00     0.037 C  
HETATM    6  C   UNL     1      -6.812  15.292  66.903  1.00  0.00     0.510 C  
HETATM    7  C   UNL     1     -10.194  15.228  67.105  1.00  0.00    -0.252 C  
HETATM    8  C   UNL     1      -7.993  16.228  66.533  1.00  0.00    -0.291 C  
HETATM    9  O   UNL     1      -8.190  17.421  66.498  1.00  0.00    -0.237 OA 
HETATM   10  N   UNL     1      -8.870  15.185  66.469  1.00  0.00    -0.286 N  
ENDROOT
BRANCH   6  11
HETATM   11  N   UNL     1      -6.052  15.607  68.142  1.00  0.00    -0.119 N  
HETATM   12  C   UNL     1      -6.363  16.709  68.910  1.00  0.00    -0.164 C  
HETATM   13  O   UNL     1      -7.373  17.383  68.708  1.00  0.00    -0.240 OA 
HETATM   14  H   UNL     1      -5.288  14.997  68.430  1.00  0.00     0.000 HD 
BRANCH  12  15
HETATM   15  C   UNL     1      -5.337  17.054  70.013  1.00  0.00    -0.201 C  
HETATM   16  H2  UNL     1      -5.730  15.312  71.107  1.00  0.00     0.000 HD 
HETATM   17  N   UNL     1      -5.662  16.317  71.264  1.00  0.00     0.344 NA 
HETATM   18  H1  UNL     1      -4.985  16.544  71.992  1.00  0.00     0.000 HD 
BRANCH  15  19
HETATM   19  C   UNL     1      -5.187  18.546  70.254  1.00  0.00    -0.231 A  
HETATM   20  C   UNL     1      -5.141  19.475  69.201  1.00  0.00    -0.194 A  
HETATM   21  C   UNL     1      -5.150  19.032  71.572  1.00  0.00    -0.302 A  
HETATM   22  C   UNL     1      -5.140  20.406  71.826  1.00  0.00    -0.374 A  
HETATM   23  C   UNL     1      -5.140  20.847  69.457  1.00  0.00    -0.394 A  
HETATM   24  C   UNL     1      -5.155  21.312  70.768  1.00  0.00     0.003 A  
ENDBRANCH  15  19
ENDBRANCH  12  15
ENDBRANCH   6  11
BRANCH   7  25
HETATM   25  C   UNL     1     -11.032  14.124  66.422  1.00  0.00    -0.311 C  
HETATM   26  O   UNL     1     -11.517  14.193  65.296  1.00  0.00    -0.311 OA 
BRANCH  25  27
HETATM   27  O   UNL     1     -11.189  13.041  67.236  1.00  0.00    -0.267 OA 
BRANCH  27  28
HETATM   28  C   UNL     1      -9.996  12.283  67.458  1.00  0.00    -0.199 C  
BRANCH  28  29
HETATM   29  O   UNL     1     -10.232  10.893  67.255  1.00  0.00    -0.191 OA 
BRANCH  29  30
HETATM   30  C   UNL     1     -10.448  10.153  68.373  1.00  0.00    -0.208 C  
HETATM   31  O   UNL     1     -11.534   9.696  68.704  1.00  0.00     0.063 OA 
BRANCH  30  32
HETATM   32  C   UNL     1      -9.140   9.933  69.165  1.00  0.00    -0.173 C  
HETATM   33  N   UNL     1      -8.000  10.026  68.239  1.00  0.00    -0.096 N  
HETATM   34  C   UNL     1      -7.605   8.798  67.496  1.00  0.00    -0.093 C  
HETATM   35  S   UNL     1      -8.463   7.515  68.433  1.00  0.00    -0.125 S  
HETATM   36  C   UNL     1      -6.151   9.146  67.824  1.00  0.00    -0.050 C  
HETATM   37  O   UNL     1      -9.630   7.095  67.676  1.00  0.00    -0.128 OA 
HETATM   38  O   UNL     1      -7.515   6.535  68.923  1.00  0.00    -0.090 OA 
HETATM   39  C   UNL     1      -9.044   8.539  69.829  1.00  0.00    -0.153 C  
HETATM   40  C   UNL     1      -6.733  10.291  68.665  1.00  0.00    -0.053 C  
HETATM   41  C   UNL     1     -10.350   7.980  70.409  1.00  0.00    -0.206 C  
HETATM   42  C   UNL     1      -8.008   8.511  70.973  1.00  0.00    -0.132 C  
HETATM   43  O   UNL     1      -6.349  11.017  69.549  1.00  0.00    -0.070 OA 
ENDBRANCH  30  32
ENDBRANCH  29  30
ENDBRANCH  28  29
ENDBRANCH  27  28
ENDBRANCH  25  27
ENDBRANCH   7  25
TORSDOF 9
ENDMDL
MODEL      302
REMARK 921   NORMALIZED FREE ENERGY PREDICTED BY IDOCK:    1.92 KCAL/MOL
REMARK 922        TOTAL FREE ENERGY PREDICTED BY IDOCK:    2.42 KCAL/MOL
REMARK 923 INTER-LIGAND FREE ENERGY PREDICTED BY IDOCK:    0.82 KCAL/MOL
REMARK 924 INTRA-LIGAND FREE ENERGY PREDICTED BY IDOCK:    1.60 KCAL/MOL
REMARK 927      BINDING AFFINITY PREDICTED BY RF-SCORE:    0.00 PKD
ROOT
HETATM    1  C   UNL     1      -9.334  15.897  69.149  1.00  0.00    -0.252 C  
HETATM    2  C   UNL     1      -8.402  14.692  68.905  1.00  0.00    -0.142 C  
HETATM    3  S   UNL     1      -6.949  15.324  67.939  1.00  0.00    -0.163 SA 
HETATM    4  C   UNL     1      -7.956  14.214  70.292  1.00  0.00     1.571 C  
HETATM    5  C   UNL     1      -7.654  14.825  66.294  1.00  0.00     1.981 C  
HETATM    6  C   UNL     1      -8.508  15.872  65.525  1.00  0.00     1.448 C  
HETATM    7  C   UNL     1      -9.034  13.608  67.991  1.00  0.00    -0.188 C  
HETATM    8  C   UNL     1      -9.713  15.099  66.124  1.00  0.00    -0.310 C  
HETATM    9  O   UNL     1     -10.891  15.311  66.303  1.00  0.00    -0.311 OA 
HETATM   10  N   UNL     1      -8.906  14.117  66.619  1.00  0.00    -0.170 N  
ENDROOT
BRANCH   6  11
HETATM   11  N   UNL     1      -8.347  17.297  65.919  1.00  0.00    -0.097 N  
HETATM   12  C   UNL     1      -9.402  18.181  65.853  1.00  0.00     0.161 C  
HETATM   13  O   UNL     1     -10.554  17.808  65.630  1.00  0.00    -0.577 OA 
HETATM   14  H   UNL     1      -7.438  17.626  66.244  1.00  0.00     0.000 HD 
BRANCH  12  15
HETATM   15  C   UNL     1      -9.029  19.668  66.043  1.00  0.00    -0.243 C  
HETATM   16  H2  UNL     1     -11.015  20.320  65.911  1.00  0.00     0.000 HD 
HETATM   17  N   UNL     1     -10.107  20.540  65.503  1.00  0.00    -0.386 NA 
HETATM   18  H1  UNL     1      -9.860  21.521  65.628  1.00  0.00     0.000 HD 
BRANCH  15  19
HETATM   19  C   UNL     1      -7.668  20.027  65.472  1.00  0.00    -0.066 A  
HETATM   20  C   UNL     1      -7.507  20.516  64.165  1.00  0.00     1.238 A  
HETATM   21  C   UNL     1      -6.529  19.925  66.289  1.00  0.00    -0.216 A  
HETATM   22  C   UNL     1      -5.283  20.366  65.835  1.00  0.00    -0.196 A  
HETATM   23  C   UNL     1      -6.265  20.964  63.716  1.00  0.00    -0.327 A  
HETATM   24  C   UNL     1      -5.156  20.903  64.555  1.00  0.00    -0.231 A  
ENDBRANCH  15  19
ENDBRANCH  12  15
ENDBRANCH   6  11
BRANCH   7  25
HETATM   25  C   UNL     1      -8.320  12.238  68.008  1.00  0.00    -0.165 C  
HETATM   26  O   UNL     1      -7.164  12.033  67.652  1.00  0.00    -0.098 OA 
BRANCH  25  27
HETATM   27  O   UNL     1      -9.145  11.252  68.464  1.00  0.00    -0.168 OA 
BRANCH  27  28
HETATM   28  C   UNL     1      -9.514  10.280  67.481  1.00  0.00    -0.152 C  
BRANCH  28  29
HETATM   29  O   UNL     1     -10.661   9.545  67.897  1.00  0.00    -0.250 OA 
BRANCH  29  30
HETATM   30  C   UNL     1     -10.666   8.221  67.598  1.00  0.00    -0.125 C  
HETATM   31  O   UNL     1     -11.566   7.648  66.999  1.00  0.00     0.906 OA 
BRANCH  30  32
HETATM   32  C   UNL     1      -9.375   7.528  68.086  1.00  0.00    -0.136 C  
HETATM   33  N   UNL     1      -8.387   7.536  66.995  1.00  0.00    -0.120 N  
HETATM   34  C   UNL     1      -8.447   6.435  65.996  1.00  0.00    -0.144 C  
HETATM   35  S   UNL     1      -9.490   5.230  66.845  1.00  0.00    -0.147 S  
HETATM   36  C   UNL     1      -6.923   6.342  66.104  1.00  0.00    -0.066 C  
HETATM   37  O   UNL     1     -10.818   5.274  66.256  1.00  0.00    -0.285 OA 
HETATM   38  O   UNL     1      -8.790   3.968  66.978  1.00  0.00    -0.112 OA 
HETATM   39  C   UNL     1      -9.576   6.045  68.476  1.00  0.00    -0.121 C  
HETATM   40  C   UNL     1      -7.051   7.389  67.219  1.00  0.00    -0.084 C  
HETATM   41  C   UNL     1     -10.895   5.709  69.185  1.00  0.00    -0.281 C  
HETATM   42  C   UNL     1      -8.443   5.525  69.388  1.00  0.00    -0.105 C  
HETATM   43  O   UNL     1      -6.368   7.796  68.127  1.00  0.00    -0.046 OA 
ENDBRANCH  30  32
ENDBRANCH  29  30
ENDBRANCH  28  29
ENDBRANCH  27  28
ENDBRANCH  25  27
ENDBRANCH   7  25
TORSDOF 9
ENDMDL
MODEL      303
REMARK 921   NORMALIZED FREE ENERGY PREDICTED BY IDOCK:    2.05 KCAL/MOL
REMARK 922        TOTAL FREE ENERGY PREDICTED BY IDOCK:    2.63 KCAL/MOL
REMARK 923 INTER-LIGAND FREE ENERGY PREDICTED BY IDOCK:   -5.26 KCAL/MOL
REMARK 924 INTRA-LIGAND FREE ENERGY PREDICTED BY IDOCK:    7.89 KCAL/MOL
REMARK 927      BINDING AFFINITY PREDICTED BY RF-SCORE:    0.00 PKD
ROOT
HETATM    1  C   UNL     1      -9.788   9.368  66.623  1.00  0.00    -0.309 C  
HETATM    2  C   UNL     1      -8.330   9.323  67.127  1.00  0.00    -0.124 C  
HETATM    3  S   UNL     1      -7.428  10.707  66.281  1.00  0.00    -0.138 SA 
HETATM    4  C   UNL     1      -8.397   9.571  68.638  1.00  0.00    -0.117 C  
HETATM    5  C   UNL     1      -6.757   9.624  64.930  1.00  0.00    -0.104 C  
HETATM    6  C   UNL     1      -7.593   9.491  63.625  1.00  0.00    -0.119 C  
HETATM    7  C   UNL     1      -7.574   8.041  66.688  1.00  0.00    -0.093 C  
HETATM    8  C   UNL     1      -8.085   8.163  64.260  1.00  0.00    -0.127 C  
HETATM    9  O   UNL     1      -9.010   7.401  64.095  1.00  0.00     0.699 OA 
HETATM   10  N   UNL     1      -7.191   8.260  65.287  1.00  0.00    -0.077 N  
ENDROOT
BRANCH   6  11
HETATM   11  N   UNL     1      -8.612  10.543  63.367  1.00  0.00    -0.192 N  
HETATM   12  C   UNL     1      -9.765  10.622  64.119  1.00  0.00    -0.320 C  
HETATM   13  O   UNL     1      -9.931   9.946  65.134  1.00  0.00    -0.318 OA 
HETATM   14  H   UNL     1      -8.456  11.219  62.619  1.00  0.00     0.000 HD 
BRANCH  12  15
HETATM   15  C   UNL     1     -10.840  11.590  63.577  1.00  0.00    -0.398 C  
HETATM   16  H2  UNL     1      -9.974  11.695  61.673  1.00  0.00     0.000 HD 
HETATM   17  N   UNL     1     -10.317  12.328  62.395  1.00  0.00     0.646 NA 
HETATM   18  H1  UNL     1     -11.027  12.966  62.037  1.00  0.00     0.000 HD 
BRANCH  15  19
HETATM   19  C   UNL     1     -11.396  12.529  64.633  1.00  0.00    -0.363 A  
HETATM   20  C   UNL     1     -12.758  12.869  64.693  1.00  0.00    -0.403 A  
HETATM   21  C   UNL     1     -10.540  13.037  65.625  1.00  0.00    -0.297 A  
HETATM   22  C   UNL     1     -11.044  13.800  66.681  1.00  0.00    -0.316 A  
HETATM   23  C   UNL     1     -13.262  13.624  65.753  1.00  0.00     0.230 A  
HETATM   24  C   UNL     1     -12.408  14.076  66.755  1.00  0.00    -0.368 A  
ENDBRANCH  15  19
ENDBRANCH  12  15
ENDBRANCH   6  11
BRANCH   7  25
HETATM   25  C   UNL     1      -6.259   7.761  67.452  1.00  0.00    -0.054 C  
HETATM   26  O   UNL     1      -5.156   8.210  67.156  1.00  0.00    -0.027 OA 
BRANCH  25  27
HETATM   27  O   UNL     1      -6.466   6.926  68.510  1.00  0.00    -0.033 OA 
BRANCH  27  28
HETATM   28  C   UNL     1      -7.693   6.193  68.463  1.00  0.00    -0.100 C  
BRANCH  28  29
HETATM   29  O   UNL     1      -8.310   6.151  69.746  1.00  0.00    -0.120 OA 
BRANCH  29  30
HETATM   30  C   UNL     1      -9.162   5.118  69.968  1.00  0.00    -0.134 C  
HETATM   31  O   UNL     1      -9.405   4.232  69.159  1.00  0.00    -0.133 OA 
BRANCH  30  32
HETATM   32  C   UNL     1      -9.770   5.183  71.387  1.00  0.00    -0.168 C  
HETATM   33  N   UNL     1     -10.777   6.256  71.426  1.00  0.00    -0.239 N  
HETATM   34  C   UNL     1     -10.308   7.641  71.703  1.00  0.00    -0.189 C  
HETATM   35  S   UNL     1      -8.652   7.340  72.356  1.00  0.00    -0.117 S  
HETATM   36  C   UNL     1     -11.496   7.783  72.657  1.00  0.00    -0.430 C  
HETATM   37  O   UNL     1      -7.683   7.664  71.323  1.00  0.00    -0.082 OA 
HETATM   38  O   UNL     1      -8.527   7.909  73.683  1.00  0.00    -0.191 OA 
HETATM   39  C   UNL     1      -8.738   5.521  72.488  1.00  0.00    -0.124 C  
HETATM   40  C   UNL     1     -11.761   6.299  72.367  1.00  0.00    -0.257 C  
HETATM   41  C   UNL     1      -7.346   4.895  72.319  1.00  0.00    -0.083 C  
HETATM   42  C   UNL     1      -9.234   5.115  73.893  1.00  0.00    -0.124 C  
HETATM   43  O   UNL     1     -12.387   5.401  72.876  1.00  0.00    -0.046 OA 
ENDBRANCH  30  32
ENDBRANCH  29  30
ENDBRANCH  28  29
ENDBRANCH  27  28
ENDBRANCH  25  27
ENDBRANCH   7  25
TORSDOF 9
ENDMDL
MODEL      304
REMARK 921   NORMALIZED FREE ENERGY PREDICTED BY IDOCK:    2.62 KCAL/MOL
REMARK 922        TOTAL FREE ENERGY PREDICTED BY IDOCK:    3.49 KCAL/MOL
REMARK 923 INTER-LIGAND FREE ENERGY PREDICTED BY IDOCK:    0.58 KCAL/MOL
REMARK 924 INTRA-LIGAND FREE ENERGY PREDICTED BY IDOCK:    2.91 KCAL/MOL
REMARK 927      BINDING AFFINITY PREDICTED BY RF-SCORE:    0.00 PKD
ROOT
HETATM    1  C   UNL     1     -13.352  13.469  67.615  1.00  0.00     4.523 C  
HETATM    2  C   UNL     1     -11.873  13.814  67.338  1.00  0.00    -0.396 C  
HETATM    3  S   UNL     1     -10.851  12.551  68.233  1.00  0.00    -0.246 SA 
HETATM    4  C   UNL     1     -11.684  13.682  65.822  1.00  0.00    -0.369 C  
HETATM    5  C   UNL     1     -10.588  13.623  69.727  1.00  0.00     0.519 C  
HETATM    6  C   UNL     1     -11.605  13.499  70.896  1.00  0.00     0.519 C  
HETATM    7  C   UNL     1     -11.440  15.171  67.954  1.00  0.00    -0.332 C  
HETATM    8  C   UNL     1     -12.247  14.764  70.267  1.00  0.00    -0.338 C  
HETATM    9  O   UNL     1     -13.312  15.334  70.333  1.00  0.00    -0.222 OA 
HETATM   10  N   UNL     1     -11.219  14.911  69.383  1.00  0.00    -0.268 N  
ENDROOT
BRANCH   6  11
HETATM   11  N   UNL     1     -12.434  12.264  70.942  1.00  0.00    -0.342 N  
HETATM   12  C   UNL     1     -11.880  11.023  70.714  1.00  0.00    -0.278 C  
HETATM   13  O   UNL     1     -10.664  10.855  70.629  1.00  0.00     0.319 OA 
HETATM   14  H   UNL     1     -13.430  12.337  71.146  1.00  0.00     0.000 HD 
BRANCH  12  15
HETATM   15  C   UNL     1     -12.894   9.871  70.538  1.00  0.00    -0.047 C  
HETATM   16  H2  UNL     1     -14.508  11.010  71.233  1.00  0.00     0.000 HD 
HETATM   17  N   UNL     1     -14.084  10.099  71.402  1.00  0.00     0.328 NA 
HETATM   18  H1  UNL     1     -14.753   9.339  71.286  1.00  0.00     0.000 HD 
BRANCH  15  19
HETATM   19  C   UNL     1     -12.290   8.495  70.754  1.00  0.00     0.047 A  
HETATM   20  C   UNL     1     -12.675   7.664  71.820  1.00  0.00    -0.356 A  
HETATM   21  C   UNL     1     -11.354   7.999  69.830  1.00  0.00     0.052 A  
HETATM   22  C   UNL     1     -10.875   6.690  69.931  1.00  0.00    -0.329 A  
HETATM   23  C   UNL     1     -12.203   6.355  71.915  1.00  0.00    -0.332 A  
HETATM   24  C   UNL     1     -11.315   5.863  70.962  1.00  0.00    -0.221 A  
ENDBRANCH  15  19
ENDBRANCH  12  15
ENDBRANCH   6  11
BRANCH   7  25
HETATM   25  C   UNL     1     -10.109  15.742  67.412  1.00  0.00    -0.246 C  
HETATM   26  O   UNL     1      -9.495  16.691  67.890  1.00  0.00    -0.222 OA 
BRANCH  25  27
HETATM   27  O   UNL     1      -9.690  15.064  66.305  1.00  0.00    -0.256 OA 
BRANCH  27  28
HETATM   28  C   UNL     1      -8.335  14.609  66.361  1.00  0.00     0.415 C  
BRANCH  28  29
HETATM   29  O   UNL     1      -8.205  13.507  67.254  1.00  0.00    -0.177 OA 
BRANCH  29  30
HETATM   30  C   UNL     1      -8.445  12.279  66.729  1.00  0.00    -0.119 C  
HETATM   31  O   UNL     1      -8.825  12.075  65.584  1.00  0.00     0.060 OA 
BRANCH  30  32
HETATM   32  C   UNL     1      -8.149  11.161  67.753  1.00  0.00    -0.117 C  
HETATM   33  N   UNL     1      -6.890  11.471  68.449  1.00  0.00    -0.065 N  
HETATM   34  C   UNL     1      -5.617  11.044  67.808  1.00  0.00    -0.039 C  
HETATM   35  S   UNL     1      -6.208   9.855  66.584  1.00  0.00    -0.070 S  
HETATM   36  C   UNL     1      -5.159  10.563  69.187  1.00  0.00    -0.038 C  
HETATM   37  O   UNL     1      -6.170  10.484  65.275  1.00  0.00    -0.126 OA 
HETATM   38  O   UNL     1      -5.580   8.566  66.796  1.00  0.00    -0.035 OA 
HETATM   39  C   UNL     1      -7.954   9.767  67.110  1.00  0.00    -0.102 C  
HETATM   40  C   UNL     1      -6.573  10.932  69.659  1.00  0.00    -0.123 C  
HETATM   41  C   UNL     1      -8.866   9.442  65.920  1.00  0.00    -0.193 C  
HETATM   42  C   UNL     1      -8.142   8.625  68.132  1.00  0.00    -0.115 C  
HETATM   43  O   UNL     1      -7.280  10.676  70.603  1.00  0.00    -0.078 OA 
ENDBRANCH  30  32
ENDBRANCH  29  30
ENDBRANCH  28  29
ENDBRANCH  27  28
ENDBRANCH  25  27
ENDBRANCH   7  25
TORSDOF 9
ENDMDL
MODEL      305
REMARK 921   NORMALIZED FREE ENERGY PREDICTED BY IDOCK:    2.66 KCAL/MOL
REMARK 922        TOTAL FREE ENERGY PREDICTED BY IDOCK:    3.56 KCAL/MOL
REMARK 923 INTER-LIGAND FREE ENERGY PREDICTED BY IDOCK:    1.17 KCAL/MOL
REMARK 924 INTRA-LIGAND FREE ENERGY PREDICTED BY IDOCK:    2.39 KCAL/MOL
REMARK 927      BINDING AFFINITY PREDICTED BY RF-SCORE:    0.00 PKD
ROOT
HETATM    1  C   UNL     1      -8.876   8.623  71.447  1.00  0.00    -0.276 C  
HETATM    2  C   UNL     1      -7.763   9.060  70.472  1.00  0.00    -0.119 C  
HETATM    3  S   UNL     1      -8.127  10.815  69.994  1.00  0.00     0.950 SA 
HETATM    4  C   UNL     1      -6.452   8.980  71.263  1.00  0.00    -0.085 C  
HETATM    5  C   UNL     1      -9.005  10.348  68.426  1.00  0.00    -0.137 C  
HETATM    6  C   UNL     1     -10.545  10.141  68.492  1.00  0.00    -0.216 C  
HETATM    7  C   UNL     1      -7.787   8.279  69.131  1.00  0.00    -0.106 C  
HETATM    8  C   UNL     1     -10.182   8.635  68.578  1.00  0.00    -0.195 C  
HETATM    9  O   UNL     1     -10.738   7.616  68.919  1.00  0.00    -0.188 OA 
HETATM   10  N   UNL     1      -8.863   8.883  68.334  1.00  0.00    -0.134 N  
ENDROOT
BRANCH   6  11
HETATM   11  N   UNL     1     -11.257  10.739  69.653  1.00  0.00    -0.269 N  
HETATM   12  C   UNL     1     -11.448  12.101  69.750  1.00  0.00    -0.188 C  
HETATM   13  O   UNL     1     -11.194  12.864  68.819  1.00  0.00    -0.249 OA 
HETATM   14  H   UNL     1     -11.612  10.131  70.391  1.00  0.00     0.000 HD 
BRANCH  12  15
HETATM   15  C   UNL     1     -11.967  12.598  71.118  1.00  0.00     0.493 C  
HETATM   16  H2  UNL     1     -13.403  11.081  71.271  1.00  0.00     0.000 HD 
HETATM   17  N   UNL     1     -13.347  12.096  71.355  1.00  0.00    -0.066 NA 
HETATM   18  H1  UNL     1     -13.690  12.424  72.258  1.00  0.00     0.000 HD 
BRANCH  15  19
HETATM   19  C   UNL     1     -11.871  14.103  71.290  1.00  0.00    -0.139 A  
HETATM   20  C   UNL     1     -12.168  14.998  70.248  1.00  0.00    -0.390 A  
HETATM   21  C   UNL     1     -11.531  14.634  72.546  1.00  0.00     0.334 A  
HETATM   22  C   UNL     1     -11.558  16.013  72.768  1.00  0.00    -0.316 A  
HETATM   23  C   UNL     1     -12.203  16.375  70.475  1.00  0.00     0.598 A  
HETATM   24  C   UNL     1     -11.912  16.881  71.738  1.00  0.00     0.827 A  
ENDBRANCH  15  19
ENDBRANCH  12  15
ENDBRANCH   6  11
BRANCH   7  25
HETATM   25  C   UNL     1      -6.503   8.400  68.278  1.00  0.00    -0.059 C  
HETATM   26  O   UNL     1      -5.363   8.500  68.720  1.00  0.00    -0.034 OA 
BRANCH  25  27
HETATM   27  O   UNL     1      -6.789   8.397  66.944  1.00  0.00    -0.067 OA 
BRANCH  27  28
HETATM   28  C   UNL     1      -6.519   7.159  66.278  1.00  0.00    -0.051 C  
BRANCH  28  29
HETATM   29  O   UNL     1      -7.344   6.117  66.790  1.00  0.00    -0.076 OA 
BRANCH  29  30
HETATM   30  C   UNL     1      -6.938   4.848  66.527  1.00  0.00    -0.067 C  
HETATM   31  O   UNL     1      -5.770   4.506  66.400  1.00  0.00    -0.020 OA 
BRANCH  30  32
HETATM   32  C   UNL     1      -8.137   3.880  66.437  1.00  0.00    -0.097 C  
HETATM   33  N   UNL     1      -8.502   3.701  65.022  1.00  0.00    -0.103 N  
HETATM   34  C   UNL     1      -9.425   4.697  64.412  1.00  0.00    -0.002 C  
HETATM   35  S   UNL     1     -10.106   5.506  65.875  1.00  0.00     0.140 S  
HETATM   36  C   UNL     1     -10.164   3.521  63.770  1.00  0.00    -0.223 C  
HETATM   37  O   UNL     1      -9.472   6.805  66.020  1.00  0.00    -0.070 OA 
HETATM   38  O   UNL     1     -11.551   5.392  65.882  1.00  0.00     0.550 OA 
HETATM   39  C   UNL     1      -9.409   4.399  67.148  1.00  0.00    -0.155 C  
HETATM   40  C   UNL     1      -9.215   2.628  64.582  1.00  0.00    -0.136 C  
HETATM   41  C   UNL     1      -9.181   5.157  68.464  1.00  0.00    -0.145 C  
HETATM   42  C   UNL     1     -10.404   3.262  67.463  1.00  0.00     1.776 C  
HETATM   43  O   UNL     1      -9.182   1.475  64.939  1.00  0.00    -0.122 OA 
ENDBRANCH  30  32
ENDBRANCH  29  30
ENDBRANCH  28  29
ENDBRANCH  27  28
ENDBRANCH  25  27
ENDBRANCH   7  25
TORSDOF 9
ENDMDL
MODEL      306
REMARK 921   NORMALIZED FREE ENERGY PREDICTED BY IDOCK:    2.67 KCAL/MOL
REMARK 922        TOTAL FREE ENERGY PREDICTED BY IDOCK:    3.57 KCAL/MOL
REMARK 923 INTER-LIGAND FREE ENERGY PREDICTED BY IDOCK:    2.29 KCAL/MOL
REMARK 924 INTRA-LIGAND FREE ENERGY PREDICTED BY IDOCK:    1.27 KCAL/MOL
REMARK 927      BINDING AFFINITY PREDICTED BY RF-SCORE:    0.00 PKD
ROOT
HETATM    1  C   UNL     1      -6.825   9.139  65.051  1.00  0.00    -0.080 C  
HETATM    2  C   UNL     1      -7.702   8.174  65.876  1.00  0.00    -0.091 C  
HETATM    3  S   UNL     1      -9.364   8.978  66.052  1.00  0.00    -0.252 SA 
HETATM    4  C   UNL     1      -7.812   6.889  65.047  1.00  0.00    -0.121 C  
HETATM    5  C   UNL     1      -8.987   9.703  67.720  1.00  0.00    -0.118 C  
HETATM    6  C   UNL     1      -8.388  11.137  67.768  1.00  0.00    -0.123 C  
HETATM    7  C   UNL     1      -7.201   7.992  67.334  1.00  0.00    -0.088 C  
HETATM    8  C   UNL     1      -7.034  10.397  67.933  1.00  0.00    -0.082 C  
HETATM    9  O   UNL     1      -5.862  10.672  67.806  1.00  0.00    -0.044 OA 
HETATM   10  N   UNL     1      -7.649   9.186  68.063  1.00  0.00    -0.084 N  
ENDROOT
BRANCH   6  11
HETATM   11  N   UNL     1      -8.562  11.982  66.557  1.00  0.00    -0.340 N  
HETATM   12  C   UNL     1      -9.269  13.164  66.605  1.00  0.00    -0.215 C  
HETATM   13  O   UNL     1      -9.644  13.658  67.668  1.00  0.00    -0.210 OA 
HETATM   14  H   UNL     1      -8.149  11.682  65.673  1.00  0.00     0.000 HD 
BRANCH  12  15
HETATM   15  C   UNL     1      -9.586  13.799  65.233  1.00  0.00     0.152 C  
HETATM   16  H2  UNL     1      -9.445  15.758  65.959  1.00  0.00     0.000 HD 
HETATM   17  N   UNL     1     -10.090  15.187  65.414  1.00  0.00    -0.352 NA 
HETATM   18  H1  UNL     1     -10.299  15.606  64.508  1.00  0.00     0.000 HD 
BRANCH  15  19
HETATM   19  C   UNL     1     -10.522  12.960  64.380  1.00  0.00    -0.419 A  
HETATM   20  C   UNL     1     -10.121  11.745  63.800  1.00  0.00    -0.421 A  
HETATM   21  C   UNL     1     -11.853  13.374  64.206  1.00  0.00    -0.470 A  
HETATM   22  C   UNL     1     -12.770  12.561  63.534  1.00  0.00    -0.366 A  
HETATM   23  C   UNL     1     -11.040  10.931  63.137  1.00  0.00     0.608 A  
HETATM   24  C   UNL     1     -12.368  11.332  63.017  1.00  0.00     0.717 A  
ENDBRANCH  15  19
ENDBRANCH  12  15
ENDBRANCH   6  11
BRANCH   7  25
HETATM   25  C   UNL     1      -7.799   6.782  68.086  1.00  0.00    -0.113 C  
HETATM   26  O   UNL     1      -7.189   5.761  68.391  1.00  0.00    -0.075 OA 
BRANCH  25  27
HETATM   27  O   UNL     1      -9.119   6.974  68.371  1.00  0.00    -0.129 OA 
BRANCH  27  28
HETATM   28  C   UNL     1      -9.407   7.189  69.756  1.00  0.00    -0.146 C  
BRANCH  28  29
HETATM   29  O   UNL     1     -10.492   6.371  70.182  1.00  0.00    -0.195 OA 
BRANCH  29  30
HETATM   30  C   UNL     1     -11.203   6.825  71.246  1.00  0.00    -0.276 C  
HETATM   31  O   UNL     1     -12.110   7.643  71.177  1.00  0.00    -0.308 OA 
BRANCH  30  32
HETATM   32  C   UNL     1     -10.741   6.156  72.559  1.00  0.00    -0.224 C  
HETATM   33  N   UNL     1      -9.336   5.741  72.416  1.00  0.00    -0.144 N  
HETATM   34  C   UNL     1      -9.062   4.417  71.795  1.00  0.00    -0.127 C  
HETATM   35  S   UNL     1     -10.684   3.629  71.889  1.00  0.00     0.725 S  
HETATM   36  C   UNL     1      -8.030   4.184  72.900  1.00  0.00    -0.085 C  
HETATM   37  O   UNL     1     -11.287   3.657  70.567  1.00  0.00     3.988 OA 
HETATM   38  O   UNL     1     -10.593   2.385  72.626  1.00  0.00    -0.153 OA 
HETATM   39  C   UNL     1     -11.533   4.876  72.916  1.00  0.00    -0.182 C  
HETATM   40  C   UNL     1      -8.528   5.512  73.489  1.00  0.00    -0.112 C  
HETATM   41  C   UNL     1     -13.036   4.908  72.603  1.00  0.00     1.368 C  
HETATM   42  C   UNL     1     -11.403   4.510  74.410  1.00  0.00     0.994 C  
HETATM   43  O   UNL     1      -8.475   6.078  74.553  1.00  0.00    -0.114 OA 
ENDBRANCH  30  32
ENDBRANCH  29  30
ENDBRANCH  28  29
ENDBRANCH  27  28
ENDBRANCH  25  27
ENDBRANCH   7  25
TORSDOF 9
ENDMDL
MODEL      307
REMARK 921   NORMALIZED FREE ENERGY PREDICTED BY IDOCK:    3.21 KCAL/MOL
REMARK 922        TOTAL FREE ENERGY PREDICTED BY IDOCK:    4.40 KCAL/MOL
REMARK 923 INTER-LIGAND FREE ENERGY PREDICTED BY IDOCK:    1.82 KCAL/MOL
REMARK 924 INTRA-LIGAND FREE ENERGY PREDICTED BY IDOCK:    2.58 KCAL/MOL
REMARK 927      BINDING AFFINITY PREDICTED BY RF-SCORE:    0.00 PKD
ROOT
HETATM    1  C   UNL     1      -9.197  12.079  68.135  1.00  0.00    -0.195 C  
HETATM    2  C   UNL     1      -8.260  11.383  67.126  1.00  0.00    -0.157 C  
HETATM    3  S   UNL     1      -8.487  12.247  65.500  1.00  0.00     1.332 SA 
HETATM    4  C   UNL     1      -6.836  11.598  67.653  1.00  0.00    -0.094 C  
HETATM    5  C   UNL     1      -9.721  11.013  64.863  1.00  0.00    -0.254 C  
HETATM    6  C   UNL     1     -11.228  11.295  65.122  1.00  0.00    -0.001 C  
HETATM    7  C   UNL     1      -8.657   9.910  66.842  1.00  0.00    -0.128 C  
HETATM    8  C   UNL     1     -11.050  10.305  66.304  1.00  0.00     0.354 C  
HETATM    9  O   UNL     1     -11.649  10.033  67.319  1.00  0.00     0.087 OA 
HETATM   10  N   UNL     1      -9.788   9.973  65.906  1.00  0.00    -0.246 N  
ENDROOT
BRANCH   6  11
HETATM   11  N   UNL     1     -11.605  12.694  65.454  1.00  0.00    -0.344 N  
HETATM   12  C   UNL     1     -10.962  13.766  64.873  1.00  0.00    -0.375 C  
HETATM   13  O   UNL     1     -10.171  13.626  63.941  1.00  0.00    -0.030 OA 
HETATM   14  H   UNL     1     -12.355  12.865  66.125  1.00  0.00     0.000 HD 
BRANCH  12  15
HETATM   15  C   UNL     1     -11.277  15.143  65.499  1.00  0.00    -0.320 C  
HETATM   16  H2  UNL     1     -12.378  15.792  63.841  1.00  0.00     0.000 HD 
HETATM   17  N   UNL     1     -11.619  16.124  64.434  1.00  0.00    -0.734 NA 
HETATM   18  H1  UNL     1     -11.827  17.032  64.848  1.00  0.00     0.000 HD 
BRANCH  15  19
HETATM   19  C   UNL     1     -10.180  15.656  66.415  1.00  0.00    -0.300 A  
HETATM   20  C   UNL     1      -9.561  14.839  67.376  1.00  0.00    -0.210 A  
HETATM   21  C   UNL     1      -9.718  16.975  66.267  1.00  0.00    -0.302 A  
HETATM   22  C   UNL     1      -8.626  17.436  67.007  1.00  0.00    -0.250 A  
HETATM   23  C   UNL     1      -8.465  15.298  68.108  1.00  0.00    -0.151 A  
HETATM   24  C   UNL     1      -7.989  16.591  67.913  1.00  0.00    -0.165 A  
ENDBRANCH  15  19
ENDBRANCH  12  15
ENDBRANCH   6  11
BRANCH   7  25
HETATM   25  C   UNL     1      -7.570   9.061  66.144  1.00  0.00    -0.095 C  
HETATM   26  O   UNL     1      -7.109   9.274  65.027  1.00  0.00    -0.093 OA 
BRANCH  25  27
HETATM   27  O   UNL     1      -7.180   8.012  66.924  1.00  0.00    -0.079 OA 
BRANCH  27  28
HETATM   28  C   UNL     1      -7.702   6.742  66.523  1.00  0.00    -0.102 C  
BRANCH  28  29
HETATM   29  O   UNL     1      -8.854   6.401  67.289  1.00  0.00    -0.110 OA 
BRANCH  29  30
HETATM   30  C   UNL     1      -8.623   5.934  68.543  1.00  0.00    -0.110 C  
HETATM   31  O   UNL     1      -8.122   6.591  69.446  1.00  0.00    -0.115 OA 
BRANCH  30  32
HETATM   32  C   UNL     1      -9.100   4.474  68.697  1.00  0.00    -0.120 C  
HETATM   33  N   UNL     1      -9.457   4.233  70.104  1.00  0.00    -0.163 N  
HETATM   34  C   UNL     1      -8.369   3.842  71.041  1.00  0.00    -0.068 C  
HETATM   35  S   UNL     1      -7.059   3.361  69.896  1.00  0.00    -0.041 S  
HETATM   36  C   UNL     1      -9.322   2.786  71.604  1.00  0.00    -0.194 C  
HETATM   37  O   UNL     1      -6.071   4.426  69.853  1.00  0.00    -0.017 OA 
HETATM   38  O   UNL     1      -6.651   1.994  70.147  1.00  0.00    -0.028 OA 
HETATM   39  C   UNL     1      -8.017   3.427  68.343  1.00  0.00    -0.065 C  
HETATM   40  C   UNL     1     -10.281   3.218  70.486  1.00  0.00     0.768 C  
HETATM   41  C   UNL     1      -7.108   3.776  67.156  1.00  0.00    -0.063 C  
HETATM   42  C   UNL     1      -8.626   2.042  68.037  1.00  0.00    -0.105 C  
HETATM   43  O   UNL     1     -11.256   2.764  69.938  1.00  0.00     5.105 OA 
ENDBRANCH  30  32
ENDBRANCH  29  30
ENDBRANCH  28  29
ENDBRANCH  27  28
ENDBRANCH  25  27
ENDBRANCH   7  25
TORSDOF 9
ENDMDL
MODEL      308
REMARK 921   NORMALIZED FREE ENERGY PREDICTED BY IDOCK:    4.24 KCAL/MOL
REMARK 922        TOTAL FREE ENERGY PREDICTED BY IDOCK:    5.96 KCAL/MOL
REMARK 923 INTER-LIGAND FREE ENERGY PREDICTED BY IDOCK:   -0.02 KCAL/MOL
REMARK 924 INTRA-LIGAND FREE ENERGY PREDICTED BY IDOCK:    5.98 KCAL/MOL
REMARK 927      BINDING AFFINITY PREDICTED BY RF-SCORE:    0.00 PKD
ROOT
HETATM    1  C   UNL     1      -8.759   9.616  66.770  1.00  0.00    -0.144 C  
HETATM    2  C   UNL     1      -9.042   8.784  68.038  1.00  0.00    -0.140 C  
HETATM    3  S   UNL     1     -10.308   9.718  69.021  1.00  0.00    -0.218 SA 
HETATM    4  C   UNL     1      -9.620   7.450  67.549  1.00  0.00    -0.171 C  
HETATM    5  C   UNL     1      -9.051  10.540  70.114  1.00  0.00     0.680 C  
HETATM    6  C   UNL     1      -8.501  11.925  69.671  1.00  0.00     1.486 C  
HETATM    7  C   UNL     1      -7.816   8.679  68.984  1.00  0.00    -0.100 C  
HETATM    8  C   UNL     1      -7.300  11.104  69.134  1.00  0.00    -0.115 C  
HETATM    9  O   UNL     1      -6.394  11.282  68.352  1.00  0.00    -0.046 OA 
HETATM   10  N   UNL     1      -7.759   9.955  69.709  1.00  0.00    -0.138 N  
ENDROOT
BRANCH   6  11
HETATM   11  N   UNL     1      -9.307  12.686  68.679  1.00  0.00    -0.402 N  
HETATM   12  C   UNL     1      -8.922  12.767  67.357  1.00  0.00    -0.195 C  
HETATM   13  O   UNL     1      -8.002  12.090  66.902  1.00  0.00    -0.162 OA 
HETATM   14  H   UNL     1     -10.161  13.155  68.981  1.00  0.00     0.000 HD 
BRANCH  12  15
HETATM   15  C   UNL     1      -9.704  13.792  66.506  1.00  0.00    -0.293 C  
HETATM   16  H2  UNL     1      -8.081  14.175  65.239  1.00  0.00     0.000 HD 
HETATM   17  N   UNL     1      -8.759  14.695  65.795  1.00  0.00     0.143 NA 
HETATM   18  H1  UNL     1      -9.274  15.372  65.233  1.00  0.00     0.000 HD 
BRANCH  15  19
HETATM   19  C   UNL     1     -10.744  14.566  67.296  1.00  0.00    -0.287 A  
HETATM   20  C   UNL     1     -11.311  14.066  68.481  1.00  0.00    -0.308 A  
HETATM   21  C   UNL     1     -11.120  15.851  66.869  1.00  0.00    -0.082 A  
HETATM   22  C   UNL     1     -11.979  16.637  67.642  1.00  0.00     1.119 A  
HETATM   23  C   UNL     1     -12.161  14.856  69.256  1.00  0.00    -0.221 A  
HETATM   24  C   UNL     1     -12.483  16.146  68.844  1.00  0.00     0.832 A  
ENDBRANCH  15  19
ENDBRANCH  12  15
ENDBRANCH   6  11
BRANCH   7  25
HETATM   25  C   UNL     1      -7.913   7.577  70.063  1.00  0.00    -0.112 C  
HETATM   26  O   UNL     1      -7.506   7.674  71.217  1.00  0.00    -0.075 OA 
BRANCH  25  27
HETATM   27  O   UNL     1      -8.504   6.449  69.573  1.00  0.00    -0.130 OA 
BRANCH  27  28
HETATM   28  C   UNL     1      -7.612   5.353  69.352  1.00  0.00    -0.077 C  
BRANCH  28  29
HETATM   29  O   UNL     1      -8.276   4.109  69.550  1.00  0.00    -0.059 OA 
BRANCH  29  30
HETATM   30  C   UNL     1      -9.607   4.176  69.811  1.00  0.00    -0.211 C  
HETATM   31  O   UNL     1     -10.477   4.281  68.957  1.00  0.00     0.364 OA 
BRANCH  30  32
HETATM   32  C   UNL     1      -9.890   4.073  71.326  1.00  0.00    -0.172 C  
HETATM   33  N   UNL     1      -8.884   4.862  72.055  1.00  0.00    -0.127 N  
HETATM   34  C   UNL     1      -7.589   4.206  72.382  1.00  0.00    -0.073 C  
HETATM   35  S   UNL     1      -7.989   2.464  72.125  1.00  0.00    -0.054 S  
HETATM   36  C   UNL     1      -7.704   4.821  73.778  1.00  0.00    -0.094 C  
HETATM   37  O   UNL     1      -7.407   2.039  70.863  1.00  0.00    -0.033 OA 
HETATM   38  O   UNL     1      -7.741   1.709  73.336  1.00  0.00    -0.036 OA 
HETATM   39  C   UNL     1      -9.790   2.632  71.879  1.00  0.00    -0.157 C  
HETATM   40  C   UNL     1      -9.087   5.311  73.324  1.00  0.00    -0.128 C  
HETATM   41  C   UNL     1     -10.322   1.522  70.962  1.00  0.00     0.343 C  
HETATM   42  C   UNL     1     -10.525   2.476  73.228  1.00  0.00    -0.234 C  
HETATM   43  O   UNL     1     -10.095   5.713  73.852  1.00  0.00    -0.186 OA 
ENDBRANCH  30  32
ENDBRANCH  29  30
ENDBRANCH  28  29
ENDBRANCH  27  28
ENDBRANCH  25  27
ENDBRANCH   7  25
TORSDOF 9
ENDMDL
MODEL      309
REMARK 921   NORMALIZED FREE ENERGY PREDICTED BY IDOCK:    4.28 KCAL/MOL
REMARK 922        TOTAL FREE ENERGY PREDICTED BY IDOCK:    6.02 KCAL/MOL
REMARK 923 INTER-LIGAND FREE ENERGY PREDICTED BY IDOCK:    4.61 KCAL/MOL
REMARK 924 INTRA-LIGAND FREE ENERGY PREDICTED BY IDOCK:    1.41 KCAL/MOL
REMARK 927      BINDING AFFINITY PREDICTED BY RF-SCORE:    0.00 PKD
ROOT
HETATM    1  C   UNL     1      -9.265  16.763  70.101  1.00  0.00     1.705 C  
HETATM    2  C   UNL     1      -8.390  15.499  69.968  1.00  0.00     0.405 C  
HETATM    3  S   UNL     1      -6.977  15.941  68.848  1.00  0.00    -0.154 SA 
HETATM    4  C   UNL     1      -7.878  15.188  71.380  1.00  0.00     3.326 C  
HETATM    5  C   UNL     1      -7.795  15.260  67.326  1.00  0.00    -0.209 C  
HETATM    6  C   UNL     1      -8.659  16.231  66.472  1.00  0.00    -0.297 C  
HETATM    7  C   UNL     1      -9.111  14.332  69.242  1.00  0.00     0.276 C  
HETATM    8  C   UNL     1      -9.851  15.592  67.233  1.00  0.00    -0.225 C  
HETATM    9  O   UNL     1     -11.008  15.873  67.447  1.00  0.00    -0.318 OA 
HETATM   10  N   UNL     1      -9.048  14.651  67.809  1.00  0.00    -0.187 N  
ENDROOT
BRANCH   6  11
HETATM   11  N   UNL     1      -8.427  17.688  66.664  1.00  0.00    -0.247 N  
HETATM   12  C   UNL     1      -9.463  18.594  66.576  1.00  0.00    -0.322 C  
HETATM   13  O   UNL     1     -10.638  18.238  66.502  1.00  0.00    -0.362 OA 
HETATM   14  H   UNL     1      -7.485  18.023  66.866  1.00  0.00     0.000 HD 
BRANCH  12  15
HETATM   15  C   UNL     1      -9.037  20.079  66.540  1.00  0.00    -0.356 C  
HETATM   16  H2  UNL     1     -11.009  20.782  66.561  1.00  0.00     0.000 HD 
HETATM   17  N   UNL     1     -10.152  20.919  66.027  1.00  0.00    -0.013 NA 
HETATM   18  H1  UNL     1      -9.870  21.899  66.003  1.00  0.00     0.000 HD 
BRANCH  15  19
HETATM   19  C   UNL     1      -7.746  20.319  65.778  1.00  0.00    -0.137 A  
HETATM   20  C   UNL     1      -7.730  20.639  64.409  1.00  0.00     1.328 A  
HETATM   21  C   UNL     1      -6.520  20.279  66.465  1.00  0.00    -0.247 A  
HETATM   22  C   UNL     1      -5.329  20.619  65.820  1.00  0.00    -0.222 A  
HETATM   23  C   UNL     1      -6.540  20.987  63.769  1.00  0.00    -0.133 A  
HETATM   24  C   UNL     1      -5.342  20.991  64.477  1.00  0.00    -0.253 A  
ENDBRANCH  15  19
ENDBRANCH  12  15
ENDBRANCH   6  11
BRANCH   7  25
HETATM   25  C   UNL     1      -8.442  12.948  69.402  1.00  0.00     1.168 C  
HETATM   26  O   UNL     1      -7.318  12.651  69.008  1.00  0.00    -0.057 OA 
BRANCH  25  27
HETATM   27  O   UNL     1      -9.269  12.065  70.033  1.00  0.00     2.265 OA 
BRANCH  27  28
HETATM   28  C   UNL     1      -9.752  11.002  69.207  1.00  0.00    -0.008 C  
BRANCH  28  29
HETATM   29  O   UNL     1     -10.903  10.393  69.784  1.00  0.00    -0.255 OA 
BRANCH  29  30
HETATM   30  C   UNL     1     -11.002   9.046  69.644  1.00  0.00    -0.136 C  
HETATM   31  O   UNL     1     -11.321   8.477  68.609  1.00  0.00     0.407 OA 
BRANCH  30  32
HETATM   32  C   UNL     1     -10.631   8.315  70.953  1.00  0.00    -0.207 C  
HETATM   33  N   UNL     1      -9.197   7.984  70.927  1.00  0.00    -0.147 N  
HETATM   34  C   UNL     1      -8.789   6.720  70.256  1.00  0.00    -0.152 C  
HETATM   35  S   UNL     1     -10.364   5.845  70.138  1.00  0.00    -0.265 S  
HETATM   36  C   UNL     1      -7.857   6.467  71.444  1.00  0.00    -0.100 C  
HETATM   37  O   UNL     1     -10.837   5.930  68.767  1.00  0.00    -0.286 OA 
HETATM   38  O   UNL     1     -10.274   4.561  70.804  1.00  0.00    -0.194 OA 
HETATM   39  C   UNL     1     -11.380   6.976  71.149  1.00  0.00    -0.282 C  
HETATM   40  C   UNL     1      -8.486   7.725  72.059  1.00  0.00    -0.116 C  
HETATM   41  C   UNL     1     -12.844   6.951  70.690  1.00  0.00     0.089 C  
HETATM   42  C   UNL     1     -11.374   6.517  72.624  1.00  0.00    -0.259 C  
HETATM   43  O   UNL     1      -8.569   8.221  73.157  1.00  0.00    -0.212 OA 
ENDBRANCH  30  32
ENDBRANCH  29  30
ENDBRANCH  28  29
ENDBRANCH  27  28
ENDBRANCH  25  27
ENDBRANCH   7  25
TORSDOF 9
ENDMDL
MODEL      310
REMARK 921   NORMALIZED FREE ENERGY PREDICTED BY IDOCK:    5.48 KCAL/MOL
REMARK 922        TOTAL FREE ENERGY PREDICTED BY IDOCK:    7.85 KCAL/MOL
REMARK 923 INTER-LIGAND FREE ENERGY PREDICTED BY IDOCK:    1.51 KCAL/MOL
REMARK 924 INTRA-LIGAND FREE ENERGY PREDICTED BY IDOCK:    6.34 KCAL/MOL
REMARK 927      BINDING AFFINITY PREDICTED BY RF-SCORE:    0.00 PKD
ROOT
HETATM    1  C   UNL     1     -10.890   5.717  68.094  1.00  0.00    -0.161 C  
HETATM    2  C   UNL     1      -9.859   6.380  67.157  1.00  0.00    -0.146 C  
HETATM    3  S   UNL     1      -8.258   6.458  68.090  1.00  0.00    -0.116 SA 
HETATM    4  C   UNL     1      -9.729   5.448  65.946  1.00  0.00    -0.091 C  
HETATM    5  C   UNL     1      -8.522   8.205  68.664  1.00  0.00    -0.127 C  
HETATM    6  C   UNL     1      -9.228   8.418  70.033  1.00  0.00    -0.158 C  
HETATM    7  C   UNL     1     -10.194   7.860  66.834  1.00  0.00    -0.310 C  
HETATM    8  C   UNL     1     -10.494   8.654  69.168  1.00  0.00    -0.211 C  
HETATM    9  O   UNL     1     -11.691   8.660  69.346  1.00  0.00     0.529 OA 
HETATM   10  N   UNL     1      -9.773   8.632  68.010  1.00  0.00    -0.153 N  
ENDROOT
BRANCH   6  11
HETATM   11  N   UNL     1      -9.247   7.264  70.971  1.00  0.00    -0.154 N  
HETATM   12  C   UNL     1      -9.949   7.316  72.156  1.00  0.00    -0.165 C  
HETATM   13  O   UNL     1     -10.720   8.238  72.418  1.00  0.00    -0.296 OA 
HETATM   14  H   UNL     1      -8.730   6.417  70.733  1.00  0.00     0.000 HD 
BRANCH  12  15
HETATM   15  C   UNL     1      -9.670   6.157  73.139  1.00  0.00    -0.158 C  
HETATM   16  H2  UNL     1     -10.063   7.324  74.833  1.00  0.00     0.000 HD 
HETATM   17  N   UNL     1      -9.339   6.696  74.486  1.00  0.00    -0.218 NA 
HETATM   18  H1  UNL     1      -9.155   5.931  75.134  1.00  0.00     0.000 HD 
BRANCH  15  19
HETATM   19  C   UNL     1      -8.617   5.183  72.641  1.00  0.00    -0.117 A  
HETATM   20  C   UNL     1      -7.653   4.619  73.495  1.00  0.00    -0.083 A  
HETATM   21  C   UNL     1      -8.631   4.779  71.295  1.00  0.00    -0.129 A  
HETATM   22  C   UNL     1      -7.756   3.791  70.838  1.00  0.00    -0.047 A  
HETATM   23  C   UNL     1      -6.786   3.626  73.038  1.00  0.00    -0.038 A  
HETATM   24  C   UNL     1      -6.847   3.201  71.714  1.00  0.00    -0.026 A  
ENDBRANCH  15  19
ENDBRANCH  12  15
ENDBRANCH   6  11
BRANCH   7  25
HETATM   25  C   UNL     1      -9.427   8.459  65.632  1.00  0.00     0.085 C  
HETATM   26  O   UNL     1      -8.881   7.812  64.743  1.00  0.00     0.151 OA 
BRANCH  25  27
HETATM   27  O   UNL     1      -9.413   9.822  65.679  1.00  0.00    -0.205 OA 
BRANCH  27  28
HETATM   28  C   UNL     1      -9.455  10.375  66.997  1.00  0.00    -0.163 C  
BRANCH  28  29
HETATM   29  O   UNL     1      -9.328  11.794  66.957  1.00  0.00    -0.177 OA 
BRANCH  29  30
HETATM   30  C   UNL     1      -9.099  12.408  68.146  1.00  0.00    -0.200 C  
HETATM   31  O   UNL     1      -7.989  12.673  68.588  1.00  0.00    -0.118 OA 
BRANCH  30  32
HETATM   32  C   UNL     1     -10.421  12.761  68.862  1.00  0.00    -0.078 C  
HETATM   33  N   UNL     1     -11.339  11.614  68.762  1.00  0.00    -0.237 N  
HETATM   34  C   UNL     1     -12.180  11.503  67.539  1.00  0.00     0.708 C  
HETATM   35  S   UNL     1     -12.038  13.164  66.847  1.00  0.00    -0.241 S  
HETATM   36  C   UNL     1     -13.353  11.151  68.457  1.00  0.00     5.094 C  
HETATM   37  O   UNL     1     -11.126  13.116  65.717  1.00  0.00    -0.272 OA 
HETATM   38  O   UNL     1     -13.352  13.759  66.702  1.00  0.00     0.842 OA 
HETATM   39  C   UNL     1     -11.165  13.964  68.235  1.00  0.00    -0.272 C  
HETATM   40  C   UNL     1     -12.387  11.441  69.615  1.00  0.00    -0.170 C  
HETATM   41  C   UNL     1     -10.279  15.113  67.733  1.00  0.00    -0.236 C  
HETATM   42  C   UNL     1     -12.184  14.590  69.212  1.00  0.00    -0.264 C  
HETATM   43  O   UNL     1     -12.474  11.680  70.795  1.00  0.00    -0.360 OA 
ENDBRANCH  30  32
ENDBRANCH  29  30
ENDBRANCH  28  29
ENDBRANCH  27  28
ENDBRANCH  25  27
ENDBRANCH   7  25
TORSDOF 9
ENDMDL
MODEL      311
REMARK 921   NORMALIZED FREE ENERGY PREDICTED BY IDOCK:   13.96 KCAL/MOL
REMARK 922        TOTAL FREE ENERGY PREDICTED BY IDOCK:   20.80 KCAL/MOL
REMARK 923 INTER-LIGAND FREE ENERGY PREDICTED BY IDOCK:   13.56 KCAL/MOL
REMARK 924 INTRA-LIGAND FREE ENERGY PREDICTED BY IDOCK:    7.24 KCAL/MOL
REMARK 927      BINDING AFFINITY PREDICTED BY RF-SCORE:    0.00 PKD
ROOT
HETATM    1  C   UNL     1     -11.651  14.741  65.352  1.00  0.00    -0.316 C  
HETATM    2  C   UNL     1     -11.358  15.963  66.247  1.00  0.00     0.225 C  
HETATM    3  S   UNL     1      -9.741  15.630  67.096  1.00  0.00    -0.225 SA 
HETATM    4  C   UNL     1     -11.229  17.161  65.299  1.00  0.00     0.364 C  
HETATM    5  C   UNL     1     -10.534  14.972  68.641  1.00  0.00    -0.238 C  
HETATM    6  C   UNL     1     -10.793  13.441  68.727  1.00  0.00    -0.246 C  
HETATM    7  C   UNL     1     -12.377  16.129  67.405  1.00  0.00     1.758 C  
HETATM    8  C   UNL     1     -12.238  13.819  68.308  1.00  0.00    -0.142 C  
HETATM    9  O   UNL     1     -13.198  13.243  67.849  1.00  0.00     1.953 OA 
HETATM   10  N   UNL     1     -11.982  15.154  68.430  1.00  0.00    -0.258 N  
ENDROOT
BRANCH   6  11
HETATM   11  N   UNL     1     -10.018  12.572  67.801  1.00  0.00    -0.204 N  
HETATM   12  C   UNL     1     -10.058  11.199  67.909  1.00  0.00    -0.176 C  
HETATM   13  O   UNL     1     -10.852  10.624  68.652  1.00  0.00    -0.196 OA 
HETATM   14  H   UNL     1      -9.447  13.001  67.073  1.00  0.00     0.000 HD 
BRANCH  12  15
HETATM   15  C   UNL     1      -9.014  10.441  67.058  1.00  0.00    -0.139 C  
HETATM   16  H2  UNL     1      -7.514  10.610  68.510  1.00  0.00     0.000 HD 
HETATM   17  N   UNL     1      -7.638  10.781  67.513  1.00  0.00    -0.092 NA 
HETATM   18  H1  UNL     1      -6.950  10.281  66.951  1.00  0.00     0.000 HD 
BRANCH  15  19
HETATM   19  C   UNL     1      -9.187  10.648  65.564  1.00  0.00    -0.228 A  
HETATM   20  C   UNL     1     -10.218  11.439  65.030  1.00  0.00    -0.333 A  
HETATM   21  C   UNL     1      -8.256  10.082  64.676  1.00  0.00    -0.163 A  
HETATM   22  C   UNL     1      -8.315  10.358  63.308  1.00  0.00    -0.163 A  
HETATM   23  C   UNL     1     -10.271  11.721  63.665  1.00  0.00    -0.461 A  
HETATM   24  C   UNL     1      -9.311  11.193  62.806  1.00  0.00    -0.377 A  
ENDBRANCH  15  19
ENDBRANCH  12  15
ENDBRANCH   6  11
BRANCH   7  25
HETATM   25  C   UNL     1     -12.363  17.509  68.099  1.00  0.00     3.425 C  
HETATM   26  O   UNL     1     -13.131  18.436  67.857  1.00  0.00     5.450 OA 
BRANCH  25  27
HETATM   27  O   UNL     1     -11.366  17.590  69.027  1.00  0.00     0.532 OA 
BRANCH  27  28
HETATM   28  C   UNL     1     -10.073  17.888  68.491  1.00  0.00    -0.391 C  
BRANCH  28  29
HETATM   29  O   UNL     1      -9.256  18.533  69.463  1.00  0.00     0.239 OA 
BRANCH  29  30
HETATM   30  C   UNL     1      -7.915  18.407  69.297  1.00  0.00     0.154 C  
HETATM   31  O   UNL     1      -7.182  17.758  70.030  1.00  0.00     0.587 OA 
BRANCH  30  32
HETATM   32  C   UNL     1      -7.429  19.168  68.043  1.00  0.00    -0.263 C  
HETATM   33  N   UNL     1      -8.495  19.145  67.028  1.00  0.00    -0.278 N  
HETATM   34  C   UNL     1      -8.570  17.964  66.125  1.00  0.00    -0.096 C  
HETATM   35  S   UNL     1      -6.948  17.212  66.375  1.00  0.00    -0.229 S  
HETATM   36  C   UNL     1      -8.793  18.943  64.970  1.00  0.00     2.870 C  
HETATM   37  O   UNL     1      -7.108  16.046  67.228  1.00  0.00    -0.166 OA 
HETATM   38  O   UNL     1      -6.247  17.104  65.111  1.00  0.00     0.883 OA 
HETATM   39  C   UNL     1      -6.186  18.534  67.376  1.00  0.00    -0.181 C  
HETATM   40  C   UNL     1      -8.553  20.048  66.009  1.00  0.00    -0.204 C  
HETATM   41  C   UNL     1      -5.132  17.957  68.331  1.00  0.00    -0.152 C  
HETATM   42  C   UNL     1      -5.446  19.532  66.459  1.00  0.00    -0.163 C  
HETATM   43  O   UNL     1      -8.273  21.222  65.997  1.00  0.00     1.197 OA 
ENDBRANCH  30  32
ENDBRANCH  29  30
ENDBRANCH  28  29
ENDBRANCH  27  28
ENDBRANCH  25  27
ENDBRANCH   7  25
TORSDOF 9
ENDMDL
MODEL      312
REMARK 921   NORMALIZED FREE ENERGY PREDICTED BY IDOCK:   14.34 KCAL/MOL
REMARK 922        TOTAL FREE ENERGY PREDICTED BY IDOCK:   21.38 KCAL/MOL
REMARK 923 INTER-LIGAND FREE ENERGY PREDICTED BY IDOCK:    4.69 KCAL/MOL
REMARK 924 INTRA-LIGAND FREE ENERGY PREDICTED BY IDOCK:   16.68 KCAL/MOL
REMARK 927      BINDING AFFINITY PREDICTED BY RF-SCORE:    0.00 PKD
ROOT
HETATM    1  C   UNL     1      -7.999   6.479  66.704  1.00  0.00    -0.109 C  
HETATM    2  C   UNL     1      -8.814   6.888  67.948  1.00  0.00    -0.123 C  
HETATM    3  S   UNL     1      -9.488   8.584  67.614  1.00  0.00    -0.149 SA 
HETATM    4  C   UNL     1      -9.955   5.870  68.061  1.00  0.00    -0.161 C  
HETATM    5  C   UNL     1      -8.112   9.455  68.507  1.00  0.00    -0.105 C  
HETATM    6  C   UNL     1      -6.867   9.883  67.679  1.00  0.00    -0.084 C  
HETATM    7  C   UNL     1      -7.940   7.061  69.219  1.00  0.00    -0.119 C  
HETATM    8  C   UNL     1      -6.235   8.585  68.248  1.00  0.00    -0.051 C  
HETATM    9  O   UNL     1      -5.296   7.873  67.975  1.00  0.00    -0.030 OA 
HETATM   10  N   UNL     1      -7.292   8.373  69.084  1.00  0.00    -0.078 N  
ENDROOT
BRANCH   6  11
HETATM   11  N   UNL     1      -7.036   9.970  66.203  1.00  0.00    -0.101 N  
HETATM   12  C   UNL     1      -7.690  11.034  65.620  1.00  0.00     0.090 C  
HETATM   13  O   UNL     1      -8.015  12.032  66.262  1.00  0.00     0.103 OA 
HETATM   14  H   UNL     1      -6.660   9.229  65.612  1.00  0.00     0.000 HD 
BRANCH  12  15
HETATM   15  C   UNL     1      -8.015  10.865  64.119  1.00  0.00     0.351 C  
HETATM   16  H2  UNL     1      -9.487  12.354  64.135  1.00  0.00     0.000 HD 
HETATM   17  N   UNL     1      -9.376  11.389  63.827  1.00  0.00    -0.417 NA 
HETATM   18  H1  UNL     1      -9.591  11.277  62.836  1.00  0.00     0.000 HD 
BRANCH  15  19
HETATM   19  C   UNL     1      -7.832   9.443  63.618  1.00  0.00    -0.131 A  
HETATM   20  C   UNL     1      -8.846   8.753  62.932  1.00  0.00     0.071 A  
HETATM   21  C   UNL     1      -6.592   8.805  63.788  1.00  0.00    -0.087 A  
HETATM   22  C   UNL     1      -6.353   7.548  63.227  1.00  0.00    -0.054 A  
HETATM   23  C   UNL     1      -8.603   7.502  62.365  1.00  0.00     0.135 A  
HETATM   24  C   UNL     1      -7.353   6.906  62.500  1.00  0.00    -0.069 A  
ENDBRANCH  15  19
ENDBRANCH  12  15
ENDBRANCH   6  11
BRANCH   7  25
HETATM   25  C   UNL     1      -8.721   7.104  70.552  1.00  0.00    -0.149 C  
HETATM   26  O   UNL     1      -8.703   8.030  71.357  1.00  0.00    -0.124 OA 
BRANCH  25  27
HETATM   27  O   UNL     1      -9.440   5.962  70.745  1.00  0.00    -0.161 OA 
BRANCH  27  28
HETATM   28  C   UNL     1     -10.038   5.424  69.561  1.00  0.00    -0.240 C  
BRANCH  28  29
HETATM   29  O   UNL     1     -10.975   6.341  69.004  1.00  0.00    -0.305 OA 
BRANCH  29  30
HETATM   30  C   UNL     1     -11.920   6.821  69.852  1.00  0.00    -0.039 C  
HETATM   31  O   UNL     1     -13.116   6.577  69.769  1.00  0.00     2.140 OA 
BRANCH  30  32
HETATM   32  C   UNL     1     -11.292   7.696  70.959  1.00  0.00    -0.272 C  
HETATM   33  N   UNL     1     -11.972   7.416  72.234  1.00  0.00    -0.270 N  
HETATM   34  C   UNL     1     -13.224   8.162  72.532  1.00  0.00     0.015 C  
HETATM   35  S   UNL     1     -13.140   9.508  71.332  1.00  0.00    -0.361 S  
HETATM   36  C   UNL     1     -12.688   8.365  73.951  1.00  0.00     4.792 C  
HETATM   37  O   UNL     1     -14.065   9.219  70.249  1.00  0.00     0.689 OA 
HETATM   38  O   UNL     1     -13.184  10.788  72.011  1.00  0.00    -0.484 OA 
HETATM   39  C   UNL     1     -11.448   9.215  70.712  1.00  0.00    -0.282 C  
HETATM   40  C   UNL     1     -11.405   7.693  73.441  1.00  0.00     0.251 C  
HETATM   41  C   UNL     1     -11.313   9.676  69.254  1.00  0.00    -0.003 C  
HETATM   42  C   UNL     1     -10.434  10.043  71.530  1.00  0.00     0.905 C  
HETATM   43  O   UNL     1     -10.253   7.614  73.793  1.00  0.00    -0.289 OA 
ENDBRANCH  30  32
ENDBRANCH  29  30
ENDBRANCH  28  29
ENDBRANCH  27  28
ENDBRANCH  25  27
ENDBRANCH   7  25
TORSDOF 9
ENDMDL
MODEL      313
REMARK 921   NORMALIZED FREE ENERGY PREDICTED BY IDOCK:   14.65 KCAL/MOL
REMARK 922        TOTAL FREE ENERGY PREDICTED BY IDOCK:   21.86 KCAL/MOL
REMARK 923 INTER-LIGAND FREE ENERGY PREDICTED BY IDOCK:   14.51 KCAL/MOL
REMARK 924 INTRA-LIGAND FREE ENERGY PREDICTED BY IDOCK:    7.34 KCAL/MOL
REMARK 927      BINDING AFFINITY PREDICTED BY RF-SCORE:    0.00 PKD
ROOT
HETATM    1  C   UNL     1     -11.651  14.741  65.352  1.00  0.00    -0.316 C  
HETATM    2  C   UNL     1     -11.364  15.958  66.255  1.00  0.00     0.225 C  
HETATM    3  S   UNL     1      -9.756  15.620  67.117  1.00  0.00    -0.225 SA 
HETATM    4  C   UNL     1     -11.226  17.161  65.313  1.00  0.00     0.364 C  
HETATM    5  C   UNL     1     -10.563  14.956  68.652  1.00  0.00    -0.251 C  
HETATM    6  C   UNL     1     -10.825  13.425  68.729  1.00  0.00    -0.246 C  
HETATM    7  C   UNL     1     -12.394  16.120  67.404  1.00  0.00     1.758 C  
HETATM    8  C   UNL     1     -12.266  13.806  68.299  1.00  0.00    -0.142 C  
HETATM    9  O   UNL     1     -13.222  13.234  67.828  1.00  0.00     1.910 OA 
HETATM   10  N   UNL     1     -12.009  15.140  68.429  1.00  0.00    -0.258 N  
ENDROOT
BRANCH   6  11
HETATM   11  N   UNL     1     -10.043  12.560  67.806  1.00  0.00    -0.213 N  
HETATM   12  C   UNL     1     -10.085  11.185  67.907  1.00  0.00    -0.176 C  
HETATM   13  O   UNL     1     -10.886  10.608  68.641  1.00  0.00    -0.196 OA 
HETATM   14  H   UNL     1      -9.465  12.991  67.085  1.00  0.00     0.000 HD 
BRANCH  12  15
HETATM   15  C   UNL     1      -9.034  10.430  67.062  1.00  0.00    -0.139 C  
HETATM   16  H2  UNL     1     -10.000  10.844  65.251  1.00  0.00     0.000 HD 
HETATM   17  N   UNL     1      -9.615  10.042  65.749  1.00  0.00    -0.211 NA 
HETATM   18  H1  UNL     1      -8.921   9.544  65.192  1.00  0.00     0.000 HD 
BRANCH  15  19
HETATM   19  C   UNL     1      -8.416   9.246  67.784  1.00  0.00    -0.116 A  
HETATM   20  C   UNL     1      -7.218   9.352  68.511  1.00  0.00    -0.072 A  
HETATM   21  C   UNL     1      -9.085   8.010  67.781  1.00  0.00    -0.136 A  
HETATM   22  C   UNL     1      -8.608   6.938  68.539  1.00  0.00    -0.123 A  
HETATM   23  C   UNL     1      -6.748   8.283  69.275  1.00  0.00    -0.043 A  
HETATM   24  C   UNL     1      -7.450   7.081  69.301  1.00  0.00    -0.094 A  
ENDBRANCH  15  19
ENDBRANCH  12  15
ENDBRANCH   6  11
BRANCH   7  25
HETATM   25  C   UNL     1     -12.384  17.498  68.105  1.00  0.00     3.425 C  
HETATM   26  O   UNL     1     -13.149  18.426  67.860  1.00  0.00     5.450 OA 
BRANCH  25  27
HETATM   27  O   UNL     1     -11.396  17.574  69.042  1.00  0.00     0.532 OA 
BRANCH  27  28
HETATM   28  C   UNL     1     -10.098  17.872  68.519  1.00  0.00    -0.391 C  
BRANCH  28  29
HETATM   29  O   UNL     1      -9.289  18.511  69.502  1.00  0.00     0.192 OA 
BRANCH  29  30
HETATM   30  C   UNL     1      -7.946  18.385  69.346  1.00  0.00     0.316 C  
HETATM   31  O   UNL     1      -7.221  17.732  70.084  1.00  0.00     0.845 OA 
BRANCH  30  32
HETATM   32  C   UNL     1      -7.449  19.151  68.101  1.00  0.00    -0.282 C  
HETATM   33  N   UNL     1      -8.505  19.134  67.076  1.00  0.00    -0.278 N  
HETATM   34  C   UNL     1      -8.574  17.957  66.167  1.00  0.00    -0.096 C  
HETATM   35  S   UNL     1      -6.955  17.201  66.428  1.00  0.00    -0.229 S  
HETATM   36  C   UNL     1      -8.785  18.942  65.015  1.00  0.00     2.807 C  
HETATM   37  O   UNL     1      -7.123  16.032  67.274  1.00  0.00    -0.166 OA 
HETATM   38  O   UNL     1      -6.242  17.099  65.171  1.00  0.00     0.883 OA 
HETATM   39  C   UNL     1      -6.200  18.519  67.442  1.00  0.00    -0.181 C  
HETATM   40  C   UNL     1      -8.553  20.041  66.061  1.00  0.00    -0.204 C  
HETATM   41  C   UNL     1      -5.156  17.936  68.404  1.00  0.00    -0.152 C  
HETATM   42  C   UNL     1      -5.451  19.520  66.536  1.00  0.00    -0.163 C  
HETATM   43  O   UNL     1      -8.271  21.215  66.057  1.00  0.00     0.903 OA 
ENDBRANCH  30  32
ENDBRANCH  29  30
ENDBRANCH  28  29
ENDBRANCH  27  28
ENDBRANCH  25  27
ENDBRANCH   7  25
TORSDOF 9
ENDMDL
