MODEL        1
REMARK 921   NORMALIZED FREE ENERGY PREDICTED BY IDOCK:   -6.85 KCAL/MOL
REMARK 922        TOTAL FREE ENERGY PREDICTED BY IDOCK:   -9.29 KCAL/MOL
REMARK 923 INTER-LIGAND FREE ENERGY PREDICTED BY IDOCK:   -9.26 KCAL/MOL
REMARK 924 INTRA-LIGAND FREE ENERGY PREDICTED BY IDOCK:   -0.03 KCAL/MOL
REMARK 927      BINDING AFFINITY PREDICTED BY RF-SCORE:    0.00 PKD
ROOT
HETATM    1  C   UNL     1     -12.667  12.100  63.363  1.00  0.00    -0.381 C  
HETATM    2  N   UNL     1     -12.224  13.472  63.083  1.00  0.00    -0.999 N  
HETATM    3  H   UNL     1     -11.953  13.765  62.144  1.00  0.00     0.000 HD 
ENDROOT
BRANCH   2   4
HETATM    4  S   UNL     1     -12.185  14.547  64.393  1.00  0.00    -0.375 S  
HETATM    5  O   UNL     1     -12.105  15.862  63.796  1.00  0.00    -0.780 OA 
HETATM    6  O   UNL     1     -13.298  14.168  65.238  1.00  0.00    -0.715 OA 
BRANCH   4   7
HETATM    7  C   UNL     1     -10.611  14.125  65.165  1.00  0.00    -0.398 C  
BRANCH   7   8
HETATM    8  C   UNL     1     -10.782  13.039  66.197  1.00  0.00    -0.288 A  
HETATM    9  C   UNL     1     -11.263  13.335  67.488  1.00  0.00    -0.309 A  
HETATM   10  C   UNL     1     -11.483  12.303  68.424  1.00  0.00    -0.356 A  
HETATM   11  C   UNL     1     -11.253  10.990  68.018  1.00  0.00    -0.309 A  
HETATM   12  C   UNL     1     -10.785  10.657  66.743  1.00  0.00    -0.272 A  
HETATM   13  N   UNL     1     -11.574  10.180  69.080  1.00  0.00    -0.492 NA 
HETATM   14  C   UNL     1     -10.552  11.703  65.844  1.00  0.00    -0.318 A  
HETATM   15  H   UNL     1     -11.510   9.162  69.075  1.00  0.00     0.000 HD 
HETATM   16  C   UNL     1     -11.990  10.929  70.144  1.00  0.00    -0.352 A  
HETATM   17  C   UNL     1     -11.919  12.265  69.790  1.00  0.00    -0.365 A  
BRANCH  17  18
HETATM   18  C   UNL     1     -12.248  13.434  70.681  1.00  0.00    -0.427 C  
BRANCH  18  19
HETATM   19  C   UNL     1     -13.076  13.010  71.915  1.00  0.00    -0.384 C  
BRANCH  19  20
HETATM   20  N   UNL     1     -13.676  14.112  72.697  1.00  0.00    -0.640 NA 
HETATM   21  C   UNL     1     -14.384  15.021  71.785  1.00  0.00    -0.580 C  
HETATM   22  C   UNL     1     -12.678  14.867  73.454  1.00  0.00    -0.513 C  
ENDBRANCH  19  20
ENDBRANCH  18  19
ENDBRANCH  17  18
ENDBRANCH   7   8
ENDBRANCH   4   7
ENDBRANCH   2   4
TORSDOF 6
ENDMDL
MODEL        2
REMARK 921   NORMALIZED FREE ENERGY PREDICTED BY IDOCK:   -6.76 KCAL/MOL
REMARK 922        TOTAL FREE ENERGY PREDICTED BY IDOCK:   -9.16 KCAL/MOL
REMARK 923 INTER-LIGAND FREE ENERGY PREDICTED BY IDOCK:   -8.94 KCAL/MOL
REMARK 924 INTRA-LIGAND FREE ENERGY PREDICTED BY IDOCK:   -0.22 KCAL/MOL
REMARK 927      BINDING AFFINITY PREDICTED BY RF-SCORE:    0.00 PKD
ROOT
HETATM    1  C   UNL     1     -12.375  12.144  63.236  1.00  0.00    -0.436 C  
HETATM    2  N   UNL     1     -12.433  13.596  63.025  1.00  0.00    -0.973 N  
HETATM    3  H   UNL     1     -12.577  13.996  62.098  1.00  0.00     0.000 HD 
ENDROOT
BRANCH   2   4
HETATM    4  S   UNL     1     -12.250  14.577  64.396  1.00  0.00    -0.375 S  
HETATM    5  O   UNL     1     -11.988  15.901  63.876  1.00  0.00    -0.730 OA 
HETATM    6  O   UNL     1     -13.407  14.306  65.222  1.00  0.00    -0.660 OA 
BRANCH   4   7
HETATM    7  C   UNL     1     -10.752  13.898  65.134  1.00  0.00    -0.362 C  
BRANCH   7   8
HETATM    8  C   UNL     1     -11.037  13.281  66.480  1.00  0.00    -0.313 A  
HETATM    9  C   UNL     1     -11.373  14.083  67.589  1.00  0.00    -0.336 A  
HETATM   10  C   UNL     1     -11.704  13.492  68.826  1.00  0.00    -0.373 A  
HETATM   11  C   UNL     1     -11.730  12.102  68.902  1.00  0.00    -0.327 A  
HETATM   12  C   UNL     1     -11.412  11.273  67.821  1.00  0.00    -0.350 A  
HETATM   13  N   UNL     1     -12.113  11.776  70.181  1.00  0.00    -0.328 NA 
HETATM   14  C   UNL     1     -11.063  11.887  66.613  1.00  0.00    -0.360 A  
HETATM   15  H   UNL     1     -12.224  10.825  70.530  1.00  0.00     0.000 HD 
HETATM   16  C   UNL     1     -12.323  12.907  70.918  1.00  0.00    -0.275 A  
HETATM   17  C   UNL     1     -12.048  14.004  70.121  1.00  0.00    -0.419 A  
BRANCH  17  18
HETATM   18  C   UNL     1     -12.111  15.446  70.551  1.00  0.00    -0.411 C  
BRANCH  18  19
HETATM   19  C   UNL     1     -11.777  15.622  72.049  1.00  0.00    -0.461 C  
BRANCH  19  20
HETATM   20  N   UNL     1     -12.876  16.132  72.898  1.00  0.00    -0.437 NA 
HETATM   21  C   UNL     1     -12.482  16.032  74.309  1.00  0.00    -0.591 C  
HETATM   22  C   UNL     1     -14.127  15.401  72.691  1.00  0.00    -0.427 C  
ENDBRANCH  19  20
ENDBRANCH  18  19
ENDBRANCH  17  18
ENDBRANCH   7   8
ENDBRANCH   4   7
ENDBRANCH   2   4
TORSDOF 6
ENDMDL
MODEL        3
REMARK 921   NORMALIZED FREE ENERGY PREDICTED BY IDOCK:   -6.50 KCAL/MOL
REMARK 922        TOTAL FREE ENERGY PREDICTED BY IDOCK:   -8.82 KCAL/MOL
REMARK 923 INTER-LIGAND FREE ENERGY PREDICTED BY IDOCK:   -8.43 KCAL/MOL
REMARK 924 INTRA-LIGAND FREE ENERGY PREDICTED BY IDOCK:   -0.38 KCAL/MOL
REMARK 927      BINDING AFFINITY PREDICTED BY RF-SCORE:    0.00 PKD
ROOT
HETATM    1  C   UNL     1     -10.133  11.698  63.353  1.00  0.00    -0.440 C  
HETATM    2  N   UNL     1     -11.313  12.503  63.011  1.00  0.00    -0.706 N  
HETATM    3  H   UNL     1     -11.665  12.555  62.056  1.00  0.00     0.000 HD 
ENDROOT
BRANCH   2   4
HETATM    4  S   UNL     1     -12.061  13.342  64.280  1.00  0.00    -0.417 S  
HETATM    5  O   UNL     1     -12.416  14.628  63.721  1.00  0.00    -0.799 OA 
HETATM    6  O   UNL     1     -13.069  12.441  64.798  1.00  0.00    -0.806 OA 
BRANCH   4   7
HETATM    7  C   UNL     1     -10.699  13.534  65.446  1.00  0.00    -0.304 C  
BRANCH   7   8
HETATM    8  C   UNL     1     -11.203  13.915  66.815  1.00  0.00    -0.328 A  
HETATM    9  C   UNL     1     -11.506  12.931  67.777  1.00  0.00    -0.369 A  
HETATM   10  C   UNL     1     -11.911  13.300  69.077  1.00  0.00    -0.336 A  
HETATM   11  C   UNL     1     -11.960  14.657  69.387  1.00  0.00    -0.313 A  
HETATM   12  C   UNL     1     -11.658  15.662  68.462  1.00  0.00    -0.378 A  
HETATM   13  N   UNL     1     -12.339  14.755  70.704  1.00  0.00    -0.314 NA 
HETATM   14  C   UNL     1     -11.283  15.267  67.174  1.00  0.00    -0.291 A  
HETATM   15  H   UNL     1     -12.455  15.631  71.213  1.00  0.00     0.000 HD 
HETATM   16  C   UNL     1     -12.539  13.512  71.236  1.00  0.00    -0.341 A  
HETATM   17  C   UNL     1     -12.314  12.573  70.245  1.00  0.00    -0.265 A  
BRANCH  17  18
HETATM   18  C   UNL     1     -12.463  11.081  70.392  1.00  0.00    -0.397 C  
BRANCH  18  19
HETATM   19  C   UNL     1     -12.984  10.684  71.791  1.00  0.00    -0.472 C  
BRANCH  19  20
HETATM   20  N   UNL     1     -12.912   9.243  72.120  1.00  0.00    -0.408 NA 
HETATM   21  C   UNL     1     -11.897   8.605  71.272  1.00  0.00    -0.295 C  
HETATM   22  C   UNL     1     -14.195   8.564  71.934  1.00  0.00    -0.455 C  
ENDBRANCH  19  20
ENDBRANCH  18  19
ENDBRANCH  17  18
ENDBRANCH   7   8
ENDBRANCH   4   7
ENDBRANCH   2   4
TORSDOF 6
ENDMDL
MODEL        4
REMARK 921   NORMALIZED FREE ENERGY PREDICTED BY IDOCK:   -6.44 KCAL/MOL
REMARK 922        TOTAL FREE ENERGY PREDICTED BY IDOCK:   -8.73 KCAL/MOL
REMARK 923 INTER-LIGAND FREE ENERGY PREDICTED BY IDOCK:   -8.21 KCAL/MOL
REMARK 924 INTRA-LIGAND FREE ENERGY PREDICTED BY IDOCK:   -0.52 KCAL/MOL
REMARK 927      BINDING AFFINITY PREDICTED BY RF-SCORE:    0.00 PKD
ROOT
HETATM    1  C   UNL     1     -12.494  15.967  74.477  1.00  0.00    -0.581 C  
HETATM    2  N   UNL     1     -13.632  15.985  73.549  1.00  0.00    -0.844 N  
HETATM    3  H   UNL     1     -14.437  16.593  73.702  1.00  0.00     0.000 HD 
ENDROOT
BRANCH   2   4
HETATM    4  S   UNL     1     -13.545  14.949  72.210  1.00  0.00    -0.485 S  
HETATM    5  O   UNL     1     -13.901  13.644  72.724  1.00  0.00    -0.727 OA 
HETATM    6  O   UNL     1     -14.326  15.589  71.174  1.00  0.00    -0.516 OA 
BRANCH   4   7
HETATM    7  C   UNL     1     -11.785  14.998  71.823  1.00  0.00    -0.385 C  
BRANCH   7   8
HETATM    8  C   UNL     1     -11.556  15.089  70.335  1.00  0.00    -0.330 A  
HETATM    9  C   UNL     1     -11.229  16.317  69.726  1.00  0.00    -0.314 A  
HETATM   10  C   UNL     1     -10.951  16.380  68.344  1.00  0.00    -0.353 A  
HETATM   11  C   UNL     1     -10.967  15.191  67.618  1.00  0.00    -0.308 A  
HETATM   12  C   UNL     1     -11.278  13.953  68.190  1.00  0.00    -0.293 A  
HETATM   13  N   UNL     1     -10.631  15.505  66.324  1.00  0.00    -0.301 NA 
HETATM   14  C   UNL     1     -11.575  13.925  69.557  1.00  0.00    -0.358 A  
HETATM   15  H   UNL     1     -10.557  14.832  65.562  1.00  0.00     0.000 HD 
HETATM   16  C   UNL     1     -10.410  16.849  66.202  1.00  0.00    -0.320 A  
HETATM   17  C   UNL     1     -10.630  17.440  67.434  1.00  0.00    -0.308 A  
BRANCH  17  18
HETATM   18  C   UNL     1     -10.537  18.912  67.735  1.00  0.00    -0.471 C  
BRANCH  18  19
HETATM   19  C   UNL     1      -9.323  19.248  68.630  1.00  0.00    -0.392 C  
BRANCH  19  20
HETATM   20  N   UNL     1      -7.995  19.090  67.998  1.00  0.00    -0.280 NA 
HETATM   21  C   UNL     1      -6.958  19.140  69.037  1.00  0.00    -0.335 C  
HETATM   22  C   UNL     1      -7.727  20.123  66.997  1.00  0.00    -0.315 C  
ENDBRANCH  19  20
ENDBRANCH  18  19
ENDBRANCH  17  18
ENDBRANCH   7   8
ENDBRANCH   4   7
ENDBRANCH   2   4
TORSDOF 6
ENDMDL
MODEL        5
REMARK 921   NORMALIZED FREE ENERGY PREDICTED BY IDOCK:   -6.37 KCAL/MOL
REMARK 922        TOTAL FREE ENERGY PREDICTED BY IDOCK:   -8.63 KCAL/MOL
REMARK 923 INTER-LIGAND FREE ENERGY PREDICTED BY IDOCK:   -8.34 KCAL/MOL
REMARK 924 INTRA-LIGAND FREE ENERGY PREDICTED BY IDOCK:   -0.29 KCAL/MOL
REMARK 927      BINDING AFFINITY PREDICTED BY RF-SCORE:    0.00 PKD
ROOT
HETATM    1  C   UNL     1     -10.370  10.908  63.183  1.00  0.00    -0.109 C  
HETATM    2  N   UNL     1     -11.704  11.493  62.997  1.00  0.00    -0.874 N  
HETATM    3  H   UNL     1     -12.371  11.103  62.332  1.00  0.00     0.000 HD 
ENDROOT
BRANCH   2   4
HETATM    4  S   UNL     1     -12.084  12.849  63.942  1.00  0.00    -0.496 S  
HETATM    5  O   UNL     1     -12.438  13.880  62.992  1.00  0.00    -0.689 OA 
HETATM    6  O   UNL     1     -13.030  12.378  64.931  1.00  0.00    -0.762 OA 
BRANCH   4   7
HETATM    7  C   UNL     1     -10.490  13.227  64.696  1.00  0.00    -0.402 C  
BRANCH   7   8
HETATM    8  C   UNL     1     -10.605  14.374  65.668  1.00  0.00    -0.339 A  
HETATM    9  C   UNL     1     -10.949  14.151  67.016  1.00  0.00    -0.303 A  
HETATM   10  C   UNL     1     -10.989  15.223  67.933  1.00  0.00    -0.306 A  
HETATM   11  C   UNL     1     -10.637  16.490  67.474  1.00  0.00    -0.313 A  
HETATM   12  C   UNL     1     -10.282  16.749  66.146  1.00  0.00    -0.363 A  
HETATM   13  N   UNL     1     -10.715  17.342  68.549  1.00  0.00    -0.324 NA 
HETATM   14  C   UNL     1     -10.276  15.671  65.254  1.00  0.00    -0.358 A  
HETATM   15  H   UNL     1     -10.507  18.340  68.516  1.00  0.00     0.000 HD 
HETATM   16  C   UNL     1     -11.109  16.664  69.668  1.00  0.00    -0.144 A  
HETATM   17  C   UNL     1     -11.323  15.342  69.322  1.00  0.00    -0.308 A  
BRANCH  17  18
HETATM   18  C   UNL     1     -11.807  14.255  70.246  1.00  0.00    -0.377 C  
BRANCH  18  19
HETATM   19  C   UNL     1     -11.912  14.739  71.709  1.00  0.00    -0.339 C  
BRANCH  19  20
HETATM   20  N   UNL     1     -13.101  15.559  72.032  1.00  0.00    -0.417 NA 
HETATM   21  C   UNL     1     -13.159  15.775  73.484  1.00  0.00    -0.548 C  
HETATM   22  C   UNL     1     -14.347  14.934  71.585  1.00  0.00    -0.570 C  
ENDBRANCH  19  20
ENDBRANCH  18  19
ENDBRANCH  17  18
ENDBRANCH   7   8
ENDBRANCH   4   7
ENDBRANCH   2   4
TORSDOF 6
ENDMDL
MODEL        6
REMARK 921   NORMALIZED FREE ENERGY PREDICTED BY IDOCK:   -6.36 KCAL/MOL
REMARK 922        TOTAL FREE ENERGY PREDICTED BY IDOCK:   -8.62 KCAL/MOL
REMARK 923 INTER-LIGAND FREE ENERGY PREDICTED BY IDOCK:   -8.24 KCAL/MOL
REMARK 924 INTRA-LIGAND FREE ENERGY PREDICTED BY IDOCK:   -0.38 KCAL/MOL
REMARK 927      BINDING AFFINITY PREDICTED BY RF-SCORE:    0.00 PKD
ROOT
HETATM    1  C   UNL     1     -11.434  15.998  64.205  1.00  0.00    -0.157 C  
HETATM    2  N   UNL     1     -12.359  14.885  63.960  1.00  0.00    -1.021 N  
HETATM    3  H   UNL     1     -13.213  15.008  63.415  1.00  0.00     0.000 HD 
ENDROOT
BRANCH   2   4
HETATM    4  S   UNL     1     -11.943  13.382  64.625  1.00  0.00    -0.422 S  
HETATM    5  O   UNL     1     -13.205  12.741  64.922  1.00  0.00    -0.808 OA 
HETATM    6  O   UNL     1     -10.999  12.796  63.697  1.00  0.00    -0.425 OA 
BRANCH   4   7
HETATM    7  C   UNL     1     -11.128  13.874  66.157  1.00  0.00    -0.299 C  
BRANCH   7   8
HETATM    8  C   UNL     1     -11.188  12.772  67.185  1.00  0.00    -0.336 A  
HETATM    9  C   UNL     1     -11.844  12.966  68.417  1.00  0.00    -0.357 A  
HETATM   10  C   UNL     1     -11.953  11.908  69.345  1.00  0.00    -0.350 A  
HETATM   11  C   UNL     1     -11.435  10.666  68.986  1.00  0.00    -0.274 A  
HETATM   12  C   UNL     1     -10.786  10.434  67.769  1.00  0.00    -0.351 A  
HETATM   13  N   UNL     1     -11.697   9.806  70.024  1.00  0.00    -0.435 NA 
HETATM   14  C   UNL     1     -10.670  11.507  66.879  1.00  0.00    -0.304 A  
HETATM   15  H   UNL     1     -11.437   8.820  70.042  1.00  0.00     0.000 HD 
HETATM   16  C   UNL     1     -12.355  10.458  71.029  1.00  0.00    -0.387 A  
HETATM   17  C   UNL     1     -12.508  11.783  70.661  1.00  0.00    -0.364 A  
BRANCH  17  18
HETATM   18  C   UNL     1     -13.143  12.864  71.496  1.00  0.00    -0.390 C  
BRANCH  18  19
HETATM   19  C   UNL     1     -12.184  14.050  71.740  1.00  0.00    -0.080 C  
BRANCH  19  20
HETATM   20  N   UNL     1     -12.802  15.394  71.710  1.00  0.00    -0.375 NA 
HETATM   21  C   UNL     1     -11.952  16.332  72.455  1.00  0.00    -0.540 C  
HETATM   22  C   UNL     1     -14.149  15.401  72.281  1.00  0.00    -0.564 C  
ENDBRANCH  19  20
ENDBRANCH  18  19
ENDBRANCH  17  18
ENDBRANCH   7   8
ENDBRANCH   4   7
ENDBRANCH   2   4
TORSDOF 6
ENDMDL
MODEL        7
REMARK 921   NORMALIZED FREE ENERGY PREDICTED BY IDOCK:   -6.34 KCAL/MOL
REMARK 922        TOTAL FREE ENERGY PREDICTED BY IDOCK:   -8.60 KCAL/MOL
REMARK 923 INTER-LIGAND FREE ENERGY PREDICTED BY IDOCK:   -8.28 KCAL/MOL
REMARK 924 INTRA-LIGAND FREE ENERGY PREDICTED BY IDOCK:   -0.31 KCAL/MOL
REMARK 927      BINDING AFFINITY PREDICTED BY RF-SCORE:    0.00 PKD
ROOT
HETATM    1  C   UNL     1     -12.505  16.174  73.992  1.00  0.00    -0.595 C  
HETATM    2  N   UNL     1     -13.799  15.914  73.348  1.00  0.00    -0.704 N  
HETATM    3  H   UNL     1     -14.658  16.353  73.678  1.00  0.00     0.000 HD 
ENDROOT
BRANCH   2   4
HETATM    4  S   UNL     1     -13.798  14.848  72.030  1.00  0.00    -0.517 S  
HETATM    5  O   UNL     1     -14.400  13.633  72.530  1.00  0.00    -0.707 OA 
HETATM    6  O   UNL     1     -14.389  15.587  70.934  1.00  0.00    -0.392 OA 
BRANCH   4   7
HETATM    7  C   UNL     1     -12.032  14.596  71.765  1.00  0.00    -0.285 C  
BRANCH   7   8
HETATM    8  C   UNL     1     -11.618  15.044  70.386  1.00  0.00    -0.330 A  
HETATM    9  C   UNL     1     -11.836  14.225  69.260  1.00  0.00    -0.372 A  
HETATM   10  C   UNL     1     -11.506  14.681  67.967  1.00  0.00    -0.346 A  
HETATM   11  C   UNL     1     -11.003  15.974  67.837  1.00  0.00    -0.327 A  
HETATM   12  C   UNL     1     -10.781  16.819  68.929  1.00  0.00    -0.333 A  
HETATM   13  N   UNL     1     -10.800  16.193  66.496  1.00  0.00    -0.209 NA 
HETATM   14  C   UNL     1     -11.094  16.331  70.202  1.00  0.00    -0.346 A  
HETATM   15  H   UNL     1     -10.440  17.059  66.096  1.00  0.00     0.000 HD 
HETATM   16  C   UNL     1     -11.149  15.086  65.774  1.00  0.00    -0.346 A  
HETATM   17  C   UNL     1     -11.566  14.105  66.655  1.00  0.00    -0.399 A  
BRANCH  17  18
HETATM   18  C   UNL     1     -12.000  12.711  66.284  1.00  0.00    -0.439 C  
BRANCH  18  19
HETATM   19  C   UNL     1     -10.898  11.943  65.520  1.00  0.00    -0.295 C  
BRANCH  19  20
HETATM   20  N   UNL     1     -11.177  11.666  64.094  1.00  0.00    -0.357 NA 
HETATM   21  C   UNL     1      -9.920  11.727  63.336  1.00  0.00    -0.423 C  
HETATM   22  C   UNL     1     -12.135  12.611  63.520  1.00  0.00    -0.561 C  
ENDBRANCH  19  20
ENDBRANCH  18  19
ENDBRANCH  17  18
ENDBRANCH   7   8
ENDBRANCH   4   7
ENDBRANCH   2   4
TORSDOF 6
ENDMDL
MODEL        8
REMARK 921   NORMALIZED FREE ENERGY PREDICTED BY IDOCK:   -6.28 KCAL/MOL
REMARK 922        TOTAL FREE ENERGY PREDICTED BY IDOCK:   -8.52 KCAL/MOL
REMARK 923 INTER-LIGAND FREE ENERGY PREDICTED BY IDOCK:   -8.01 KCAL/MOL
REMARK 924 INTRA-LIGAND FREE ENERGY PREDICTED BY IDOCK:   -0.51 KCAL/MOL
REMARK 927      BINDING AFFINITY PREDICTED BY RF-SCORE:    0.00 PKD
ROOT
HETATM    1  C   UNL     1     -10.430  11.048  63.299  1.00  0.00    -0.190 C  
HETATM    2  N   UNL     1     -11.769  11.595  63.047  1.00  0.00    -0.851 N  
HETATM    3  H   UNL     1     -12.369  11.223  62.311  1.00  0.00     0.000 HD 
ENDROOT
BRANCH   2   4
HETATM    4  S   UNL     1     -12.274  12.873  64.040  1.00  0.00    -0.428 S  
HETATM    5  O   UNL     1     -12.466  13.991  63.142  1.00  0.00    -0.733 OA 
HETATM    6  O   UNL     1     -13.366  12.344  64.828  1.00  0.00    -0.718 OA 
BRANCH   4   7
HETATM    7  C   UNL     1     -10.810  13.146  65.057  1.00  0.00    -0.315 C  
BRANCH   7   8
HETATM    8  C   UNL     1     -11.078  12.806  66.501  1.00  0.00    -0.321 A  
HETATM    9  C   UNL     1     -11.489  13.796  67.416  1.00  0.00    -0.372 A  
HETATM   10  C   UNL     1     -11.801  13.455  68.748  1.00  0.00    -0.386 A  
HETATM   11  C   UNL     1     -11.734  12.112  69.114  1.00  0.00    -0.328 A  
HETATM   12  C   UNL     1     -11.341  11.101  68.232  1.00  0.00    -0.365 A  
HETATM   13  N   UNL     1     -12.118  12.034  70.431  1.00  0.00    -0.401 NA 
HETATM   14  C   UNL     1     -11.012  11.472  66.924  1.00  0.00    -0.350 A  
HETATM   15  H   UNL     1     -12.171  11.171  70.971  1.00  0.00     0.000 HD 
HETATM   16  C   UNL     1     -12.418  13.277  70.914  1.00  0.00    -0.342 A  
HETATM   17  C   UNL     1     -12.204  14.200  69.906  1.00  0.00    -0.416 A  
BRANCH  17  18
HETATM   18  C   UNL     1     -12.373  15.692  70.024  1.00  0.00    -0.304 C  
BRANCH  18  19
HETATM   19  C   UNL     1     -11.017  16.423  70.143  1.00  0.00    -0.285 C  
BRANCH  19  20
HETATM   20  N   UNL     1     -10.336  16.728  68.866  1.00  0.00    -0.297 NA 
HETATM   21  C   UNL     1      -9.020  16.075  68.853  1.00  0.00    -0.239 C  
HETATM   22  C   UNL     1     -10.165  18.166  68.655  1.00  0.00    -0.366 C  
ENDBRANCH  19  20
ENDBRANCH  18  19
ENDBRANCH  17  18
ENDBRANCH   7   8
ENDBRANCH   4   7
ENDBRANCH   2   4
TORSDOF 6
ENDMDL
MODEL        9
REMARK 921   NORMALIZED FREE ENERGY PREDICTED BY IDOCK:   -6.22 KCAL/MOL
REMARK 922        TOTAL FREE ENERGY PREDICTED BY IDOCK:   -8.43 KCAL/MOL
REMARK 923 INTER-LIGAND FREE ENERGY PREDICTED BY IDOCK:   -7.96 KCAL/MOL
REMARK 924 INTRA-LIGAND FREE ENERGY PREDICTED BY IDOCK:   -0.47 KCAL/MOL
REMARK 927      BINDING AFFINITY PREDICTED BY RF-SCORE:    0.00 PKD
ROOT
HETATM    1  C   UNL     1     -10.509  11.757  63.424  1.00  0.00    -0.434 C  
HETATM    2  N   UNL     1     -11.540  12.751  63.100  1.00  0.00    -0.817 N  
HETATM    3  H   UNL     1     -11.798  12.958  62.136  1.00  0.00     0.000 HD 
ENDROOT
BRANCH   2   4
HETATM    4  S   UNL     1     -12.281  13.539  64.406  1.00  0.00    -0.369 S  
HETATM    5  O   UNL     1     -12.655  14.839  63.895  1.00  0.00    -0.834 OA 
HETATM    6  O   UNL     1     -13.273  12.611  64.905  1.00  0.00    -0.819 OA 
BRANCH   4   7
HETATM    7  C   UNL     1     -10.906  13.705  65.561  1.00  0.00    -0.294 C  
BRANCH   7   8
HETATM    8  C   UNL     1     -11.267  13.159  66.920  1.00  0.00    -0.328 A  
HETATM    9  C   UNL     1     -10.968  11.827  67.269  1.00  0.00    -0.318 A  
HETATM   10  C   UNL     1     -11.248  11.346  68.565  1.00  0.00    -0.309 A  
HETATM   11  C   UNL     1     -11.785  12.236  69.493  1.00  0.00    -0.332 A  
HETATM   12  C   UNL     1     -12.087  13.567  69.185  1.00  0.00    -0.331 A  
HETATM   13  N   UNL     1     -11.928  11.549  70.673  1.00  0.00    -0.433 NA 
HETATM   14  C   UNL     1     -11.821  14.010  67.885  1.00  0.00    -0.411 A  
HETATM   15  H   UNL     1     -12.296  11.947  71.537  1.00  0.00     0.000 HD 
HETATM   16  C   UNL     1     -11.509  10.256  70.526  1.00  0.00    -0.343 A  
HETATM   17  C   UNL     1     -11.105  10.076  69.216  1.00  0.00    -0.248 A  
BRANCH  17  18
HETATM   18  C   UNL     1     -10.610   8.787  68.614  1.00  0.00    -0.174 C  
BRANCH  18  19
HETATM   19  C   UNL     1     -10.858   7.578  69.543  1.00  0.00    -0.175 C  
BRANCH  19  20
HETATM   20  N   UNL     1     -11.195   6.306  68.868  1.00  0.00    -0.372 NA 
HETATM   21  C   UNL     1     -10.343   5.235  69.402  1.00  0.00    -0.243 C  
HETATM   22  C   UNL     1     -11.023   6.382  67.416  1.00  0.00    -0.376 C  
ENDBRANCH  19  20
ENDBRANCH  18  19
ENDBRANCH  17  18
ENDBRANCH   7   8
ENDBRANCH   4   7
ENDBRANCH   2   4
TORSDOF 6
ENDMDL
MODEL       10
REMARK 921   NORMALIZED FREE ENERGY PREDICTED BY IDOCK:   -6.10 KCAL/MOL
REMARK 922        TOTAL FREE ENERGY PREDICTED BY IDOCK:   -8.27 KCAL/MOL
REMARK 923 INTER-LIGAND FREE ENERGY PREDICTED BY IDOCK:   -7.70 KCAL/MOL
REMARK 924 INTRA-LIGAND FREE ENERGY PREDICTED BY IDOCK:   -0.57 KCAL/MOL
REMARK 927      BINDING AFFINITY PREDICTED BY RF-SCORE:    0.00 PKD
ROOT
HETATM    1  C   UNL     1     -12.510  12.205  63.510  1.00  0.00    -0.555 C  
HETATM    2  N   UNL     1     -12.229  13.613  63.202  1.00  0.00    -1.046 N  
HETATM    3  H   UNL     1     -11.978  13.914  62.260  1.00  0.00     0.000 HD 
ENDROOT
BRANCH   2   4
HETATM    4  S   UNL     1     -12.342  14.716  64.484  1.00  0.00    -0.283 S  
HETATM    5  O   UNL     1     -12.235  16.020  63.868  1.00  0.00    -0.883 OA 
HETATM    6  O   UNL     1     -13.523  14.327  65.226  1.00  0.00    -0.564 OA 
BRANCH   4   7
HETATM    7  C   UNL     1     -10.842  14.351  65.415  1.00  0.00    -0.344 C  
BRANCH   7   8
HETATM    8  C   UNL     1     -11.163  13.687  66.730  1.00  0.00    -0.327 A  
HETATM    9  C   UNL     1     -10.866  12.327  66.948  1.00  0.00    -0.290 A  
HETATM   10  C   UNL     1     -11.109  11.732  68.204  1.00  0.00    -0.297 A  
HETATM   11  C   UNL     1     -11.606  12.539  69.225  1.00  0.00    -0.319 A  
HETATM   12  C   UNL     1     -11.903  13.894  69.049  1.00  0.00    -0.397 A  
HETATM   13  N   UNL     1     -11.717  11.749  70.343  1.00  0.00    -0.519 NA 
HETATM   14  C   UNL     1     -11.676  14.451  67.786  1.00  0.00    -0.407 A  
HETATM   15  H   UNL     1     -12.051  12.070  71.251  1.00  0.00     0.000 HD 
HETATM   16  C   UNL     1     -11.317  10.472  70.066  1.00  0.00    -0.318 A  
HETATM   17  C   UNL     1     -10.958  10.408  68.732  1.00  0.00    -0.287 A  
BRANCH  17  18
HETATM   18  C   UNL     1     -10.496   9.175  68.000  1.00  0.00    -0.276 C  
BRANCH  18  19
HETATM   19  C   UNL     1      -8.966   8.981  68.094  1.00  0.00    -0.133 C  
BRANCH  19  20
HETATM   20  N   UNL     1      -8.219   9.129  66.826  1.00  0.00    -0.118 NA 
HETATM   21  C   UNL     1      -7.564  10.443  66.802  1.00  0.00    -0.110 C  
HETATM   22  C   UNL     1      -9.082   8.997  65.651  1.00  0.00    -0.223 C  
ENDBRANCH  19  20
ENDBRANCH  18  19
ENDBRANCH  17  18
ENDBRANCH   7   8
ENDBRANCH   4   7
ENDBRANCH   2   4
TORSDOF 6
ENDMDL
MODEL       11
REMARK 921   NORMALIZED FREE ENERGY PREDICTED BY IDOCK:   -6.06 KCAL/MOL
REMARK 922        TOTAL FREE ENERGY PREDICTED BY IDOCK:   -8.21 KCAL/MOL
REMARK 923 INTER-LIGAND FREE ENERGY PREDICTED BY IDOCK:   -7.92 KCAL/MOL
REMARK 924 INTRA-LIGAND FREE ENERGY PREDICTED BY IDOCK:   -0.30 KCAL/MOL
REMARK 927      BINDING AFFINITY PREDICTED BY RF-SCORE:    0.00 PKD
ROOT
HETATM    1  C   UNL     1      -9.872  11.251  63.114  1.00  0.00    -0.375 C  
HETATM    2  N   UNL     1     -11.304  11.432  63.384  1.00  0.00    -0.801 N  
HETATM    3  H   UNL     1     -12.014  10.913  62.869  1.00  0.00     0.000 HD 
ENDROOT
BRANCH   2   4
HETATM    4  S   UNL     1     -11.720  12.545  64.593  1.00  0.00    -0.380 S  
HETATM    5  O   UNL     1     -11.108  13.789  64.183  1.00  0.00    -0.329 OA 
HETATM    6  O   UNL     1     -13.154  12.426  64.751  1.00  0.00    -0.806 OA 
BRANCH   4   7
HETATM    7  C   UNL     1     -10.851  11.874  66.023  1.00  0.00    -0.299 C  
BRANCH   7   8
HETATM    8  C   UNL     1     -11.358  12.484  67.306  1.00  0.00    -0.373 A  
HETATM    9  C   UNL     1     -11.743  11.674  68.393  1.00  0.00    -0.374 A  
HETATM   10  C   UNL     1     -12.152  12.255  69.611  1.00  0.00    -0.277 A  
HETATM   11  C   UNL     1     -12.121  13.644  69.717  1.00  0.00    -0.334 A  
HETATM   12  C   UNL     1     -11.737  14.480  68.663  1.00  0.00    -0.364 A  
HETATM   13  N   UNL     1     -12.520  13.959  70.992  1.00  0.00    -0.360 NA 
HETATM   14  C   UNL     1     -11.361  13.876  67.459  1.00  0.00    -0.342 A  
HETATM   15  H   UNL     1     -12.591  14.906  71.363  1.00  0.00     0.000 HD 
HETATM   16  C   UNL     1     -12.809  12.823  71.696  1.00  0.00    -0.261 A  
HETATM   17  C   UNL     1     -12.623  11.735  70.861  1.00  0.00    -0.384 A  
BRANCH  17  18
HETATM   18  C   UNL     1     -12.870  10.294  71.221  1.00  0.00    -0.522 C  
BRANCH  18  19
HETATM   19  C   UNL     1     -11.556   9.488  71.331  1.00  0.00    -0.395 C  
BRANCH  19  20
HETATM   20  N   UNL     1     -11.708   8.045  71.617  1.00  0.00    -0.272 NA 
HETATM   21  C   UNL     1     -11.070   7.738  72.904  1.00  0.00    -0.398 C  
HETATM   22  C   UNL     1     -11.120   7.205  70.573  1.00  0.00    -0.271 C  
ENDBRANCH  19  20
ENDBRANCH  18  19
ENDBRANCH  17  18
ENDBRANCH   7   8
ENDBRANCH   4   7
ENDBRANCH   2   4
TORSDOF 6
ENDMDL
MODEL       12
REMARK 921   NORMALIZED FREE ENERGY PREDICTED BY IDOCK:   -6.06 KCAL/MOL
REMARK 922        TOTAL FREE ENERGY PREDICTED BY IDOCK:   -8.21 KCAL/MOL
REMARK 923 INTER-LIGAND FREE ENERGY PREDICTED BY IDOCK:   -8.19 KCAL/MOL
REMARK 924 INTRA-LIGAND FREE ENERGY PREDICTED BY IDOCK:   -0.02 KCAL/MOL
REMARK 927      BINDING AFFINITY PREDICTED BY RF-SCORE:    0.00 PKD
ROOT
HETATM    1  C   UNL     1     -12.363  15.789  74.443  1.00  0.00    -0.648 C  
HETATM    2  N   UNL     1     -13.156  16.042  73.233  1.00  0.00    -0.555 N  
HETATM    3  H   UNL     1     -13.884  16.755  73.211  1.00  0.00     0.000 HD 
ENDROOT
BRANCH   2   4
HETATM    4  S   UNL     1     -12.803  15.092  71.874  1.00  0.00    -0.382 S  
HETATM    5  O   UNL     1     -13.634  15.628  70.817  1.00  0.00    -0.524 OA 
HETATM    6  O   UNL     1     -11.360  15.087  71.769  1.00  0.00    -0.369 OA 
BRANCH   4   7
HETATM    7  C   UNL     1     -13.424  13.478  72.384  1.00  0.00    -0.584 C  
BRANCH   7   8
HETATM    8  C   UNL     1     -12.912  12.386  71.479  1.00  0.00    -0.385 A  
HETATM    9  C   UNL     1     -12.406  12.682  70.198  1.00  0.00    -0.222 A  
HETATM   10  C   UNL     1     -11.868  11.662  69.386  1.00  0.00    -0.408 A  
HETATM   11  C   UNL     1     -11.814  10.371  69.906  1.00  0.00    -0.238 A  
HETATM   12  C   UNL     1     -12.297  10.040  71.176  1.00  0.00    -0.477 A  
HETATM   13  N   UNL     1     -11.221   9.579  68.954  1.00  0.00    -0.457 NA 
HETATM   14  C   UNL     1     -12.848  11.068  71.949  1.00  0.00    -0.412 A  
HETATM   15  H   UNL     1     -11.042   8.580  69.057  1.00  0.00     0.000 HD 
HETATM   16  C   UNL     1     -10.904  10.317  67.849  1.00  0.00    -0.284 A  
HETATM   17  C   UNL     1     -11.320  11.620  68.062  1.00  0.00    -0.366 A  
BRANCH  17  18
HETATM   18  C   UNL     1     -11.203  12.756  67.080  1.00  0.00    -0.336 C  
BRANCH  18  19
HETATM   19  C   UNL     1     -11.776  12.388  65.693  1.00  0.00    -0.414 C  
BRANCH  19  20
HETATM   20  N   UNL     1     -11.252  13.169  64.552  1.00  0.00    -0.337 NA 
HETATM   21  C   UNL     1     -12.285  14.106  64.093  1.00  0.00    -0.390 C  
HETATM   22  C   UNL     1     -10.840  12.317  63.435  1.00  0.00    -0.403 C  
ENDBRANCH  19  20
ENDBRANCH  18  19
ENDBRANCH  17  18
ENDBRANCH   7   8
ENDBRANCH   4   7
ENDBRANCH   2   4
TORSDOF 6
ENDMDL
MODEL       13
REMARK 921   NORMALIZED FREE ENERGY PREDICTED BY IDOCK:   -5.98 KCAL/MOL
REMARK 922        TOTAL FREE ENERGY PREDICTED BY IDOCK:   -8.10 KCAL/MOL
REMARK 923 INTER-LIGAND FREE ENERGY PREDICTED BY IDOCK:   -8.27 KCAL/MOL
REMARK 924 INTRA-LIGAND FREE ENERGY PREDICTED BY IDOCK:    0.17 KCAL/MOL
REMARK 927      BINDING AFFINITY PREDICTED BY RF-SCORE:    0.00 PKD
ROOT
HETATM    1  C   UNL     1     -10.348  11.010  63.399  1.00  0.00    -0.312 C  
HETATM    2  N   UNL     1     -11.674  11.564  63.098  1.00  0.00    -0.890 N  
HETATM    3  H   UNL     1     -12.289  11.134  62.408  1.00  0.00     0.000 HD 
ENDROOT
BRANCH   2   4
HETATM    4  S   UNL     1     -12.137  12.953  63.954  1.00  0.00    -0.496 S  
HETATM    5  O   UNL     1     -12.424  13.940  62.937  1.00  0.00    -0.572 OA 
HETATM    6  O   UNL     1     -13.153  12.513  64.886  1.00  0.00    -0.833 OA 
BRANCH   4   7
HETATM    7  C   UNL     1     -10.609  13.380  64.811  1.00  0.00    -0.405 C  
BRANCH   7   8
HETATM    8  C   UNL     1     -10.845  13.561  66.289  1.00  0.00    -0.291 A  
HETATM    9  C   UNL     1     -10.644  14.811  66.908  1.00  0.00    -0.294 A  
HETATM   10  C   UNL     1     -10.932  14.987  68.277  1.00  0.00    -0.274 A  
HETATM   11  C   UNL     1     -11.458  13.906  68.981  1.00  0.00    -0.299 A  
HETATM   12  C   UNL     1     -11.679  12.653  68.399  1.00  0.00    -0.377 A  
HETATM   13  N   UNL     1     -11.687  14.335  70.265  1.00  0.00    -0.362 NA 
HETATM   14  C   UNL     1     -11.361  12.501  67.045  1.00  0.00    -0.386 A  
HETATM   15  H   UNL     1     -12.076  13.758  71.011  1.00  0.00     0.000 HD 
HETATM   16  C   UNL     1     -11.319  15.644  70.404  1.00  0.00    -0.358 A  
HETATM   17  C   UNL     1     -10.812  16.083  69.194  1.00  0.00    -0.281 A  
BRANCH  17  18
HETATM   18  C   UNL     1     -10.253  17.454  68.917  1.00  0.00    -0.352 C  
BRANCH  18  19
HETATM   19  C   UNL     1     -10.902  18.108  67.676  1.00  0.00    -0.238 C  
BRANCH  19  20
HETATM   20  N   UNL     1     -10.514  19.510  67.410  1.00  0.00    -0.444 NA 
HETATM   21  C   UNL     1     -10.571  19.761  65.964  1.00  0.00    -0.468 C  
HETATM   22  C   UNL     1      -9.171  19.820  67.903  1.00  0.00    -0.340 C  
ENDBRANCH  19  20
ENDBRANCH  18  19
ENDBRANCH  17  18
ENDBRANCH   7   8
ENDBRANCH   4   7
ENDBRANCH   2   4
TORSDOF 6
ENDMDL
MODEL       14
REMARK 921   NORMALIZED FREE ENERGY PREDICTED BY IDOCK:   -5.90 KCAL/MOL
REMARK 922        TOTAL FREE ENERGY PREDICTED BY IDOCK:   -8.00 KCAL/MOL
REMARK 923 INTER-LIGAND FREE ENERGY PREDICTED BY IDOCK:   -7.54 KCAL/MOL
REMARK 924 INTRA-LIGAND FREE ENERGY PREDICTED BY IDOCK:   -0.46 KCAL/MOL
REMARK 927      BINDING AFFINITY PREDICTED BY RF-SCORE:    0.00 PKD
ROOT
HETATM    1  C   UNL     1     -10.484   7.031  73.626  1.00  0.00    -0.376 C  
HETATM    2  N   UNL     1     -11.698   7.425  72.900  1.00  0.00    -0.582 N  
HETATM    3  H   UNL     1     -12.619   7.081  73.172  1.00  0.00     0.000 HD 
ENDROOT
BRANCH   2   4
HETATM    4  S   UNL     1     -11.498   8.480  71.588  1.00  0.00    -0.323 S  
HETATM    5  O   UNL     1     -10.331   9.270  71.918  1.00  0.00    -0.286 OA 
HETATM    6  O   UNL     1     -11.532   7.642  70.409  1.00  0.00    -0.259 OA 
BRANCH   4   7
HETATM    7  C   UNL     1     -12.982   9.497  71.707  1.00  0.00    -0.412 C  
BRANCH   7   8
HETATM    8  C   UNL     1     -12.730  10.892  71.193  1.00  0.00    -0.530 A  
HETATM    9  C   UNL     1     -12.256  11.109  69.884  1.00  0.00    -0.385 A  
HETATM   10  C   UNL     1     -12.087  12.419  69.390  1.00  0.00    -0.237 A  
HETATM   11  C   UNL     1     -12.444  13.482  70.218  1.00  0.00    -0.239 A  
HETATM   12  C   UNL     1     -12.926  13.306  71.518  1.00  0.00    -0.426 A  
HETATM   13  N   UNL     1     -12.228  14.636  69.505  1.00  0.00    -0.484 NA 
HETATM   14  C   UNL     1     -13.059  11.996  71.990  1.00  0.00    -0.456 A  
HETATM   15  H   UNL     1     -12.405  15.577  69.855  1.00  0.00     0.000 HD 
HETATM   16  C   UNL     1     -11.741  14.345  68.261  1.00  0.00    -0.341 A  
HETATM   17  C   UNL     1     -11.607  12.972  68.157  1.00  0.00    -0.379 A  
BRANCH  17  18
HETATM   18  C   UNL     1     -11.065  12.226  66.966  1.00  0.00    -0.339 C  
BRANCH  18  19
HETATM   19  C   UNL     1     -10.452  13.176  65.914  1.00  0.00    -0.280 C  
BRANCH  19  20
HETATM   20  N   UNL     1     -11.232  13.349  64.669  1.00  0.00    -0.343 NA 
HETATM   21  C   UNL     1     -11.746  14.723  64.609  1.00  0.00    -0.422 C  
HETATM   22  C   UNL     1     -12.350  12.409  64.577  1.00  0.00    -0.438 C  
ENDBRANCH  19  20
ENDBRANCH  18  19
ENDBRANCH  17  18
ENDBRANCH   7   8
ENDBRANCH   4   7
ENDBRANCH   2   4
TORSDOF 6
ENDMDL
MODEL       15
REMARK 921   NORMALIZED FREE ENERGY PREDICTED BY IDOCK:   -5.89 KCAL/MOL
REMARK 922        TOTAL FREE ENERGY PREDICTED BY IDOCK:   -7.99 KCAL/MOL
REMARK 923 INTER-LIGAND FREE ENERGY PREDICTED BY IDOCK:   -7.65 KCAL/MOL
REMARK 924 INTRA-LIGAND FREE ENERGY PREDICTED BY IDOCK:   -0.34 KCAL/MOL
REMARK 927      BINDING AFFINITY PREDICTED BY RF-SCORE:    0.00 PKD
ROOT
HETATM    1  C   UNL     1     -11.179   6.444  70.574  1.00  0.00    -0.352 C  
HETATM    2  N   UNL     1     -11.758   7.736  70.185  1.00  0.00    -0.474 N  
HETATM    3  H   UNL     1     -12.272   7.851  69.311  1.00  0.00     0.000 HD 
ENDROOT
BRANCH   2   4
HETATM    4  S   UNL     1     -11.534   9.029  71.258  1.00  0.00    -0.348 S  
HETATM    5  O   UNL     1     -11.490   8.424  72.570  1.00  0.00    -0.380 OA 
HETATM    6  O   UNL     1     -10.411   9.777  70.734  1.00  0.00    -0.294 OA 
BRANCH   4   7
HETATM    7  C   UNL     1     -13.075   9.944  71.055  1.00  0.00    -0.329 C  
BRANCH   7   8
HETATM    8  C   UNL     1     -12.824  11.430  70.999  1.00  0.00    -0.381 A  
HETATM    9  C   UNL     1     -12.316  12.036  69.832  1.00  0.00    -0.143 A  
HETATM   10  C   UNL     1     -12.148  13.435  69.767  1.00  0.00    -0.374 A  
HETATM   11  C   UNL     1     -12.539  14.194  70.868  1.00  0.00    -0.363 A  
HETATM   12  C   UNL     1     -13.055  13.629  72.038  1.00  0.00    -0.484 A  
HETATM   13  N   UNL     1     -12.316  15.511  70.548  1.00  0.00    -0.402 NA 
HETATM   14  C   UNL     1     -13.187  12.237  72.085  1.00  0.00    -0.466 A  
HETATM   15  H   UNL     1     -12.513  16.301  71.162  1.00  0.00     0.000 HD 
HETATM   16  C   UNL     1     -11.793  15.614  69.289  1.00  0.00    -0.363 A  
HETATM   17  C   UNL     1     -11.641  14.339  68.775  1.00  0.00    -0.357 A  
BRANCH  17  18
HETATM   18  C   UNL     1     -11.058  13.992  67.430  1.00  0.00    -0.317 C  
BRANCH  18  19
HETATM   19  C   UNL     1     -12.152  13.755  66.366  1.00  0.00    -0.444 C  
BRANCH  19  20
HETATM   20  N   UNL     1     -12.178  12.406  65.759  1.00  0.00    -0.638 NA 
HETATM   21  C   UNL     1     -10.963  11.679  66.147  1.00  0.00    -0.288 C  
HETATM   22  C   UNL     1     -12.271  12.453  64.300  1.00  0.00    -0.452 C  
ENDBRANCH  19  20
ENDBRANCH  18  19
ENDBRANCH  17  18
ENDBRANCH   7   8
ENDBRANCH   4   7
ENDBRANCH   2   4
TORSDOF 6
ENDMDL
MODEL       16
REMARK 921   NORMALIZED FREE ENERGY PREDICTED BY IDOCK:   -5.84 KCAL/MOL
REMARK 922        TOTAL FREE ENERGY PREDICTED BY IDOCK:   -7.92 KCAL/MOL
REMARK 923 INTER-LIGAND FREE ENERGY PREDICTED BY IDOCK:   -7.75 KCAL/MOL
REMARK 924 INTRA-LIGAND FREE ENERGY PREDICTED BY IDOCK:   -0.17 KCAL/MOL
REMARK 927      BINDING AFFINITY PREDICTED BY RF-SCORE:    0.00 PKD
ROOT
HETATM    1  C   UNL     1     -10.688   7.241  69.704  1.00  0.00    -0.236 C  
HETATM    2  N   UNL     1     -11.863   7.835  70.354  1.00  0.00    -0.484 N  
HETATM    3  H   UNL     1     -12.810   7.639  70.030  1.00  0.00     0.000 HD 
ENDROOT
BRANCH   2   4
HETATM    4  S   UNL     1     -11.572   8.864  71.670  1.00  0.00    -0.364 S  
HETATM    5  O   UNL     1     -11.527   7.992  72.823  1.00  0.00    -0.402 OA 
HETATM    6  O   UNL     1     -10.430   9.667  71.288  1.00  0.00    -0.301 OA 
BRANCH   4   7
HETATM    7  C   UNL     1     -13.080   9.851  71.703  1.00  0.00    -0.437 C  
BRANCH   7   8
HETATM    8  C   UNL     1     -12.823  11.256  71.219  1.00  0.00    -0.491 A  
HETATM    9  C   UNL     1     -12.333  11.497  69.920  1.00  0.00    -0.247 A  
HETATM   10  C   UNL     1     -12.160  12.817  69.453  1.00  0.00    -0.248 A  
HETATM   11  C   UNL     1     -12.528  13.864  70.295  1.00  0.00    -0.314 A  
HETATM   12  C   UNL     1     -13.027  13.663  71.586  1.00  0.00    -0.448 A  
HETATM   13  N   UNL     1     -12.305  15.031  69.607  1.00  0.00    -0.534 NA 
HETATM   14  C   UNL     1     -13.164  12.344  72.032  1.00  0.00    -0.514 A  
HETATM   15  H   UNL     1     -12.488  15.966  69.972  1.00  0.00     0.000 HD 
HETATM   16  C   UNL     1     -11.803  14.764  68.364  1.00  0.00    -0.286 A  
HETATM   17  C   UNL     1     -11.666  13.393  68.236  1.00  0.00    -0.391 A  
BRANCH  17  18
HETATM   18  C   UNL     1     -11.108  12.669  67.039  1.00  0.00    -0.322 C  
BRANCH  18  19
HETATM   19  C   UNL     1     -12.116  12.617  65.869  1.00  0.00    -0.396 C  
BRANCH  19  20
HETATM   20  N   UNL     1     -11.647  13.191  64.589  1.00  0.00    -0.330 NA 
HETATM   21  C   UNL     1     -12.125  14.575  64.477  1.00  0.00    -0.484 C  
HETATM   22  C   UNL     1     -12.109  12.424  63.431  1.00  0.00    -0.524 C  
ENDBRANCH  19  20
ENDBRANCH  18  19
ENDBRANCH  17  18
ENDBRANCH   7   8
ENDBRANCH   4   7
ENDBRANCH   2   4
TORSDOF 6
ENDMDL
MODEL       17
REMARK 921   NORMALIZED FREE ENERGY PREDICTED BY IDOCK:   -5.82 KCAL/MOL
REMARK 922        TOTAL FREE ENERGY PREDICTED BY IDOCK:   -7.90 KCAL/MOL
REMARK 923 INTER-LIGAND FREE ENERGY PREDICTED BY IDOCK:   -7.53 KCAL/MOL
REMARK 924 INTRA-LIGAND FREE ENERGY PREDICTED BY IDOCK:   -0.37 KCAL/MOL
REMARK 927      BINDING AFFINITY PREDICTED BY RF-SCORE:    0.00 PKD
ROOT
HETATM    1  C   UNL     1     -10.099  11.909  63.854  1.00  0.00    -0.370 C  
HETATM    2  N   UNL     1     -10.497  11.191  65.071  1.00  0.00    -0.296 N  
HETATM    3  H   UNL     1     -10.523  10.172  65.106  1.00  0.00     0.000 HD 
ENDROOT
BRANCH   2   4
HETATM    4  S   UNL     1     -10.911  12.135  66.416  1.00  0.00    -0.302 S  
HETATM    5  O   UNL     1     -10.111  13.333  66.294  1.00  0.00    -0.280 OA 
HETATM    6  O   UNL     1     -12.358  12.192  66.419  1.00  0.00    -0.489 OA 
BRANCH   4   7
HETATM    7  C   UNL     1     -10.298  11.123  67.776  1.00  0.00    -0.187 C  
BRANCH   7   8
HETATM    8  C   UNL     1     -11.099  11.355  69.033  1.00  0.00    -0.300 A  
HETATM    9  C   UNL     1     -11.572  12.640  69.365  1.00  0.00    -0.369 A  
HETATM   10  C   UNL     1     -12.377  12.834  70.508  1.00  0.00    -0.355 A  
HETATM   11  C   UNL     1     -12.720  11.716  71.265  1.00  0.00    -0.340 A  
HETATM   12  C   UNL     1     -12.277  10.425  70.962  1.00  0.00    -0.498 A  
HETATM   13  N   UNL     1     -13.528  12.155  72.285  1.00  0.00    -0.556 NA 
HETATM   14  C   UNL     1     -11.460  10.266  69.837  1.00  0.00    -0.340 A  
HETATM   15  H   UNL     1     -13.940  11.556  73.000  1.00  0.00     0.000 HD 
HETATM   16  C   UNL     1     -13.704  13.508  72.207  1.00  0.00    -0.602 A  
HETATM   17  C   UNL     1     -12.976  13.979  71.129  1.00  0.00    -0.402 A  
BRANCH  17  18
HETATM   18  C   UNL     1     -12.856  15.420  70.706  1.00  0.00    -0.524 C  
BRANCH  18  19
HETATM   19  C   UNL     1     -11.434  15.978  70.940  1.00  0.00    -0.416 C  
BRANCH  19  20
HETATM   20  N   UNL     1     -10.668  16.318  69.721  1.00  0.00    -0.339 NA 
HETATM   21  C   UNL     1     -11.516  16.103  68.541  1.00  0.00    -0.324 C  
HETATM   22  C   UNL     1      -9.446  15.524  69.590  1.00  0.00    -0.243 C  
ENDBRANCH  19  20
ENDBRANCH  18  19
ENDBRANCH  17  18
ENDBRANCH   7   8
ENDBRANCH   4   7
ENDBRANCH   2   4
TORSDOF 6
ENDMDL
MODEL       18
REMARK 921   NORMALIZED FREE ENERGY PREDICTED BY IDOCK:   -5.81 KCAL/MOL
REMARK 922        TOTAL FREE ENERGY PREDICTED BY IDOCK:   -7.89 KCAL/MOL
REMARK 923 INTER-LIGAND FREE ENERGY PREDICTED BY IDOCK:   -7.41 KCAL/MOL
REMARK 924 INTRA-LIGAND FREE ENERGY PREDICTED BY IDOCK:   -0.47 KCAL/MOL
REMARK 927      BINDING AFFINITY PREDICTED BY RF-SCORE:    0.00 PKD
ROOT
HETATM    1  C   UNL     1     -11.453   6.537  71.263  1.00  0.00    -0.318 C  
HETATM    2  N   UNL     1     -12.122   7.712  70.690  1.00  0.00    -0.501 N  
HETATM    3  H   UNL     1     -12.606   7.667  69.794  1.00  0.00     0.000 HD 
ENDROOT
BRANCH   2   4
HETATM    4  S   UNL     1     -12.054   9.146  71.591  1.00  0.00    -0.387 S  
HETATM    5  O   UNL     1     -12.725   8.840  72.835  1.00  0.00    -0.306 OA 
HETATM    6  O   UNL     1     -10.665   9.555  71.564  1.00  0.00    -0.340 OA 
BRANCH   4   7
HETATM    7  C   UNL     1     -13.075  10.251  70.597  1.00  0.00    -0.226 C  
BRANCH   7   8
HETATM    8  C   UNL     1     -12.834  11.694  70.963  1.00  0.00    -0.339 A  
HETATM    9  C   UNL     1     -12.088  12.541  70.121  1.00  0.00    -0.368 A  
HETATM   10  C   UNL     1     -11.925  13.906  70.439  1.00  0.00    -0.393 A  
HETATM   11  C   UNL     1     -12.558  14.392  71.581  1.00  0.00    -0.353 A  
HETATM   12  C   UNL     1     -13.315  13.584  72.435  1.00  0.00    -0.641 A  
HETATM   13  N   UNL     1     -12.284  15.737  71.650  1.00  0.00    -0.418 NA 
HETATM   14  C   UNL     1     -13.438  12.230  72.108  1.00  0.00    -0.431 A  
HETATM   15  H   UNL     1     -12.621  16.362  72.381  1.00  0.00     0.000 HD 
HETATM   16  C   UNL     1     -11.496  16.118  70.600  1.00  0.00    -0.361 A  
HETATM   17  C   UNL     1     -11.220  14.999  69.835  1.00  0.00    -0.303 A  
BRANCH  17  18
HETATM   18  C   UNL     1     -10.350  14.963  68.606  1.00  0.00    -0.237 C  
BRANCH  18  19
HETATM   19  C   UNL     1     -11.148  15.268  67.319  1.00  0.00    -0.325 C  
BRANCH  19  20
HETATM   20  N   UNL     1     -10.980  14.301  66.212  1.00  0.00    -0.312 NA 
HETATM   21  C   UNL     1     -10.642  15.029  64.982  1.00  0.00    -0.412 C  
HETATM   22  C   UNL     1     -12.183  13.499  65.985  1.00  0.00    -0.445 C  
ENDBRANCH  19  20
ENDBRANCH  18  19
ENDBRANCH  17  18
ENDBRANCH   7   8
ENDBRANCH   4   7
ENDBRANCH   2   4
TORSDOF 6
ENDMDL
MODEL       19
REMARK 921   NORMALIZED FREE ENERGY PREDICTED BY IDOCK:   -5.81 KCAL/MOL
REMARK 922        TOTAL FREE ENERGY PREDICTED BY IDOCK:   -7.88 KCAL/MOL
REMARK 923 INTER-LIGAND FREE ENERGY PREDICTED BY IDOCK:   -7.38 KCAL/MOL
REMARK 924 INTRA-LIGAND FREE ENERGY PREDICTED BY IDOCK:   -0.50 KCAL/MOL
REMARK 927      BINDING AFFINITY PREDICTED BY RF-SCORE:    0.00 PKD
ROOT
HETATM    1  C   UNL     1     -11.745  15.907  64.210  1.00  0.00    -0.132 C  
HETATM    2  N   UNL     1     -12.427  14.646  63.892  1.00  0.00    -1.041 N  
HETATM    3  H   UNL     1     -12.933  14.518  63.016  1.00  0.00     0.000 HD 
ENDROOT
BRANCH   2   4
HETATM    4  S   UNL     1     -12.332  13.411  65.050  1.00  0.00    -0.438 S  
HETATM    5  O   UNL     1     -12.659  14.050  66.306  1.00  0.00    -0.451 OA 
HETATM    6  O   UNL     1     -13.134  12.327  64.525  1.00  0.00    -0.791 OA 
BRANCH   4   7
HETATM    7  C   UNL     1     -10.577  13.002  65.006  1.00  0.00    -0.319 C  
BRANCH   7   8
HETATM    8  C   UNL     1     -10.317  11.649  65.619  1.00  0.00    -0.306 A  
HETATM    9  C   UNL     1     -10.680  11.375  66.952  1.00  0.00    -0.308 A  
HETATM   10  C   UNL     1     -10.493  10.086  67.495  1.00  0.00    -0.307 A  
HETATM   11  C   UNL     1      -9.984   9.092  66.663  1.00  0.00    -0.278 A  
HETATM   12  C   UNL     1      -9.621   9.324  65.332  1.00  0.00    -0.237 A  
HETATM   13  N   UNL     1      -9.934   7.935  67.402  1.00  0.00    -0.179 NA 
HETATM   14  C   UNL     1      -9.793  10.618  64.828  1.00  0.00    -0.372 A  
HETATM   15  H   UNL     1      -9.607   7.035  67.052  1.00  0.00     0.000 HD 
HETATM   16  C   UNL     1     -10.386   8.161  68.672  1.00  0.00    -0.200 A  
HETATM   17  C   UNL     1     -10.716   9.500  68.785  1.00  0.00    -0.218 A  
BRANCH  17  18
HETATM   18  C   UNL     1     -11.217  10.184  70.030  1.00  0.00    -0.361 C  
BRANCH  18  19
HETATM   19  C   UNL     1     -10.949   9.347  71.301  1.00  0.00    -0.370 C  
BRANCH  19  20
HETATM   20  N   UNL     1     -12.148   8.827  71.994  1.00  0.00    -0.355 NA 
HETATM   21  C   UNL     1     -12.226   7.374  71.798  1.00  0.00    -0.326 C  
HETATM   22  C   UNL     1     -13.383   9.448  71.513  1.00  0.00    -0.386 C  
ENDBRANCH  19  20
ENDBRANCH  18  19
ENDBRANCH  17  18
ENDBRANCH   7   8
ENDBRANCH   4   7
ENDBRANCH   2   4
TORSDOF 6
ENDMDL
MODEL       20
REMARK 921   NORMALIZED FREE ENERGY PREDICTED BY IDOCK:   -5.80 KCAL/MOL
REMARK 922        TOTAL FREE ENERGY PREDICTED BY IDOCK:   -7.87 KCAL/MOL
REMARK 923 INTER-LIGAND FREE ENERGY PREDICTED BY IDOCK:   -7.39 KCAL/MOL
REMARK 924 INTRA-LIGAND FREE ENERGY PREDICTED BY IDOCK:   -0.48 KCAL/MOL
REMARK 927      BINDING AFFINITY PREDICTED BY RF-SCORE:    0.00 PKD
ROOT
HETATM    1  C   UNL     1     -10.036   7.967  66.951  1.00  0.00    -0.291 C  
HETATM    2  N   UNL     1     -10.958   8.799  67.735  1.00  0.00    -0.485 N  
HETATM    3  H   UNL     1     -11.696   8.387  68.306  1.00  0.00     0.000 HD 
ENDROOT
BRANCH   2   4
HETATM    4  S   UNL     1     -10.737  10.477  67.649  1.00  0.00    -0.295 S  
HETATM    5  O   UNL     1     -12.054  11.039  67.851  1.00  0.00    -0.600 OA 
HETATM    6  O   UNL     1      -9.645  10.771  68.553  1.00  0.00    -0.168 OA 
BRANCH   4   7
HETATM    7  C   UNL     1     -10.234  10.692  65.931  1.00  0.00    -0.251 C  
BRANCH   7   8
HETATM    8  C   UNL     1     -10.791  11.969  65.355  1.00  0.00    -0.336 A  
HETATM    9  C   UNL     1     -10.375  13.226  65.839  1.00  0.00    -0.293 A  
HETATM   10  C   UNL     1     -10.851  14.415  65.249  1.00  0.00    -0.370 A  
HETATM   11  C   UNL     1     -11.704  14.306  64.153  1.00  0.00    -0.256 A  
HETATM   12  C   UNL     1     -12.131  13.078  63.638  1.00  0.00    -0.604 A  
HETATM   13  N   UNL     1     -11.992  15.584  63.739  1.00  0.00    -0.916 NA 
HETATM   14  C   UNL     1     -11.663  11.915  64.260  1.00  0.00    -0.388 A  
HETATM   15  H   UNL     1     -12.593  15.818  62.949  1.00  0.00     0.000 HD 
HETATM   16  C   UNL     1     -11.360  16.497  64.536  1.00  0.00    -0.011 A  
HETATM   17  C   UNL     1     -10.660  15.811  65.513  1.00  0.00    -0.424 A  
BRANCH  17  18
HETATM   18  C   UNL     1      -9.857  16.434  66.625  1.00  0.00    -0.272 C  
BRANCH  18  19
HETATM   19  C   UNL     1      -8.363  16.572  66.256  1.00  0.00    -0.329 C  
BRANCH  19  20
HETATM   20  N   UNL     1      -7.912  17.934  65.897  1.00  0.00    -0.546 NA 
HETATM   21  C   UNL     1      -6.498  18.087  66.262  1.00  0.00    -0.228 C  
HETATM   22  C   UNL     1      -8.698  18.975  66.560  1.00  0.00    -0.322 C  
ENDBRANCH  19  20
ENDBRANCH  18  19
ENDBRANCH  17  18
ENDBRANCH   7   8
ENDBRANCH   4   7
ENDBRANCH   2   4
TORSDOF 6
ENDMDL
MODEL       21
REMARK 921   NORMALIZED FREE ENERGY PREDICTED BY IDOCK:   -5.78 KCAL/MOL
REMARK 922        TOTAL FREE ENERGY PREDICTED BY IDOCK:   -7.84 KCAL/MOL
REMARK 923 INTER-LIGAND FREE ENERGY PREDICTED BY IDOCK:   -7.37 KCAL/MOL
REMARK 924 INTRA-LIGAND FREE ENERGY PREDICTED BY IDOCK:   -0.47 KCAL/MOL
REMARK 927      BINDING AFFINITY PREDICTED BY RF-SCORE:    0.00 PKD
ROOT
HETATM    1  C   UNL     1      -7.881  19.997  65.835  1.00  0.00    -0.259 C  
HETATM    2  N   UNL     1      -9.322  20.255  65.956  1.00  0.00    -0.622 N  
HETATM    3  H   UNL     1      -9.707  21.195  65.862  1.00  0.00     0.000 HD 
ENDROOT
BRANCH   2   4
HETATM    4  S   UNL     1     -10.317  18.916  66.257  1.00  0.00    -0.457 S  
HETATM    5  O   UNL     1     -11.157  19.316  67.365  1.00  0.00    -0.444 OA 
HETATM    6  O   UNL     1     -10.881  18.556  64.974  1.00  0.00    -0.596 OA 
BRANCH   4   7
HETATM    7  C   UNL     1      -9.118  17.686  66.808  1.00  0.00    -0.260 C  
BRANCH   7   8
HETATM    8  C   UNL     1      -9.776  16.620  67.646  1.00  0.00    -0.250 A  
HETATM    9  C   UNL     1     -10.423  15.521  67.046  1.00  0.00    -0.304 A  
HETATM   10  C   UNL     1     -10.977  14.494  67.839  1.00  0.00    -0.277 A  
HETATM   11  C   UNL     1     -10.826  14.581  69.221  1.00  0.00    -0.252 A  
HETATM   12  C   UNL     1     -10.184  15.651  69.852  1.00  0.00    -0.297 A  
HETATM   13  N   UNL     1     -11.407  13.459  69.760  1.00  0.00    -0.483 NA 
HETATM   14  C   UNL     1      -9.666  16.667  69.042  1.00  0.00    -0.260 A  
HETATM   15  H   UNL     1     -11.447  13.246  70.756  1.00  0.00     0.000 HD 
HETATM   16  C   UNL     1     -11.926  12.670  68.772  1.00  0.00    -0.237 A  
HETATM   17  C   UNL     1     -11.708  13.294  67.557  1.00  0.00    -0.410 A  
BRANCH  17  18
HETATM   18  C   UNL     1     -12.156  12.787  66.211  1.00  0.00    -0.400 C  
BRANCH  18  19
HETATM   19  C   UNL     1     -10.981  12.226  65.379  1.00  0.00    -0.301 C  
BRANCH  19  20
HETATM   20  N   UNL     1     -11.120  12.338  63.911  1.00  0.00    -0.373 NA 
HETATM   21  C   UNL     1     -12.527  12.129  63.542  1.00  0.00    -0.555 C  
HETATM   22  C   UNL     1     -10.283  11.374  63.196  1.00  0.00    -0.334 C  
ENDBRANCH  19  20
ENDBRANCH  18  19
ENDBRANCH  17  18
ENDBRANCH   7   8
ENDBRANCH   4   7
ENDBRANCH   2   4
TORSDOF 6
ENDMDL
MODEL       22
REMARK 921   NORMALIZED FREE ENERGY PREDICTED BY IDOCK:   -5.78 KCAL/MOL
REMARK 922        TOTAL FREE ENERGY PREDICTED BY IDOCK:   -7.83 KCAL/MOL
REMARK 923 INTER-LIGAND FREE ENERGY PREDICTED BY IDOCK:   -7.44 KCAL/MOL
REMARK 924 INTRA-LIGAND FREE ENERGY PREDICTED BY IDOCK:   -0.40 KCAL/MOL
REMARK 927      BINDING AFFINITY PREDICTED BY RF-SCORE:    0.00 PKD
ROOT
HETATM    1  C   UNL     1     -12.427  16.326  74.160  1.00  0.00    -0.533 C  
HETATM    2  N   UNL     1     -13.701  15.846  73.610  1.00  0.00    -0.705 N  
HETATM    3  H   UNL     1     -14.595  16.105  74.026  1.00  0.00     0.000 HD 
ENDROOT
BRANCH   2   4
HETATM    4  S   UNL     1     -13.616  14.840  72.247  1.00  0.00    -0.477 S  
HETATM    5  O   UNL     1     -14.136  13.565  72.691  1.00  0.00    -0.762 OA 
HETATM    6  O   UNL     1     -14.250  15.582  71.178  1.00  0.00    -0.528 OA 
BRANCH   4   7
HETATM    7  C   UNL     1     -11.836  14.722  71.990  1.00  0.00    -0.249 C  
BRANCH   7   8
HETATM    8  C   UNL     1     -11.470  15.025  70.559  1.00  0.00    -0.333 A  
HETATM    9  C   UNL     1     -11.582  14.040  69.557  1.00  0.00    -0.350 A  
HETATM   10  C   UNL     1     -11.302  14.352  68.211  1.00  0.00    -0.311 A  
HETATM   11  C   UNL     1     -10.956  15.666  67.901  1.00  0.00    -0.319 A  
HETATM   12  C   UNL     1     -10.844  16.672  68.865  1.00  0.00    -0.321 A  
HETATM   13  N   UNL     1     -10.774  15.723  66.541  1.00  0.00    -0.308 NA 
HETATM   14  C   UNL     1     -11.103  16.328  70.196  1.00  0.00    -0.346 A  
HETATM   15  H   UNL     1     -10.518  16.564  66.023  1.00  0.00     0.000 HD 
HETATM   16  C   UNL     1     -10.984  14.495  65.979  1.00  0.00    -0.324 A  
HETATM   17  C   UNL     1     -11.285  13.600  66.990  1.00  0.00    -0.328 A  
BRANCH  17  18
HETATM   18  C   UNL     1     -11.546  12.127  66.816  1.00  0.00    -0.412 C  
BRANCH  18  19
HETATM   19  C   UNL     1     -10.738  11.527  65.644  1.00  0.00    -0.267 C  
BRANCH  19  20
HETATM   20  N   UNL     1      -9.669  10.575  66.020  1.00  0.00    -0.195 NA 
HETATM   21  C   UNL     1     -10.276   9.292  66.398  1.00  0.00    -0.228 C  
HETATM   22  C   UNL     1      -8.848  11.068  67.127  1.00  0.00    -0.140 C  
ENDBRANCH  19  20
ENDBRANCH  18  19
ENDBRANCH  17  18
ENDBRANCH   7   8
ENDBRANCH   4   7
ENDBRANCH   2   4
TORSDOF 6
ENDMDL
MODEL       23
REMARK 921   NORMALIZED FREE ENERGY PREDICTED BY IDOCK:   -5.74 KCAL/MOL
REMARK 922        TOTAL FREE ENERGY PREDICTED BY IDOCK:   -7.78 KCAL/MOL
REMARK 923 INTER-LIGAND FREE ENERGY PREDICTED BY IDOCK:   -7.38 KCAL/MOL
REMARK 924 INTRA-LIGAND FREE ENERGY PREDICTED BY IDOCK:   -0.40 KCAL/MOL
REMARK 927      BINDING AFFINITY PREDICTED BY RF-SCORE:    0.00 PKD
ROOT
HETATM    1  C   UNL     1     -10.407   7.459  68.307  1.00  0.00    -0.194 C  
HETATM    2  N   UNL     1     -10.790   8.444  67.287  1.00  0.00    -0.461 N  
HETATM    3  H   UNL     1     -11.243   8.165  66.418  1.00  0.00     0.000 HD 
ENDROOT
BRANCH   2   4
HETATM    4  S   UNL     1     -10.443  10.069  67.624  1.00  0.00    -0.264 S  
HETATM    5  O   UNL     1     -11.734  10.703  67.779  1.00  0.00    -0.503 OA 
HETATM    6  O   UNL     1      -9.481  10.044  68.705  1.00  0.00    -0.147 OA 
BRANCH   4   7
HETATM    7  C   UNL     1      -9.676  10.606  66.083  1.00  0.00    -0.205 C  
BRANCH   7   8
HETATM    8  C   UNL     1     -10.444  11.743  65.458  1.00  0.00    -0.311 A  
HETATM    9  C   UNL     1     -10.108  13.084  65.731  1.00  0.00    -0.294 A  
HETATM   10  C   UNL     1     -10.789  14.139  65.090  1.00  0.00    -0.380 A  
HETATM   11  C   UNL     1     -11.767  13.813  64.152  1.00  0.00    -0.364 A  
HETATM   12  C   UNL     1     -12.122  12.495  63.848  1.00  0.00    -0.581 A  
HETATM   13  N   UNL     1     -12.248  14.996  63.646  1.00  0.00    -0.962 NA 
HETATM   14  C   UNL     1     -11.447  11.469  64.518  1.00  0.00    -0.204 A  
HETATM   15  H   UNL     1     -12.973  15.071  62.934  1.00  0.00     0.000 HD 
HETATM   16  C   UNL     1     -11.617  16.057  64.233  1.00  0.00    -0.138 A  
HETATM   17  C   UNL     1     -10.719  15.569  65.165  1.00  0.00    -0.460 A  
BRANCH  17  18
HETATM   18  C   UNL     1      -9.845  16.399  66.067  1.00  0.00    -0.362 C  
BRANCH  18  19
HETATM   19  C   UNL     1     -10.591  16.856  67.341  1.00  0.00    -0.294 C  
BRANCH  19  20
HETATM   20  N   UNL     1     -10.675  18.318  67.548  1.00  0.00    -0.406 NA 
HETATM   21  C   UNL     1     -10.315  19.004  66.301  1.00  0.00    -0.459 C  
HETATM   22  C   UNL     1      -9.800  18.780  68.626  1.00  0.00    -0.392 C  
ENDBRANCH  19  20
ENDBRANCH  18  19
ENDBRANCH  17  18
ENDBRANCH   7   8
ENDBRANCH   4   7
ENDBRANCH   2   4
TORSDOF 6
ENDMDL
MODEL       24
REMARK 921   NORMALIZED FREE ENERGY PREDICTED BY IDOCK:   -5.73 KCAL/MOL
REMARK 922        TOTAL FREE ENERGY PREDICTED BY IDOCK:   -7.77 KCAL/MOL
REMARK 923 INTER-LIGAND FREE ENERGY PREDICTED BY IDOCK:   -7.18 KCAL/MOL
REMARK 924 INTRA-LIGAND FREE ENERGY PREDICTED BY IDOCK:   -0.59 KCAL/MOL
REMARK 927      BINDING AFFINITY PREDICTED BY RF-SCORE:    0.00 PKD
ROOT
HETATM    1  C   UNL     1     -11.625  15.496  70.362  1.00  0.00    -0.337 C  
HETATM    2  N   UNL     1     -12.054  15.582  68.960  1.00  0.00    -0.583 N  
HETATM    3  H   UNL     1     -12.886  16.104  68.687  1.00  0.00     0.000 HD 
ENDROOT
BRANCH   2   4
HETATM    4  S   UNL     1     -11.099  14.774  67.816  1.00  0.00    -0.311 S  
HETATM    5  O   UNL     1     -10.743  15.784  66.845  1.00  0.00    -0.315 OA 
HETATM    6  O   UNL     1     -10.089  14.074  68.581  1.00  0.00    -0.230 OA 
BRANCH   4   7
HETATM    7  C   UNL     1     -12.285  13.621  67.098  1.00  0.00    -0.297 C  
BRANCH   7   8
HETATM    8  C   UNL     1     -11.721  12.951  65.871  1.00  0.00    -0.449 A  
HETATM    9  C   UNL     1     -10.793  11.897  65.981  1.00  0.00    -0.342 A  
HETATM   10  C   UNL     1     -10.322  11.232  64.830  1.00  0.00    -0.366 A  
HETATM   11  C   UNL     1     -10.834  11.621  63.594  1.00  0.00    -0.432 A  
HETATM   12  C   UNL     1     -11.762  12.657  63.445  1.00  0.00    -0.571 A  
HETATM   13  N   UNL     1     -10.258  10.810  62.647  1.00  0.00    -0.774 NA 
HETATM   14  C   UNL     1     -12.192  13.315  64.602  1.00  0.00    -0.460 A  
HETATM   15  H   UNL     1     -10.447  10.859  61.646  1.00  0.00     0.000 HD 
HETATM   16  C   UNL     1      -9.396   9.927  63.235  1.00  0.00    -0.178 A  
HETATM   17  C   UNL     1      -9.381  10.176  64.596  1.00  0.00    -0.334 A  
BRANCH  17  18
HETATM   18  C   UNL     1      -8.534   9.459  65.615  1.00  0.00    -0.145 C  
BRANCH  18  19
HETATM   19  C   UNL     1      -9.109   8.072  65.977  1.00  0.00    -0.142 C  
BRANCH  19  20
HETATM   20  N   UNL     1     -10.378   8.079  66.737  1.00  0.00    -0.321 NA 
HETATM   21  C   UNL     1     -10.188   8.827  67.987  1.00  0.00    -0.213 C  
HETATM   22  C   UNL     1     -10.850   6.729  67.047  1.00  0.00    -0.383 C  
ENDBRANCH  19  20
ENDBRANCH  18  19
ENDBRANCH  17  18
ENDBRANCH   7   8
ENDBRANCH   4   7
ENDBRANCH   2   4
TORSDOF 6
ENDMDL
MODEL       25
REMARK 921   NORMALIZED FREE ENERGY PREDICTED BY IDOCK:   -5.70 KCAL/MOL
REMARK 922        TOTAL FREE ENERGY PREDICTED BY IDOCK:   -7.73 KCAL/MOL
REMARK 923 INTER-LIGAND FREE ENERGY PREDICTED BY IDOCK:   -7.38 KCAL/MOL
REMARK 924 INTRA-LIGAND FREE ENERGY PREDICTED BY IDOCK:   -0.35 KCAL/MOL
REMARK 927      BINDING AFFINITY PREDICTED BY RF-SCORE:    0.00 PKD
ROOT
HETATM    1  C   UNL     1     -10.704   8.716  69.420  1.00  0.00    -0.158 C  
HETATM    2  N   UNL     1     -10.750   9.160  68.021  1.00  0.00    -0.425 N  
HETATM    3  H   UNL     1     -10.774   8.493  67.250  1.00  0.00     0.000 HD 
ENDROOT
BRANCH   2   4
HETATM    4  S   UNL     1     -10.765  10.833  67.748  1.00  0.00    -0.273 S  
HETATM    5  O   UNL     1     -12.109  11.254  68.075  1.00  0.00    -0.638 OA 
HETATM    6  O   UNL     1      -9.617  11.351  68.461  1.00  0.00    -0.185 OA 
BRANCH   4   7
HETATM    7  C   UNL     1     -10.513  10.914  65.964  1.00  0.00    -0.225 C  
BRANCH   7   8
HETATM    8  C   UNL     1     -10.961  12.243  65.410  1.00  0.00    -0.341 A  
HETATM    9  C   UNL     1     -10.479  13.453  65.946  1.00  0.00    -0.287 A  
HETATM   10  C   UNL     1     -10.852  14.689  65.378  1.00  0.00    -0.365 A  
HETATM   11  C   UNL     1     -11.672  14.670  64.251  1.00  0.00    -0.275 A  
HETATM   12  C   UNL     1     -12.162  13.489  63.685  1.00  0.00    -0.438 A  
HETATM   13  N   UNL     1     -11.858  15.976  63.868  1.00  0.00    -1.338 NA 
HETATM   14  C   UNL     1     -11.796  12.280  64.285  1.00  0.00    -0.482 A  
HETATM   15  H   UNL     1     -12.413  16.274  63.066  1.00  0.00     0.000 HD 
HETATM   16  C   UNL     1     -11.193  16.820  64.713  1.00  0.00     0.040 A  
HETATM   17  C   UNL     1     -10.577  16.061  65.691  1.00  0.00    -0.392 A  
BRANCH  17  18
HETATM   18  C   UNL     1      -9.773  16.594  66.847  1.00  0.00    -0.261 C  
BRANCH  18  19
HETATM   19  C   UNL     1      -9.218  18.008  66.567  1.00  0.00    -0.275 C  
BRANCH  19  20
HETATM   20  N   UNL     1      -9.521  19.034  67.588  1.00  0.00    -0.301 NA 
HETATM   21  C   UNL     1      -9.554  20.356  66.950  1.00  0.00    -0.406 C  
HETATM   22  C   UNL     1      -8.542  19.045  68.676  1.00  0.00    -0.354 C  
ENDBRANCH  19  20
ENDBRANCH  18  19
ENDBRANCH  17  18
ENDBRANCH   7   8
ENDBRANCH   4   7
ENDBRANCH   2   4
TORSDOF 6
ENDMDL
MODEL       26
REMARK 921   NORMALIZED FREE ENERGY PREDICTED BY IDOCK:   -5.69 KCAL/MOL
REMARK 922        TOTAL FREE ENERGY PREDICTED BY IDOCK:   -7.71 KCAL/MOL
REMARK 923 INTER-LIGAND FREE ENERGY PREDICTED BY IDOCK:   -7.29 KCAL/MOL
REMARK 924 INTRA-LIGAND FREE ENERGY PREDICTED BY IDOCK:   -0.43 KCAL/MOL
REMARK 927      BINDING AFFINITY PREDICTED BY RF-SCORE:    0.00 PKD
ROOT
HETATM    1  C   UNL     1      -9.502  20.281  66.947  1.00  0.00    -0.397 C  
HETATM    2  N   UNL     1      -8.452  19.295  66.662  1.00  0.00    -0.301 N  
HETATM    3  H   UNL     1      -7.556  19.569  66.261  1.00  0.00     0.000 HD 
ENDROOT
BRANCH   2   4
HETATM    4  S   UNL     1      -8.800  17.677  67.031  1.00  0.00    -0.253 S  
HETATM    5  O   UNL     1      -8.936  17.021  65.749  1.00  0.00    -0.526 OA 
HETATM    6  O   UNL     1      -7.787  17.271  67.982  1.00  0.00    -0.194 OA 
BRANCH   4   7
HETATM    7  C   UNL     1     -10.413  17.821  67.822  1.00  0.00    -0.397 C  
BRANCH   7   8
HETATM    8  C   UNL     1     -10.828  16.518  68.458  1.00  0.00    -0.349 A  
HETATM    9  C   UNL     1     -11.028  15.361  67.677  1.00  0.00    -0.315 A  
HETATM   10  C   UNL     1     -11.350  14.132  68.288  1.00  0.00    -0.319 A  
HETATM   11  C   UNL     1     -11.419  14.089  69.679  1.00  0.00    -0.258 A  
HETATM   12  C   UNL     1     -11.218  15.213  70.487  1.00  0.00    -0.313 A  
HETATM   13  N   UNL     1     -11.704  12.791  70.028  1.00  0.00    -0.513 NA 
HETATM   14  C   UNL     1     -10.925  16.425  69.852  1.00  0.00    -0.339 A  
HETATM   15  H   UNL     1     -11.811  12.456  70.985  1.00  0.00     0.000 HD 
HETATM   16  C   UNL     1     -11.825  12.013  68.911  1.00  0.00    -0.299 A  
HETATM   17  C   UNL     1     -11.643  12.816  67.799  1.00  0.00    -0.405 A  
BRANCH  17  18
HETATM   18  C   UNL     1     -11.734  12.369  66.363  1.00  0.00    -0.453 C  
BRANCH  18  19
HETATM   19  C   UNL     1     -12.772  13.188  65.564  1.00  0.00    -0.304 C  
BRANCH  19  20
HETATM   20  N   UNL     1     -12.352  13.615  64.211  1.00  0.00    -0.624 NA 
HETATM   21  C   UNL     1     -11.366  12.660  63.688  1.00  0.00    -0.481 C  
HETATM   22  C   UNL     1     -11.774  14.960  64.206  1.00  0.00    -0.247 C  
ENDBRANCH  19  20
ENDBRANCH  18  19
ENDBRANCH  17  18
ENDBRANCH   7   8
ENDBRANCH   4   7
ENDBRANCH   2   4
TORSDOF 6
ENDMDL
MODEL       27
REMARK 921   NORMALIZED FREE ENERGY PREDICTED BY IDOCK:   -5.61 KCAL/MOL
REMARK 922        TOTAL FREE ENERGY PREDICTED BY IDOCK:   -7.61 KCAL/MOL
REMARK 923 INTER-LIGAND FREE ENERGY PREDICTED BY IDOCK:   -7.13 KCAL/MOL
REMARK 924 INTRA-LIGAND FREE ENERGY PREDICTED BY IDOCK:   -0.49 KCAL/MOL
REMARK 927      BINDING AFFINITY PREDICTED BY RF-SCORE:    0.00 PKD
ROOT
HETATM    1  C   UNL     1     -10.442  15.886  67.802  1.00  0.00    -0.287 C  
HETATM    2  N   UNL     1     -11.380  16.190  66.714  1.00  0.00     0.172 N  
HETATM    3  H   UNL     1     -12.271  16.654  66.890  1.00  0.00     0.000 HD 
ENDROOT
BRANCH   2   4
HETATM    4  S   UNL     1     -10.914  15.732  65.150  1.00  0.00    -0.351 S  
HETATM    5  O   UNL     1     -11.241  16.867  64.315  1.00  0.00    -1.204 OA 
HETATM    6  O   UNL     1      -9.553  15.256  65.276  1.00  0.00    -0.216 OA 
BRANCH   4   7
HETATM    7  C   UNL     1     -12.049  14.373  64.812  1.00  0.00    -0.452 C  
BRANCH   7   8
HETATM    8  C   UNL     1     -11.455  13.050  65.224  1.00  0.00    -0.340 A  
HETATM    9  C   UNL     1     -11.569  12.584  66.549  1.00  0.00    -0.447 A  
HETATM   10  C   UNL     1     -11.069  11.315  66.908  1.00  0.00    -0.339 A  
HETATM   11  C   UNL     1     -10.501  10.528  65.909  1.00  0.00    -0.153 A  
HETATM   12  C   UNL     1     -10.378  10.952  64.582  1.00  0.00    -0.407 A  
HETATM   13  N   UNL     1     -10.131   9.341  66.493  1.00  0.00    -0.274 NA 
HETATM   14  C   UNL     1     -10.861  12.225  64.260  1.00  0.00    -0.392 A  
HETATM   15  H   UNL     1      -9.690   8.563  66.003  1.00  0.00     0.000 HD 
HETATM   16  C   UNL     1     -10.435   9.351  67.826  1.00  0.00    -0.254 A  
HETATM   17  C   UNL     1     -10.995  10.578  68.136  1.00  0.00    -0.330 A  
BRANCH  17  18
HETATM   18  C   UNL     1     -11.437  11.026  69.504  1.00  0.00    -0.370 C  
BRANCH  18  19
HETATM   19  C   UNL     1     -10.952  10.068  70.615  1.00  0.00    -0.322 C  
BRANCH  19  20
HETATM   20  N   UNL     1     -12.002   9.258  71.271  1.00  0.00    -0.319 NA 
HETATM   21  C   UNL     1     -13.025  10.153  71.826  1.00  0.00    -0.462 C  
HETATM   22  C   UNL     1     -11.468   8.411  72.338  1.00  0.00    -0.380 C  
ENDBRANCH  19  20
ENDBRANCH  18  19
ENDBRANCH  17  18
ENDBRANCH   7   8
ENDBRANCH   4   7
ENDBRANCH   2   4
TORSDOF 6
ENDMDL
MODEL       28
REMARK 921   NORMALIZED FREE ENERGY PREDICTED BY IDOCK:   -5.60 KCAL/MOL
REMARK 922        TOTAL FREE ENERGY PREDICTED BY IDOCK:   -7.60 KCAL/MOL
REMARK 923 INTER-LIGAND FREE ENERGY PREDICTED BY IDOCK:   -7.23 KCAL/MOL
REMARK 924 INTRA-LIGAND FREE ENERGY PREDICTED BY IDOCK:   -0.38 KCAL/MOL
REMARK 927      BINDING AFFINITY PREDICTED BY RF-SCORE:    0.00 PKD
ROOT
HETATM    1  C   UNL     1     -10.699  10.153  69.014  1.00  0.00    -0.221 C  
HETATM    2  N   UNL     1     -11.284  10.266  67.672  1.00  0.00    -0.410 N  
HETATM    3  H   UNL     1     -12.260  10.029  67.493  1.00  0.00     0.000 HD 
ENDROOT
BRANCH   2   4
HETATM    4  S   UNL     1     -10.263  10.810  66.433  1.00  0.00    -0.242 S  
HETATM    5  O   UNL     1      -9.184  11.495  67.112  1.00  0.00    -0.165 OA 
HETATM    6  O   UNL     1     -10.015   9.653  65.599  1.00  0.00    -0.305 OA 
BRANCH   4   7
HETATM    7  C   UNL     1     -11.315  12.006  65.590  1.00  0.00    -0.329 C  
BRANCH   7   8
HETATM    8  C   UNL     1     -11.058  13.406  66.088  1.00  0.00    -0.299 A  
HETATM    9  C   UNL     1     -11.495  13.814  67.364  1.00  0.00    -0.372 A  
HETATM   10  C   UNL     1     -11.191  15.104  67.847  1.00  0.00    -0.334 A  
HETATM   11  C   UNL     1     -10.414  15.938  67.045  1.00  0.00    -0.306 A  
HETATM   12  C   UNL     1      -9.955  15.565  65.778  1.00  0.00    -0.391 A  
HETATM   13  N   UNL     1     -10.226  17.105  67.744  1.00  0.00    -0.310 NA 
HETATM   14  C   UNL     1     -10.293  14.289  65.314  1.00  0.00    -0.417 A  
HETATM   15  H   UNL     1      -9.689  17.904  67.407  1.00  0.00     0.000 HD 
HETATM   16  C   UNL     1     -10.860  17.045  68.953  1.00  0.00    -0.228 A  
HETATM   17  C   UNL     1     -11.503  15.824  69.047  1.00  0.00    -0.394 A  
BRANCH  17  18
HETATM   18  C   UNL     1     -12.356  15.362  70.200  1.00  0.00    -0.395 C  
BRANCH  18  19
HETATM   19  C   UNL     1     -11.864  15.927  71.551  1.00  0.00    -0.468 C  
BRANCH  19  20
HETATM   20  N   UNL     1     -12.885  16.031  72.615  1.00  0.00    -0.441 NA 
HETATM   21  C   UNL     1     -12.352  15.451  73.855  1.00  0.00    -0.635 C  
HETATM   22  C   UNL     1     -14.132  15.352  72.260  1.00  0.00    -0.564 C  
ENDBRANCH  19  20
ENDBRANCH  18  19
ENDBRANCH  17  18
ENDBRANCH   7   8
ENDBRANCH   4   7
ENDBRANCH   2   4
TORSDOF 6
ENDMDL
MODEL       29
REMARK 921   NORMALIZED FREE ENERGY PREDICTED BY IDOCK:   -5.59 KCAL/MOL
REMARK 922        TOTAL FREE ENERGY PREDICTED BY IDOCK:   -7.59 KCAL/MOL
REMARK 923 INTER-LIGAND FREE ENERGY PREDICTED BY IDOCK:   -7.43 KCAL/MOL
REMARK 924 INTRA-LIGAND FREE ENERGY PREDICTED BY IDOCK:   -0.16 KCAL/MOL
REMARK 927      BINDING AFFINITY PREDICTED BY RF-SCORE:    0.00 PKD
ROOT
HETATM    1  C   UNL     1      -8.057  15.363  67.019  1.00  0.00    -0.230 C  
HETATM    2  N   UNL     1      -9.004  14.957  65.973  1.00  0.00    -0.473 N  
HETATM    3  H   UNL     1      -8.736  14.310  65.232  1.00  0.00     0.000 HD 
ENDROOT
BRANCH   2   4
HETATM    4  S   UNL     1     -10.564  15.615  66.055  1.00  0.00    -0.328 S  
HETATM    5  O   UNL     1     -10.752  15.961  67.447  1.00  0.00    -0.312 OA 
HETATM    6  O   UNL     1     -10.616  16.620  65.015  1.00  0.00    -0.683 OA 
BRANCH   4   7
HETATM    7  C   UNL     1     -11.584  14.189  65.633  1.00  0.00    -0.339 C  
BRANCH   7   8
HETATM    8  C   UNL     1     -11.348  13.047  66.589  1.00  0.00    -0.366 A  
HETATM    9  C   UNL     1     -11.916  13.051  67.878  1.00  0.00    -0.338 A  
HETATM   10  C   UNL     1     -11.745  11.947  68.740  1.00  0.00    -0.379 A  
HETATM   11  C   UNL     1     -11.039  10.846  68.261  1.00  0.00    -0.266 A  
HETATM   12  C   UNL     1     -10.468  10.802  66.985  1.00  0.00    -0.297 A  
HETATM   13  N   UNL     1     -11.044   9.901  69.258  1.00  0.00    -0.348 NA 
HETATM   14  C   UNL     1     -10.633  11.921  66.161  1.00  0.00    -0.295 A  
HETATM   15  H   UNL     1     -10.605   8.983  69.192  1.00  0.00     0.000 HD 
HETATM   16  C   UNL     1     -11.720  10.365  70.352  1.00  0.00    -0.331 A  
HETATM   17  C   UNL     1     -12.149  11.653  70.084  1.00  0.00    -0.414 A  
BRANCH  17  18
HETATM   18  C   UNL     1     -12.897  12.550  71.035  1.00  0.00    -0.246 C  
BRANCH  18  19
HETATM   19  C   UNL     1     -12.288  13.969  71.098  1.00  0.00    -0.365 C  
BRANCH  19  20
HETATM   20  N   UNL     1     -12.849  14.864  72.133  1.00  0.00    -0.310 NA 
HETATM   21  C   UNL     1     -14.179  15.319  71.710  1.00  0.00    -0.568 C  
HETATM   22  C   UNL     1     -11.997  16.027  72.385  1.00  0.00    -0.544 C  
ENDBRANCH  19  20
ENDBRANCH  18  19
ENDBRANCH  17  18
ENDBRANCH   7   8
ENDBRANCH   4   7
ENDBRANCH   2   4
TORSDOF 6
ENDMDL
MODEL       30
REMARK 921   NORMALIZED FREE ENERGY PREDICTED BY IDOCK:   -5.57 KCAL/MOL
REMARK 922        TOTAL FREE ENERGY PREDICTED BY IDOCK:   -7.56 KCAL/MOL
REMARK 923 INTER-LIGAND FREE ENERGY PREDICTED BY IDOCK:   -7.16 KCAL/MOL
REMARK 924 INTRA-LIGAND FREE ENERGY PREDICTED BY IDOCK:   -0.40 KCAL/MOL
REMARK 927      BINDING AFFINITY PREDICTED BY RF-SCORE:    0.00 PKD
ROOT
HETATM    1  C   UNL     1      -7.632  20.198  66.486  1.00  0.00    -0.282 C  
HETATM    2  N   UNL     1      -8.897  20.640  67.088  1.00  0.00    -0.552 N  
HETATM    3  H   UNL     1      -9.162  21.625  67.112  1.00  0.00     0.000 HD 
ENDROOT
BRANCH   2   4
HETATM    4  S   UNL     1      -9.895  19.436  67.742  1.00  0.00    -0.371 S  
HETATM    5  O   UNL     1     -10.232  19.908  69.067  1.00  0.00    -0.432 OA 
HETATM    6  O   UNL     1     -10.917  19.197  66.745  1.00  0.00    -0.363 OA 
BRANCH   4   7
HETATM    7  C   UNL     1      -8.760  18.041  67.857  1.00  0.00    -0.257 C  
BRANCH   7   8
HETATM    8  C   UNL     1      -9.421  16.761  67.411  1.00  0.00    -0.236 A  
HETATM    9  C   UNL     1     -10.176  15.983  68.310  1.00  0.00    -0.237 A  
HETATM   10  C   UNL     1     -10.846  14.824  67.868  1.00  0.00    -0.269 A  
HETATM   11  C   UNL     1     -10.773  14.501  66.514  1.00  0.00    -0.312 A  
HETATM   12  C   UNL     1     -10.041  15.253  65.590  1.00  0.00    -0.401 A  
HETATM   13  N   UNL     1     -11.528  13.369  66.330  1.00  0.00    -0.314 NA 
HETATM   14  C   UNL     1      -9.366  16.384  66.063  1.00  0.00    -0.335 A  
HETATM   15  H   UNL     1     -11.665  12.900  65.434  1.00  0.00     0.000 HD 
HETATM   16  C   UNL     1     -12.071  12.959  67.515  1.00  0.00    -0.192 A  
HETATM   17  C   UNL     1     -11.646  13.821  68.510  1.00  0.00    -0.373 A  
BRANCH  17  18
HETATM   18  C   UNL     1     -11.976  13.710  69.975  1.00  0.00    -0.413 C  
BRANCH  18  19
HETATM   19  C   UNL     1     -12.853  14.884  70.465  1.00  0.00    -0.326 C  
BRANCH  19  20
HETATM   20  N   UNL     1     -13.857  14.550  71.499  1.00  0.00    -0.395 NA 
HETATM   21  C   UNL     1     -13.954  15.662  72.453  1.00  0.00    -0.515 C  
HETATM   22  C   UNL     1     -13.527  13.320  72.220  1.00  0.00    -0.582 C  
ENDBRANCH  19  20
ENDBRANCH  18  19
ENDBRANCH  17  18
ENDBRANCH   7   8
ENDBRANCH   4   7
ENDBRANCH   2   4
TORSDOF 6
ENDMDL
MODEL       31
REMARK 921   NORMALIZED FREE ENERGY PREDICTED BY IDOCK:   -5.54 KCAL/MOL
REMARK 922        TOTAL FREE ENERGY PREDICTED BY IDOCK:   -7.52 KCAL/MOL
REMARK 923 INTER-LIGAND FREE ENERGY PREDICTED BY IDOCK:   -7.03 KCAL/MOL
REMARK 924 INTRA-LIGAND FREE ENERGY PREDICTED BY IDOCK:   -0.49 KCAL/MOL
REMARK 927      BINDING AFFINITY PREDICTED BY RF-SCORE:    0.00 PKD
ROOT
HETATM    1  C   UNL     1     -10.541  19.760  65.885  1.00  0.00    -0.453 C  
HETATM    2  N   UNL     1      -9.170  20.280  65.971  1.00  0.00    -0.616 N  
HETATM    3  H   UNL     1      -8.921  21.195  65.597  1.00  0.00     0.000 HD 
ENDROOT
BRANCH   2   4
HETATM    4  S   UNL     1      -8.020  19.286  66.722  1.00  0.00    -0.284 S  
HETATM    5  O   UNL     1      -7.844  18.169  65.819  1.00  0.00    -0.526 OA 
HETATM    6  O   UNL     1      -6.918  20.159  67.065  1.00  0.00    -0.216 OA 
BRANCH   4   7
HETATM    7  C   UNL     1      -8.908  18.749  68.196  1.00  0.00    -0.306 C  
BRANCH   7   8
HETATM    8  C   UNL     1      -8.784  17.259  68.397  1.00  0.00    -0.261 A  
HETATM    9  C   UNL     1      -9.777  16.378  67.925  1.00  0.00    -0.235 A  
HETATM   10  C   UNL     1      -9.619  14.983  68.057  1.00  0.00    -0.208 A  
HETATM   11  C   UNL     1      -8.439  14.508  68.625  1.00  0.00    -0.161 A  
HETATM   12  C   UNL     1      -7.427  15.351  69.097  1.00  0.00    -0.189 A  
HETATM   13  N   UNL     1      -8.507  13.137  68.607  1.00  0.00    -0.353 NA 
HETATM   14  C   UNL     1      -7.622  16.731  68.975  1.00  0.00    -0.218 A  
HETATM   15  H   UNL     1      -7.780  12.513  68.955  1.00  0.00     0.000 HD 
HETATM   16  C   UNL     1      -9.688  12.725  68.056  1.00  0.00    -0.220 A  
HETATM   17  C   UNL     1     -10.429  13.847  67.726  1.00  0.00    -0.243 A  
BRANCH  17  18
HETATM   18  C   UNL     1     -11.813  13.848  67.132  1.00  0.00    -0.445 C  
BRANCH  18  19
HETATM   19  C   UNL     1     -11.989  12.742  66.067  1.00  0.00    -0.432 C  
BRANCH  19  20
HETATM   20  N   UNL     1     -12.696  13.144  64.832  1.00  0.00    -0.697 NA 
HETATM   21  C   UNL     1     -12.459  12.137  63.790  1.00  0.00    -0.514 C  
HETATM   22  C   UNL     1     -12.266  14.455  64.345  1.00  0.00    -0.458 C  
ENDBRANCH  19  20
ENDBRANCH  18  19
ENDBRANCH  17  18
ENDBRANCH   7   8
ENDBRANCH   4   7
ENDBRANCH   2   4
TORSDOF 6
ENDMDL
MODEL       32
REMARK 921   NORMALIZED FREE ENERGY PREDICTED BY IDOCK:   -5.52 KCAL/MOL
REMARK 922        TOTAL FREE ENERGY PREDICTED BY IDOCK:   -7.49 KCAL/MOL
REMARK 923 INTER-LIGAND FREE ENERGY PREDICTED BY IDOCK:   -7.03 KCAL/MOL
REMARK 924 INTRA-LIGAND FREE ENERGY PREDICTED BY IDOCK:   -0.46 KCAL/MOL
REMARK 927      BINDING AFFINITY PREDICTED BY RF-SCORE:    0.00 PKD
ROOT
HETATM    1  C   UNL     1     -10.466  19.576  67.445  1.00  0.00    -0.471 C  
HETATM    2  N   UNL     1      -9.117  19.045  67.213  1.00  0.00    -0.281 N  
HETATM    3  H   UNL     1      -8.293  19.645  67.254  1.00  0.00     0.000 HD 
ENDROOT
BRANCH   2   4
HETATM    4  S   UNL     1      -8.993  17.389  66.873  1.00  0.00    -0.254 S  
HETATM    5  O   UNL     1      -8.320  17.319  65.595  1.00  0.00    -0.475 OA 
HETATM    6  O   UNL     1      -8.419  16.792  68.061  1.00  0.00    -0.196 OA 
BRANCH   4   7
HETATM    7  C   UNL     1     -10.724  16.924  66.683  1.00  0.00    -0.094 C  
BRANCH   7   8
HETATM    8  C   UNL     1     -10.925  15.452  66.940  1.00  0.00    -0.294 A  
HETATM    9  C   UNL     1     -11.374  14.988  68.193  1.00  0.00    -0.343 A  
HETATM   10  C   UNL     1     -11.623  13.616  68.402  1.00  0.00    -0.377 A  
HETATM   11  C   UNL     1     -11.454  12.748  67.326  1.00  0.00    -0.337 A  
HETATM   12  C   UNL     1     -11.019  13.172  66.066  1.00  0.00    -0.295 A  
HETATM   13  N   UNL     1     -11.792  11.491  67.766  1.00  0.00    -0.626 NA 
HETATM   14  C   UNL     1     -10.756  14.535  65.894  1.00  0.00    -0.308 A  
HETATM   15  H   UNL     1     -11.770  10.649  67.192  1.00  0.00     0.000 HD 
HETATM   16  C   UNL     1     -12.161  11.530  69.081  1.00  0.00    -0.263 A  
HETATM   17  C   UNL     1     -12.040  12.833  69.529  1.00  0.00    -0.265 A  
BRANCH  17  18
HETATM   18  C   UNL     1     -12.306  13.313  70.932  1.00  0.00    -0.413 C  
BRANCH  18  19
HETATM   19  C   UNL     1     -13.337  14.464  70.968  1.00  0.00    -0.300 C  
BRANCH  19  20
HETATM   20  N   UNL     1     -13.072  15.534  71.954  1.00  0.00    -0.425 NA 
HETATM   21  C   UNL     1     -11.794  16.182  71.632  1.00  0.00    -0.487 C  
HETATM   22  C   UNL     1     -13.028  15.029  73.326  1.00  0.00    -0.525 C  
ENDBRANCH  19  20
ENDBRANCH  18  19
ENDBRANCH  17  18
ENDBRANCH   7   8
ENDBRANCH   4   7
ENDBRANCH   2   4
TORSDOF 6
ENDMDL
MODEL       33
REMARK 921   NORMALIZED FREE ENERGY PREDICTED BY IDOCK:   -5.51 KCAL/MOL
REMARK 922        TOTAL FREE ENERGY PREDICTED BY IDOCK:   -7.48 KCAL/MOL
REMARK 923 INTER-LIGAND FREE ENERGY PREDICTED BY IDOCK:   -6.95 KCAL/MOL
REMARK 924 INTRA-LIGAND FREE ENERGY PREDICTED BY IDOCK:   -0.53 KCAL/MOL
REMARK 927      BINDING AFFINITY PREDICTED BY RF-SCORE:    0.00 PKD
ROOT
HETATM    1  C   UNL     1     -10.918   6.546  72.808  1.00  0.00    -0.253 C  
HETATM    2  N   UNL     1     -11.569   7.862  72.824  1.00  0.00    -0.549 N  
HETATM    3  H   UNL     1     -11.676   8.396  73.687  1.00  0.00     0.000 HD 
ENDROOT
BRANCH   2   4
HETATM    4  S   UNL     1     -12.135   8.454  71.340  1.00  0.00    -0.301 S  
HETATM    5  O   UNL     1     -12.370   7.278  70.532  1.00  0.00    -0.161 OA 
HETATM    6  O   UNL     1     -13.209   9.367  71.671  1.00  0.00    -0.354 OA 
BRANCH   4   7
HETATM    7  C   UNL     1     -10.692   9.343  70.726  1.00  0.00    -0.305 C  
BRANCH   7   8
HETATM    8  C   UNL     1     -11.083  10.375  69.698  1.00  0.00    -0.328 A  
HETATM    9  C   UNL     1     -11.332  11.712  70.070  1.00  0.00    -0.176 A  
HETATM   10  C   UNL     1     -11.631  12.683  69.092  1.00  0.00    -0.374 A  
HETATM   11  C   UNL     1     -11.629  12.290  67.756  1.00  0.00    -0.351 A  
HETATM   12  C   UNL     1     -11.378  10.976  67.348  1.00  0.00    -0.306 A  
HETATM   13  N   UNL     1     -11.905  13.409  67.008  1.00  0.00    -0.384 NA 
HETATM   14  C   UNL     1     -11.109  10.028  68.341  1.00  0.00    -0.236 A  
HETATM   15  H   UNL     1     -11.965  13.428  65.990  1.00  0.00     0.000 HD 
HETATM   16  C   UNL     1     -12.089  14.492  67.820  1.00  0.00    -0.234 A  
HETATM   17  C   UNL     1     -11.958  14.079  69.134  1.00  0.00    -0.400 A  
BRANCH  17  18
HETATM   18  C   UNL     1     -12.126  14.947  70.353  1.00  0.00    -0.386 C  
BRANCH  18  19
HETATM   19  C   UNL     1     -13.610  15.120  70.745  1.00  0.00    -0.245 C  
BRANCH  19  20
HETATM   20  N   UNL     1     -13.954  14.766  72.139  1.00  0.00    -0.444 NA 
HETATM   21  C   UNL     1     -13.180  15.613  73.056  1.00  0.00    -0.562 C  
HETATM   22  C   UNL     1     -13.688  13.359  72.439  1.00  0.00    -0.597 C  
ENDBRANCH  19  20
ENDBRANCH  18  19
ENDBRANCH  17  18
ENDBRANCH   7   8
ENDBRANCH   4   7
ENDBRANCH   2   4
TORSDOF 6
ENDMDL
MODEL       34
REMARK 921   NORMALIZED FREE ENERGY PREDICTED BY IDOCK:   -5.46 KCAL/MOL
REMARK 922        TOTAL FREE ENERGY PREDICTED BY IDOCK:   -7.41 KCAL/MOL
REMARK 923 INTER-LIGAND FREE ENERGY PREDICTED BY IDOCK:   -7.07 KCAL/MOL
REMARK 924 INTRA-LIGAND FREE ENERGY PREDICTED BY IDOCK:   -0.34 KCAL/MOL
REMARK 927      BINDING AFFINITY PREDICTED BY RF-SCORE:    0.00 PKD
ROOT
HETATM    1  C   UNL     1     -12.116  13.996  68.683  1.00  0.00    -0.297 C  
HETATM    2  N   UNL     1     -12.101  14.593  67.341  1.00  0.00    -0.552 N  
HETATM    3  H   UNL     1     -11.998  15.599  67.205  1.00  0.00     0.000 HD 
ENDROOT
BRANCH   2   4
HETATM    4  S   UNL     1     -12.261  13.532  66.029  1.00  0.00    -0.438 S  
HETATM    5  O   UNL     1     -12.044  12.215  66.584  1.00  0.00    -0.622 OA 
HETATM    6  O   UNL     1     -13.513  13.887  65.395  1.00  0.00    -0.672 OA 
BRANCH   4   7
HETATM    7  C   UNL     1     -10.856  14.005  65.003  1.00  0.00    -0.392 C  
BRANCH   7   8
HETATM    8  C   UNL     1      -9.702  14.486  65.846  1.00  0.00    -0.324 A  
HETATM    9  C   UNL     1      -9.307  15.839  65.832  1.00  0.00    -0.356 A  
HETATM   10  C   UNL     1      -8.270  16.291  66.674  1.00  0.00    -0.316 A  
HETATM   11  C   UNL     1      -7.684  15.373  67.543  1.00  0.00    -0.181 A  
HETATM   12  C   UNL     1      -8.056  14.026  67.592  1.00  0.00    -0.180 A  
HETATM   13  N   UNL     1      -6.743  16.056  68.274  1.00  0.00    -0.114 NA 
HETATM   14  C   UNL     1      -9.070  13.600  66.728  1.00  0.00    -0.230 A  
HETATM   15  H   UNL     1      -6.155  15.642  68.998  1.00  0.00     0.000 HD 
HETATM   16  C   UNL     1      -6.706  17.369  67.896  1.00  0.00    -0.173 A  
HETATM   17  C   UNL     1      -7.621  17.554  66.876  1.00  0.00    -0.245 A  
BRANCH  17  18
HETATM   18  C   UNL     1      -7.874  18.843  66.139  1.00  0.00    -0.272 C  
BRANCH  18  19
HETATM   19  C   UNL     1      -8.220  20.003  67.098  1.00  0.00    -0.322 C  
BRANCH  19  20
HETATM   20  N   UNL     1      -9.662  20.292  67.265  1.00  0.00    -0.426 NA 
HETATM   21  C   UNL     1     -10.125  19.717  68.535  1.00  0.00    -0.453 C  
HETATM   22  C   UNL     1     -10.468  19.756  66.168  1.00  0.00    -0.509 C  
ENDBRANCH  19  20
ENDBRANCH  18  19
ENDBRANCH  17  18
ENDBRANCH   7   8
ENDBRANCH   4   7
ENDBRANCH   2   4
TORSDOF 6
ENDMDL
MODEL       35
REMARK 921   NORMALIZED FREE ENERGY PREDICTED BY IDOCK:   -5.46 KCAL/MOL
REMARK 922        TOTAL FREE ENERGY PREDICTED BY IDOCK:   -7.40 KCAL/MOL
REMARK 923 INTER-LIGAND FREE ENERGY PREDICTED BY IDOCK:   -6.96 KCAL/MOL
REMARK 924 INTRA-LIGAND FREE ENERGY PREDICTED BY IDOCK:   -0.45 KCAL/MOL
REMARK 927      BINDING AFFINITY PREDICTED BY RF-SCORE:    0.00 PKD
ROOT
HETATM    1  C   UNL     1     -10.626  14.383  65.059  1.00  0.00    -0.432 C  
HETATM    2  N   UNL     1     -10.212  12.975  65.041  1.00  0.00    -0.408 N  
HETATM    3  H   UNL     1      -9.508  12.633  64.387  1.00  0.00     0.000 HD 
ENDROOT
BRANCH   2   4
HETATM    4  S   UNL     1     -10.957  11.943  66.161  1.00  0.00    -0.316 S  
HETATM    5  O   UNL     1     -12.370  12.236  66.057  1.00  0.00    -0.609 OA 
HETATM    6  O   UNL     1     -10.438  10.622  65.876  1.00  0.00    -0.236 OA 
BRANCH   4   7
HETATM    7  C   UNL     1     -10.312  12.572  67.723  1.00  0.00    -0.222 C  
BRANCH   7   8
HETATM    8  C   UNL     1     -11.201  12.181  68.877  1.00  0.00    -0.320 A  
HETATM    9  C   UNL     1     -11.207  10.863  69.375  1.00  0.00    -0.335 A  
HETATM   10  C   UNL     1     -11.992  10.524  70.497  1.00  0.00    -0.436 A  
HETATM   11  C   UNL     1     -12.720  11.537  71.117  1.00  0.00    -0.356 A  
HETATM   12  C   UNL     1     -12.732  12.857  70.658  1.00  0.00    -0.157 A  
HETATM   13  N   UNL     1     -13.360  10.970  72.192  1.00  0.00    -0.585 NA 
HETATM   14  C   UNL     1     -11.964  13.159  69.528  1.00  0.00    -0.354 A  
HETATM   15  H   UNL     1     -13.966  11.474  72.840  1.00  0.00     0.000 HD 
HETATM   16  C   UNL     1     -13.071   9.637  72.272  1.00  0.00    -0.382 A  
HETATM   17  C   UNL     1     -12.243   9.307  71.213  1.00  0.00    -0.410 A  
BRANCH  17  18
HETATM   18  C   UNL     1     -11.718   7.931  70.898  1.00  0.00    -0.271 C  
BRANCH  18  19
HETATM   19  C   UNL     1     -11.907   6.952  72.078  1.00  0.00    -0.310 C  
BRANCH  19  20
HETATM   20  N   UNL     1     -10.685   6.260  72.543  1.00  0.00    -0.215 NA 
HETATM   21  C   UNL     1     -11.042   4.917  73.018  1.00  0.00    -0.295 C  
HETATM   22  C   UNL     1     -10.005   6.988  73.614  1.00  0.00    -0.310 C  
ENDBRANCH  19  20
ENDBRANCH  18  19
ENDBRANCH  17  18
ENDBRANCH   7   8
ENDBRANCH   4   7
ENDBRANCH   2   4
TORSDOF 6
ENDMDL
MODEL       36
REMARK 921   NORMALIZED FREE ENERGY PREDICTED BY IDOCK:   -5.42 KCAL/MOL
REMARK 922        TOTAL FREE ENERGY PREDICTED BY IDOCK:   -7.35 KCAL/MOL
REMARK 923 INTER-LIGAND FREE ENERGY PREDICTED BY IDOCK:   -7.17 KCAL/MOL
REMARK 924 INTRA-LIGAND FREE ENERGY PREDICTED BY IDOCK:   -0.18 KCAL/MOL
REMARK 927      BINDING AFFINITY PREDICTED BY RF-SCORE:    0.00 PKD
ROOT
HETATM    1  C   UNL     1     -12.070  15.478  64.128  1.00  0.00    -0.045 C  
HETATM    2  N   UNL     1     -12.244  14.199  63.428  1.00  0.00    -1.099 N  
HETATM    3  H   UNL     1     -12.416  14.158  62.423  1.00  0.00     0.000 HD 
ENDROOT
BRANCH   2   4
HETATM    4  S   UNL     1     -12.148  12.792  64.369  1.00  0.00    -0.443 S  
HETATM    5  O   UNL     1     -13.408  12.727  65.076  1.00  0.00    -0.678 OA 
HETATM    6  O   UNL     1     -11.741  11.744  63.457  1.00  0.00    -0.450 OA 
BRANCH   4   7
HETATM    7  C   UNL     1     -10.820  13.208  65.514  1.00  0.00    -0.283 C  
BRANCH   7   8
HETATM    8  C   UNL     1     -11.352  13.440  66.906  1.00  0.00    -0.351 A  
HETATM    9  C   UNL     1     -11.529  12.369  67.803  1.00  0.00    -0.383 A  
HETATM   10  C   UNL     1     -11.964  12.604  69.124  1.00  0.00    -0.293 A  
HETATM   11  C   UNL     1     -12.168  13.924  69.521  1.00  0.00    -0.306 A  
HETATM   12  C   UNL     1     -11.994  15.013  68.662  1.00  0.00    -0.278 A  
HETATM   13  N   UNL     1     -12.544  13.892  70.842  1.00  0.00    -0.349 NA 
HETATM   14  C   UNL     1     -11.587  14.748  67.351  1.00  0.00    -0.377 A  
HETATM   15  H   UNL     1     -12.758  14.715  71.406  1.00  0.00     0.000 HD 
HETATM   16  C   UNL     1     -12.593  12.603  71.294  1.00  0.00    -0.240 A  
HETATM   17  C   UNL     1     -12.268  11.762  70.244  1.00  0.00    -0.381 A  
BRANCH  17  18
HETATM   18  C   UNL     1     -12.241  10.257  70.296  1.00  0.00    -0.298 C  
BRANCH  18  19
HETATM   19  C   UNL     1     -10.801   9.700  70.272  1.00  0.00    -0.285 C  
BRANCH  19  20
HETATM   20  N   UNL     1     -10.662   8.291  69.844  1.00  0.00    -0.240 NA 
HETATM   21  C   UNL     1     -10.820   7.413  71.011  1.00  0.00    -0.239 C  
HETATM   22  C   UNL     1      -9.371   8.025  69.209  1.00  0.00    -0.151 C  
ENDBRANCH  19  20
ENDBRANCH  18  19
ENDBRANCH  17  18
ENDBRANCH   7   8
ENDBRANCH   4   7
ENDBRANCH   2   4
TORSDOF 6
ENDMDL
MODEL       37
REMARK 921   NORMALIZED FREE ENERGY PREDICTED BY IDOCK:   -5.42 KCAL/MOL
REMARK 922        TOTAL FREE ENERGY PREDICTED BY IDOCK:   -7.35 KCAL/MOL
REMARK 923 INTER-LIGAND FREE ENERGY PREDICTED BY IDOCK:   -6.97 KCAL/MOL
REMARK 924 INTRA-LIGAND FREE ENERGY PREDICTED BY IDOCK:   -0.38 KCAL/MOL
REMARK 927      BINDING AFFINITY PREDICTED BY RF-SCORE:    0.00 PKD
ROOT
HETATM    1  C   UNL     1     -10.837   5.437  72.503  1.00  0.00    -0.250 C  
HETATM    2  N   UNL     1     -12.091   6.145  72.788  1.00  0.00    -0.503 N  
HETATM    3  H   UNL     1     -12.578   6.033  73.677  1.00  0.00     0.000 HD 
ENDROOT
BRANCH   2   4
HETATM    4  S   UNL     1     -12.691   7.160  71.570  1.00  0.00    -0.384 S  
HETATM    5  O   UNL     1     -12.029   6.724  70.360  1.00  0.00    -0.373 OA 
HETATM    6  O   UNL     1     -14.132   7.112  71.701  1.00  0.00    -0.400 OA 
BRANCH   4   7
HETATM    7  C   UNL     1     -12.045   8.764  72.080  1.00  0.00    -0.377 C  
BRANCH   7   8
HETATM    8  C   UNL     1     -11.018   9.275  71.101  1.00  0.00    -0.409 A  
HETATM    9  C   UNL     1     -11.380  10.159  70.064  1.00  0.00    -0.351 A  
HETATM   10  C   UNL     1     -10.400  10.683  69.195  1.00  0.00    -0.242 A  
HETATM   11  C   UNL     1      -9.070  10.336  69.422  1.00  0.00    -0.187 A  
HETATM   12  C   UNL     1      -8.672   9.470  70.445  1.00  0.00    -0.265 A  
HETATM   13  N   UNL     1      -8.317  10.996  68.482  1.00  0.00    -0.142 NA 
HETATM   14  C   UNL     1      -9.668   8.945  71.276  1.00  0.00    -0.359 A  
HETATM   15  H   UNL     1      -7.302  10.938  68.404  1.00  0.00     0.000 HD 
HETATM   16  C   UNL     1      -9.120  11.741  67.664  1.00  0.00    -0.177 A  
HETATM   17  C   UNL     1     -10.434  11.551  68.054  1.00  0.00    -0.214 A  
BRANCH  17  18
HETATM   18  C   UNL     1     -11.647  12.154  67.395  1.00  0.00    -0.410 C  
BRANCH  18  19
HETATM   19  C   UNL     1     -11.527  12.164  65.855  1.00  0.00    -0.363 C  
BRANCH  19  20
HETATM   20  N   UNL     1     -12.711  12.662  65.120  1.00  0.00    -0.732 NA 
HETATM   21  C   UNL     1     -12.574  12.324  63.698  1.00  0.00    -0.490 C  
HETATM   22  C   UNL     1     -12.885  14.108  65.260  1.00  0.00    -0.344 C  
ENDBRANCH  19  20
ENDBRANCH  18  19
ENDBRANCH  17  18
ENDBRANCH   7   8
ENDBRANCH   4   7
ENDBRANCH   2   4
TORSDOF 6
ENDMDL
MODEL       38
REMARK 921   NORMALIZED FREE ENERGY PREDICTED BY IDOCK:   -5.42 KCAL/MOL
REMARK 922        TOTAL FREE ENERGY PREDICTED BY IDOCK:   -7.35 KCAL/MOL
REMARK 923 INTER-LIGAND FREE ENERGY PREDICTED BY IDOCK:   -7.06 KCAL/MOL
REMARK 924 INTRA-LIGAND FREE ENERGY PREDICTED BY IDOCK:   -0.29 KCAL/MOL
REMARK 927      BINDING AFFINITY PREDICTED BY RF-SCORE:    0.00 PKD
ROOT
HETATM    1  C   UNL     1     -11.443   6.474  71.237  1.00  0.00    -0.318 C  
HETATM    2  N   UNL     1     -12.174   7.606  70.655  1.00  0.00    -0.511 N  
HETATM    3  H   UNL     1     -12.659   7.526  69.761  1.00  0.00     0.000 HD 
ENDROOT
BRANCH   2   4
HETATM    4  S   UNL     1     -12.175   9.053  71.537  1.00  0.00    -0.355 S  
HETATM    5  O   UNL     1     -13.135   8.843  72.599  1.00  0.00    -0.418 OA 
HETATM    6  O   UNL     1     -10.784   9.334  71.823  1.00  0.00    -0.363 OA 
BRANCH   4   7
HETATM    7  C   UNL     1     -12.838  10.217  70.331  1.00  0.00    -0.139 C  
BRANCH   7   8
HETATM    8  C   UNL     1     -12.753  11.635  70.836  1.00  0.00    -0.351 A  
HETATM    9  C   UNL     1     -12.025  12.614  70.131  1.00  0.00    -0.375 A  
HETATM   10  C   UNL     1     -12.007  13.953  70.575  1.00  0.00    -0.384 A  
HETATM   11  C   UNL     1     -12.761  14.280  71.700  1.00  0.00    -0.352 A  
HETATM   12  C   UNL     1     -13.502  13.338  72.421  1.00  0.00    -0.670 A  
HETATM   13  N   UNL     1     -12.612  15.630  71.905  1.00  0.00    -0.406 NA 
HETATM   14  C   UNL     1     -13.482  12.013  71.971  1.00  0.00    -0.364 A  
HETATM   15  H   UNL     1     -13.055  16.156  72.658  1.00  0.00     0.000 HD 
HETATM   16  C   UNL     1     -11.787  16.168  70.958  1.00  0.00    -0.327 A  
HETATM   17  C   UNL     1     -11.359  15.150  70.124  1.00  0.00    -0.300 A  
BRANCH  17  18
HETATM   18  C   UNL     1     -10.404  15.297  68.969  1.00  0.00    -0.242 C  
BRANCH  18  19
HETATM   19  C   UNL     1      -9.374  16.424  69.207  1.00  0.00    -0.175 C  
BRANCH  19  20
HETATM   20  N   UNL     1      -9.711  17.739  68.620  1.00  0.00    -0.336 NA 
HETATM   21  C   UNL     1     -10.350  17.535  67.313  1.00  0.00    -0.337 C  
HETATM   22  C   UNL     1      -8.536  18.595  68.456  1.00  0.00    -0.338 C  
ENDBRANCH  19  20
ENDBRANCH  18  19
ENDBRANCH  17  18
ENDBRANCH   7   8
ENDBRANCH   4   7
ENDBRANCH   2   4
TORSDOF 6
ENDMDL
MODEL       39
REMARK 921   NORMALIZED FREE ENERGY PREDICTED BY IDOCK:   -5.40 KCAL/MOL
REMARK 922        TOTAL FREE ENERGY PREDICTED BY IDOCK:   -7.33 KCAL/MOL
REMARK 923 INTER-LIGAND FREE ENERGY PREDICTED BY IDOCK:   -6.86 KCAL/MOL
REMARK 924 INTRA-LIGAND FREE ENERGY PREDICTED BY IDOCK:   -0.47 KCAL/MOL
REMARK 927      BINDING AFFINITY PREDICTED BY RF-SCORE:    0.00 PKD
ROOT
HETATM    1  C   UNL     1     -11.810  15.813  64.323  1.00  0.00    -0.118 C  
HETATM    2  N   UNL     1     -12.307  14.611  63.641  1.00  0.00    -1.089 N  
HETATM    3  H   UNL     1     -12.761  14.662  62.730  1.00  0.00     0.000 HD 
ENDROOT
BRANCH   2   4
HETATM    4  S   UNL     1     -12.089  13.132  64.441  1.00  0.00    -0.421 S  
HETATM    5  O   UNL     1     -13.220  12.322  64.046  1.00  0.00    -0.757 OA 
HETATM    6  O   UNL     1     -10.731  12.727  64.143  1.00  0.00    -0.362 OA 
BRANCH   4   7
HETATM    7  C   UNL     1     -12.256  13.622  66.168  1.00  0.00    -0.444 C  
BRANCH   7   8
HETATM    8  C   UNL     1     -11.085  13.141  66.988  1.00  0.00    -0.305 A  
HETATM    9  C   UNL     1     -11.097  11.868  67.593  1.00  0.00    -0.314 A  
HETATM   10  C   UNL     1      -9.971  11.401  68.302  1.00  0.00    -0.203 A  
HETATM   11  C   UNL     1      -8.840  12.214  68.344  1.00  0.00    -0.143 A  
HETATM   12  C   UNL     1      -8.787  13.478  67.748  1.00  0.00    -0.198 A  
HETATM   13  N   UNL     1      -7.880  11.529  69.048  1.00  0.00    -0.318 NA 
HETATM   14  C   UNL     1      -9.928  13.926  67.074  1.00  0.00    -0.258 A  
HETATM   15  H   UNL     1      -6.940  11.876  69.238  1.00  0.00     0.000 HD 
HETATM   16  C   UNL     1      -8.361  10.318  69.458  1.00  0.00    -0.151 A  
HETATM   17  C   UNL     1      -9.676  10.208  69.041  1.00  0.00    -0.212 A  
BRANCH  17  18
HETATM   18  C   UNL     1     -10.596   9.048  69.318  1.00  0.00    -0.226 C  
BRANCH  18  19
HETATM   19  C   UNL     1     -11.099   9.040  70.779  1.00  0.00    -0.272 C  
BRANCH  19  20
HETATM   20  N   UNL     1     -12.534   9.346  70.967  1.00  0.00    -0.275 NA 
HETATM   21  C   UNL     1     -12.676  10.730  71.436  1.00  0.00    -0.439 C  
HETATM   22  C   UNL     1     -13.176   8.442  71.922  1.00  0.00    -0.357 C  
ENDBRANCH  19  20
ENDBRANCH  18  19
ENDBRANCH  17  18
ENDBRANCH   7   8
ENDBRANCH   4   7
ENDBRANCH   2   4
TORSDOF 6
ENDMDL
MODEL       40
REMARK 921   NORMALIZED FREE ENERGY PREDICTED BY IDOCK:   -5.40 KCAL/MOL
REMARK 922        TOTAL FREE ENERGY PREDICTED BY IDOCK:   -7.33 KCAL/MOL
REMARK 923 INTER-LIGAND FREE ENERGY PREDICTED BY IDOCK:   -7.10 KCAL/MOL
REMARK 924 INTRA-LIGAND FREE ENERGY PREDICTED BY IDOCK:   -0.23 KCAL/MOL
REMARK 927      BINDING AFFINITY PREDICTED BY RF-SCORE:    0.00 PKD
ROOT
HETATM    1  C   UNL     1     -10.426  17.402  66.279  1.00  0.00    -0.276 C  
HETATM    2  N   UNL     1     -10.179  16.021  65.844  1.00  0.00    -0.343 N  
HETATM    3  H   UNL     1      -9.722  15.813  64.956  1.00  0.00     0.000 HD 
ENDROOT
BRANCH   2   4
HETATM    4  S   UNL     1     -10.688  14.787  66.889  1.00  0.00    -0.314 S  
HETATM    5  O   UNL     1     -11.971  14.364  66.371  1.00  0.00    -0.404 OA 
HETATM    6  O   UNL     1      -9.572  13.870  66.978  1.00  0.00    -0.237 OA 
BRANCH   4   7
HETATM    7  C   UNL     1     -10.916  15.686  68.435  1.00  0.00    -0.308 C  
BRANCH   7   8
HETATM    8  C   UNL     1     -11.711  14.875  69.426  1.00  0.00    -0.349 A  
HETATM    9  C   UNL     1     -11.544  13.479  69.521  1.00  0.00    -0.355 A  
HETATM   10  C   UNL     1     -12.243  12.739  70.498  1.00  0.00    -0.389 A  
HETATM   11  C   UNL     1     -13.062  13.433  71.385  1.00  0.00    -0.291 A  
HETATM   12  C   UNL     1     -13.245  14.819  71.328  1.00  0.00    -0.447 A  
HETATM   13  N   UNL     1     -13.592  12.508  72.251  1.00  0.00    -0.549 NA 
HETATM   14  C   UNL     1     -12.559  15.524  70.333  1.00  0.00    -0.421 A  
HETATM   15  H   UNL     1     -14.229  12.726  73.017  1.00  0.00     0.000 HD 
HETATM   16  C   UNL     1     -13.146  11.254  71.941  1.00  0.00    -0.405 A  
HETATM   17  C   UNL     1     -12.324  11.346  70.831  1.00  0.00    -0.483 A  
BRANCH  17  18
HETATM   18  C   UNL     1     -11.653  10.194  70.131  1.00  0.00    -0.350 C  
BRANCH  18  19
HETATM   19  C   UNL     1     -11.291   9.052  71.107  1.00  0.00    -0.307 C  
BRANCH  19  20
HETATM   20  N   UNL     1     -11.573   7.682  70.628  1.00  0.00    -0.267 NA 
HETATM   21  C   UNL     1     -12.725   7.141  71.361  1.00  0.00    -0.391 C  
HETATM   22  C   UNL     1     -10.428   6.785  70.795  1.00  0.00    -0.214 C  
ENDBRANCH  19  20
ENDBRANCH  18  19
ENDBRANCH  17  18
ENDBRANCH   7   8
ENDBRANCH   4   7
ENDBRANCH   2   4
TORSDOF 6
ENDMDL
MODEL       41
REMARK 921   NORMALIZED FREE ENERGY PREDICTED BY IDOCK:   -5.39 KCAL/MOL
REMARK 922        TOTAL FREE ENERGY PREDICTED BY IDOCK:   -7.31 KCAL/MOL
REMARK 923 INTER-LIGAND FREE ENERGY PREDICTED BY IDOCK:   -6.79 KCAL/MOL
REMARK 924 INTRA-LIGAND FREE ENERGY PREDICTED BY IDOCK:   -0.52 KCAL/MOL
REMARK 927      BINDING AFFINITY PREDICTED BY RF-SCORE:    0.00 PKD
ROOT
HETATM    1  C   UNL     1     -11.940  14.305  67.073  1.00  0.00    -0.433 C  
HETATM    2  N   UNL     1     -12.632  13.976  65.821  1.00  0.00    -0.503 N  
HETATM    3  H   UNL     1     -13.561  13.555  65.818  1.00  0.00     0.000 HD 
ENDROOT
BRANCH   2   4
HETATM    4  S   UNL     1     -11.815  14.329  64.378  1.00  0.00    -0.399 S  
HETATM    5  O   UNL     1     -12.593  15.377  63.754  1.00  0.00    -0.678 OA 
HETATM    6  O   UNL     1     -10.434  14.540  64.758  1.00  0.00    -0.423 OA 
BRANCH   4   7
HETATM    7  C   UNL     1     -12.009  12.789  63.461  1.00  0.00    -0.555 C  
BRANCH   7   8
HETATM    8  C   UNL     1     -10.930  11.800  63.821  1.00  0.00    -0.500 A  
HETATM    9  C   UNL     1     -11.004  11.044  65.008  1.00  0.00    -0.117 A  
HETATM   10  C   UNL     1     -10.025  10.073  65.302  1.00  0.00    -0.368 A  
HETATM   11  C   UNL     1      -9.014   9.858  64.368  1.00  0.00    -0.239 A  
HETATM   12  C   UNL     1      -8.912  10.582  63.176  1.00  0.00    -0.240 A  
HETATM   13  N   UNL     1      -8.219   8.852  64.860  1.00  0.00    -0.151 NA 
HETATM   14  C   UNL     1      -9.884  11.556  62.922  1.00  0.00    -0.279 A  
HETATM   15  H   UNL     1      -7.398   8.474  64.387  1.00  0.00     0.000 HD 
HETATM   16  C   UNL     1      -8.684   8.427  66.073  1.00  0.00    -0.157 A  
HETATM   17  C   UNL     1      -9.793   9.185  66.404  1.00  0.00    -0.350 A  
BRANCH  17  18
HETATM   18  C   UNL     1     -10.590   9.075  67.678  1.00  0.00    -0.298 C  
BRANCH  18  19
HETATM   19  C   UNL     1      -9.833   9.663  68.889  1.00  0.00    -0.174 C  
BRANCH  19  20
HETATM   20  N   UNL     1     -10.666  10.364  69.890  1.00  0.00    -0.281 NA 
HETATM   21  C   UNL     1     -10.976   9.443  70.991  1.00  0.00    -0.338 C  
HETATM   22  C   UNL     1     -11.914  10.873  69.319  1.00  0.00    -0.310 C  
ENDBRANCH  19  20
ENDBRANCH  18  19
ENDBRANCH  17  18
ENDBRANCH   7   8
ENDBRANCH   4   7
ENDBRANCH   2   4
TORSDOF 6
ENDMDL
MODEL       42
REMARK 921   NORMALIZED FREE ENERGY PREDICTED BY IDOCK:   -5.38 KCAL/MOL
REMARK 922        TOTAL FREE ENERGY PREDICTED BY IDOCK:   -7.30 KCAL/MOL
REMARK 923 INTER-LIGAND FREE ENERGY PREDICTED BY IDOCK:   -6.81 KCAL/MOL
REMARK 924 INTRA-LIGAND FREE ENERGY PREDICTED BY IDOCK:   -0.50 KCAL/MOL
REMARK 927      BINDING AFFINITY PREDICTED BY RF-SCORE:    0.00 PKD
ROOT
HETATM    1  C   UNL     1     -11.000   9.903  70.491  1.00  0.00    -0.326 C  
HETATM    2  N   UNL     1      -9.922  10.436  69.648  1.00  0.00    -0.372 N  
HETATM    3  H   UNL     1      -8.980  10.578  70.012  1.00  0.00     0.000 HD 
ENDROOT
BRANCH   2   4
HETATM    4  S   UNL     1     -10.316  10.804  68.041  1.00  0.00    -0.194 S  
HETATM    5  O   UNL     1      -9.133  11.437  67.501  1.00  0.00    -0.153 OA 
HETATM    6  O   UNL     1     -10.836   9.575  67.480  1.00  0.00    -0.280 OA 
BRANCH   4   7
HETATM    7  C   UNL     1     -11.624  12.025  68.256  1.00  0.00    -0.334 C  
BRANCH   7   8
HETATM    8  C   UNL     1     -11.581  13.068  67.167  1.00  0.00    -0.411 A  
HETATM    9  C   UNL     1     -11.109  14.370  67.427  1.00  0.00    -0.317 A  
HETATM   10  C   UNL     1     -11.010  15.317  66.387  1.00  0.00    -0.299 A  
HETATM   11  C   UNL     1     -11.350  14.913  65.098  1.00  0.00    -0.379 A  
HETATM   12  C   UNL     1     -11.813  13.628  64.800  1.00  0.00    -0.414 A  
HETATM   13  N   UNL     1     -11.134  15.987  64.270  1.00  0.00    -1.044 NA 
HETATM   14  C   UNL     1     -11.926  12.717  65.855  1.00  0.00    -0.497 A  
HETATM   15  H   UNL     1     -11.292  15.986  63.262  1.00  0.00     0.000 HD 
HETATM   16  C   UNL     1     -10.677  17.058  64.986  1.00  0.00     0.021 A  
HETATM   17  C   UNL     1     -10.614  16.694  66.320  1.00  0.00    -0.205 A  
BRANCH  17  18
HETATM   18  C   UNL     1     -10.202  17.587  67.460  1.00  0.00    -0.340 C  
BRANCH  18  19
HETATM   19  C   UNL     1      -8.699  17.941  67.408  1.00  0.00    -0.237 C  
BRANCH  19  20
HETATM   20  N   UNL     1      -8.380  19.382  67.306  1.00  0.00    -0.287 NA 
HETATM   21  C   UNL     1      -9.630  20.149  67.232  1.00  0.00    -0.421 C  
HETATM   22  C   UNL     1      -7.553  19.689  66.139  1.00  0.00    -0.316 C  
ENDBRANCH  19  20
ENDBRANCH  18  19
ENDBRANCH  17  18
ENDBRANCH   7   8
ENDBRANCH   4   7
ENDBRANCH   2   4
TORSDOF 6
ENDMDL
MODEL       43
REMARK 921   NORMALIZED FREE ENERGY PREDICTED BY IDOCK:   -5.37 KCAL/MOL
REMARK 922        TOTAL FREE ENERGY PREDICTED BY IDOCK:   -7.29 KCAL/MOL
REMARK 923 INTER-LIGAND FREE ENERGY PREDICTED BY IDOCK:   -6.90 KCAL/MOL
REMARK 924 INTRA-LIGAND FREE ENERGY PREDICTED BY IDOCK:   -0.39 KCAL/MOL
REMARK 927      BINDING AFFINITY PREDICTED BY RF-SCORE:    0.00 PKD
ROOT
HETATM    1  C   UNL     1      -8.719   8.092  67.316  1.00  0.00    -0.124 C  
HETATM    2  N   UNL     1      -8.997   8.190  68.755  1.00  0.00    -0.144 N  
HETATM    3  H   UNL     1      -9.031   7.363  69.351  1.00  0.00     0.000 HD 
ENDROOT
BRANCH   2   4
HETATM    4  S   UNL     1      -9.258   9.744  69.380  1.00  0.00    -0.219 S  
HETATM    5  O   UNL     1      -9.186   9.587  70.816  1.00  0.00    -0.236 OA 
HETATM    6  O   UNL     1      -8.338  10.607  68.669  1.00  0.00    -0.121 OA 
BRANCH   4   7
HETATM    7  C   UNL     1     -10.961  10.058  68.881  1.00  0.00    -0.207 C  
BRANCH   7   8
HETATM    8  C   UNL     1     -11.720  10.789  69.960  1.00  0.00    -0.417 A  
HETATM    9  C   UNL     1     -11.881  12.188  69.913  1.00  0.00    -0.392 A  
HETATM   10  C   UNL     1     -12.649  12.854  70.891  1.00  0.00    -0.355 A  
HETATM   11  C   UNL     1     -13.274  12.084  71.869  1.00  0.00    -0.364 A  
HETATM   12  C   UNL     1     -13.146  10.694  71.942  1.00  0.00    -0.563 A  
HETATM   13  N   UNL     1     -13.984  12.948  72.668  1.00  0.00    -0.699 NA 
HETATM   14  C   UNL     1     -12.357  10.063  70.974  1.00  0.00    -0.458 A  
HETATM   15  H   UNL     1     -14.549  12.668  73.469  1.00  0.00     0.000 HD 
HETATM   16  C   UNL     1     -13.826  14.235  72.236  1.00  0.00    -0.524 A  
HETATM   17  C   UNL     1     -12.974  14.228  71.146  1.00  0.00    -0.423 A  
BRANCH  17  18
HETATM   18  C   UNL     1     -12.498  15.439  70.389  1.00  0.00    -0.447 C  
BRANCH  18  19
HETATM   19  C   UNL     1     -10.982  15.676  70.563  1.00  0.00    -0.350 C  
BRANCH  19  20
HETATM   20  N   UNL     1     -10.262  16.149  69.360  1.00  0.00    -0.252 NA 
HETATM   21  C   UNL     1     -11.076  15.872  68.170  1.00  0.00    -0.338 C  
HETATM   22  C   UNL     1      -8.952  15.515  69.209  1.00  0.00    -0.267 C  
ENDBRANCH  19  20
ENDBRANCH  18  19
ENDBRANCH  17  18
ENDBRANCH   7   8
ENDBRANCH   4   7
ENDBRANCH   2   4
TORSDOF 6
ENDMDL
MODEL       44
REMARK 921   NORMALIZED FREE ENERGY PREDICTED BY IDOCK:   -5.37 KCAL/MOL
REMARK 922        TOTAL FREE ENERGY PREDICTED BY IDOCK:   -7.28 KCAL/MOL
REMARK 923 INTER-LIGAND FREE ENERGY PREDICTED BY IDOCK:   -6.66 KCAL/MOL
REMARK 924 INTRA-LIGAND FREE ENERGY PREDICTED BY IDOCK:   -0.63 KCAL/MOL
REMARK 927      BINDING AFFINITY PREDICTED BY RF-SCORE:    0.00 PKD
ROOT
HETATM    1  C   UNL     1     -10.518  14.223  64.972  1.00  0.00    -0.435 C  
HETATM    2  N   UNL     1      -9.903  12.910  65.201  1.00  0.00    -0.496 N  
HETATM    3  H   UNL     1      -9.034  12.639  64.740  1.00  0.00     0.000 HD 
ENDROOT
BRANCH   2   4
HETATM    4  S   UNL     1     -10.704  11.865  66.269  1.00  0.00    -0.282 S  
HETATM    5  O   UNL     1     -12.104  12.206  66.147  1.00  0.00    -0.621 OA 
HETATM    6  O   UNL     1     -10.220  10.539  65.949  1.00  0.00    -0.253 OA 
BRANCH   4   7
HETATM    7  C   UNL     1     -10.073  12.419  67.865  1.00  0.00    -0.208 C  
BRANCH   7   8
HETATM    8  C   UNL     1     -11.034  12.084  68.977  1.00  0.00    -0.260 A  
HETATM    9  C   UNL     1     -11.214  10.754  69.406  1.00  0.00    -0.337 A  
HETATM   10  C   UNL     1     -12.064  10.459  70.492  1.00  0.00    -0.423 A  
HETATM   11  C   UNL     1     -12.680  11.522  71.148  1.00  0.00    -0.356 A  
HETATM   12  C   UNL     1     -12.519  12.855  70.758  1.00  0.00    -0.370 A  
HETATM   13  N   UNL     1     -13.414  10.986  72.179  1.00  0.00    -0.529 NA 
HETATM   14  C   UNL     1     -11.690  13.115  69.662  1.00  0.00    -0.370 A  
HETATM   15  H   UNL     1     -13.972  11.528  72.839  1.00  0.00     0.000 HD 
HETATM   16  C   UNL     1     -13.291   9.625  72.195  1.00  0.00    -0.454 A  
HETATM   17  C   UNL     1     -12.482   9.249  71.138  1.00  0.00    -0.341 A  
BRANCH  17  18
HETATM   18  C   UNL     1     -12.119   7.836  70.763  1.00  0.00    -0.120 C  
BRANCH  18  19
HETATM   19  C   UNL     1     -11.039   7.245  71.696  1.00  0.00    -0.233 C  
BRANCH  19  20
HETATM   20  N   UNL     1      -9.642   7.377  71.228  1.00  0.00    -0.162 NA 
HETATM   21  C   UNL     1      -9.056   8.599  71.794  1.00  0.00    -0.247 C  
HETATM   22  C   UNL     1      -9.545   7.424  69.768  1.00  0.00    -0.163 C  
ENDBRANCH  19  20
ENDBRANCH  18  19
ENDBRANCH  17  18
ENDBRANCH   7   8
ENDBRANCH   4   7
ENDBRANCH   2   4
TORSDOF 6
ENDMDL
MODEL       45
REMARK 921   NORMALIZED FREE ENERGY PREDICTED BY IDOCK:   -5.36 KCAL/MOL
REMARK 922        TOTAL FREE ENERGY PREDICTED BY IDOCK:   -7.27 KCAL/MOL
REMARK 923 INTER-LIGAND FREE ENERGY PREDICTED BY IDOCK:   -6.86 KCAL/MOL
REMARK 924 INTRA-LIGAND FREE ENERGY PREDICTED BY IDOCK:   -0.40 KCAL/MOL
REMARK 927      BINDING AFFINITY PREDICTED BY RF-SCORE:    0.00 PKD
ROOT
HETATM    1  C   UNL     1     -11.232   5.301  72.795  1.00  0.00    -0.284 C  
HETATM    2  N   UNL     1     -12.492   6.031  72.602  1.00  0.00    -0.487 N  
HETATM    3  H   UNL     1     -13.300   5.870  73.203  1.00  0.00     0.000 HD 
ENDROOT
BRANCH   2   4
HETATM    4  S   UNL     1     -12.540   7.154  71.333  1.00  0.00    -0.382 S  
HETATM    5  O   UNL     1     -11.874   6.499  70.228  1.00  0.00    -0.413 OA 
HETATM    6  O   UNL     1     -13.923   7.572  71.238  1.00  0.00    -0.365 OA 
BRANCH   4   7
HETATM    7  C   UNL     1     -11.503   8.479  71.977  1.00  0.00    -0.361 C  
BRANCH   7   8
HETATM    8  C   UNL     1     -11.591   9.711  71.112  1.00  0.00    -0.456 A  
HETATM    9  C   UNL     1     -11.061   9.721  69.807  1.00  0.00    -0.272 A  
HETATM   10  C   UNL     1     -11.208  10.855  68.982  1.00  0.00    -0.327 A  
HETATM   11  C   UNL     1     -11.927  11.940  69.481  1.00  0.00    -0.292 A  
HETATM   12  C   UNL     1     -12.475  11.963  70.767  1.00  0.00    -0.384 A  
HETATM   13  N   UNL     1     -11.963  12.889  68.489  1.00  0.00    -0.289 NA 
HETATM   14  C   UNL     1     -12.292  10.834  71.572  1.00  0.00    -0.381 A  
HETATM   15  H   UNL     1     -12.427  13.793  68.565  1.00  0.00     0.000 HD 
HETATM   16  C   UNL     1     -11.288  12.450  67.384  1.00  0.00    -0.321 A  
HETATM   17  C   UNL     1     -10.773  11.196  67.658  1.00  0.00    -0.273 A  
BRANCH  17  18
HETATM   18  C   UNL     1      -9.926  10.367  66.729  1.00  0.00    -0.256 C  
BRANCH  18  19
HETATM   19  C   UNL     1      -9.476  11.164  65.485  1.00  0.00    -0.221 C  
BRANCH  19  20
HETATM   20  N   UNL     1     -10.177  10.839  64.224  1.00  0.00    -0.353 NA 
HETATM   21  C   UNL     1      -9.242  10.173  63.308  1.00  0.00    -0.290 C  
HETATM   22  C   UNL     1     -10.730  12.027  63.572  1.00  0.00    -0.455 C  
ENDBRANCH  19  20
ENDBRANCH  18  19
ENDBRANCH  17  18
ENDBRANCH   7   8
ENDBRANCH   4   7
ENDBRANCH   2   4
TORSDOF 6
ENDMDL
MODEL       46
REMARK 921   NORMALIZED FREE ENERGY PREDICTED BY IDOCK:   -5.32 KCAL/MOL
REMARK 922        TOTAL FREE ENERGY PREDICTED BY IDOCK:   -7.21 KCAL/MOL
REMARK 923 INTER-LIGAND FREE ENERGY PREDICTED BY IDOCK:   -6.87 KCAL/MOL
REMARK 924 INTRA-LIGAND FREE ENERGY PREDICTED BY IDOCK:   -0.34 KCAL/MOL
REMARK 927      BINDING AFFINITY PREDICTED BY RF-SCORE:    0.00 PKD
ROOT
HETATM    1  C   UNL     1      -9.048   9.193  65.403  1.00  0.00    -0.214 C  
HETATM    2  N   UNL     1     -10.147   8.701  66.244  1.00  0.00    -0.424 N  
HETATM    3  H   UNL     1     -10.967   9.274  66.441  1.00  0.00     0.000 HD 
ENDROOT
BRANCH   2   4
HETATM    4  S   UNL     1      -9.988   7.134  66.873  1.00  0.00    -0.225 S  
HETATM    5  O   UNL     1     -11.344   6.681  67.095  1.00  0.00    -0.343 OA 
HETATM    6  O   UNL     1      -9.101   6.441  65.964  1.00  0.00    -0.154 OA 
BRANCH   4   7
HETATM    7  C   UNL     1      -9.180   7.454  68.453  1.00  0.00    -0.138 C  
BRANCH   7   8
HETATM    8  C   UNL     1     -10.188   7.563  69.569  1.00  0.00    -0.207 A  
HETATM    9  C   UNL     1     -10.833   8.784  69.849  1.00  0.00    -0.211 A  
HETATM   10  C   UNL     1     -11.823   8.859  70.851  1.00  0.00    -0.283 A  
HETATM   11  C   UNL     1     -12.169   7.686  71.518  1.00  0.00    -0.324 A  
HETATM   12  C   UNL     1     -11.559   6.455  71.262  1.00  0.00    -0.370 A  
HETATM   13  N   UNL     1     -13.168   8.009  72.404  1.00  0.00    -0.538 NA 
HETATM   14  C   UNL     1     -10.562   6.415  70.280  1.00  0.00    -0.290 A  
HETATM   15  H   UNL     1     -13.626   7.347  73.030  1.00  0.00     0.000 HD 
HETATM   16  C   UNL     1     -13.461   9.341  72.328  1.00  0.00    -0.482 A  
HETATM   17  C   UNL     1     -12.622   9.919  71.392  1.00  0.00    -0.497 A  
BRANCH  17  18
HETATM   18  C   UNL     1     -12.580  11.380  71.026  1.00  0.00    -0.487 C  
BRANCH  18  19
HETATM   19  C   UNL     1     -13.393  12.250  72.011  1.00  0.00    -0.386 C  
BRANCH  19  20
HETATM   20  N   UNL     1     -13.092  13.698  71.990  1.00  0.00    -0.385 NA 
HETATM   21  C   UNL     1     -14.352  14.453  71.968  1.00  0.00    -0.553 C  
HETATM   22  C   UNL     1     -12.278  14.082  70.836  1.00  0.00    -0.362 C  
ENDBRANCH  19  20
ENDBRANCH  18  19
ENDBRANCH  17  18
ENDBRANCH   7   8
ENDBRANCH   4   7
ENDBRANCH   2   4
TORSDOF 6
ENDMDL
MODEL       47
REMARK 921   NORMALIZED FREE ENERGY PREDICTED BY IDOCK:   -5.29 KCAL/MOL
REMARK 922        TOTAL FREE ENERGY PREDICTED BY IDOCK:   -7.18 KCAL/MOL
REMARK 923 INTER-LIGAND FREE ENERGY PREDICTED BY IDOCK:   -6.72 KCAL/MOL
REMARK 924 INTRA-LIGAND FREE ENERGY PREDICTED BY IDOCK:   -0.46 KCAL/MOL
REMARK 927      BINDING AFFINITY PREDICTED BY RF-SCORE:    0.00 PKD
ROOT
HETATM    1  C   UNL     1     -10.693   6.906  67.106  1.00  0.00    -0.366 C  
HETATM    2  N   UNL     1     -10.956   8.291  67.515  1.00  0.00    -0.477 N  
HETATM    3  H   UNL     1     -11.808   8.779  67.236  1.00  0.00     0.000 HD 
ENDROOT
BRANCH   2   4
HETATM    4  S   UNL     1      -9.778   9.043  68.475  1.00  0.00    -0.164 S  
HETATM    5  O   UNL     1     -10.476  10.113  69.154  1.00  0.00    -0.195 OA 
HETATM    6  O   UNL     1      -9.138   7.974  69.210  1.00  0.00    -0.148 OA 
BRANCH   4   7
HETATM    7  C   UNL     1      -8.672   9.727  67.227  1.00  0.00    -0.132 C  
BRANCH   7   8
HETATM    8  C   UNL     1      -9.446  10.307  66.070  1.00  0.00    -0.234 A  
HETATM    9  C   UNL     1     -10.296  11.416  66.249  1.00  0.00    -0.287 A  
HETATM   10  C   UNL     1     -10.964  11.993  65.148  1.00  0.00    -0.359 A  
HETATM   11  C   UNL     1     -10.722  11.461  63.884  1.00  0.00    -0.397 A  
HETATM   12  C   UNL     1      -9.878  10.368  63.665  1.00  0.00    -0.288 A  
HETATM   13  N   UNL     1     -11.447  12.209  62.988  1.00  0.00    -0.662 NA 
HETATM   14  C   UNL     1      -9.249   9.800  64.779  1.00  0.00    -0.319 A  
HETATM   15  H   UNL     1     -11.463  12.055  61.980  1.00  0.00     0.000 HD 
HETATM   16  C   UNL     1     -12.143  13.189  63.638  1.00  0.00    -0.513 A  
HETATM   17  C   UNL     1     -11.896  13.072  64.994  1.00  0.00    -0.401 A  
BRANCH  17  18
HETATM   18  C   UNL     1     -12.498  13.927  66.079  1.00  0.00    -0.501 C  
BRANCH  18  19
HETATM   19  C   UNL     1     -11.497  14.973  66.618  1.00  0.00    -0.251 C  
BRANCH  19  20
HETATM   20  N   UNL     1     -11.121  14.830  68.041  1.00  0.00    -0.275 NA 
HETATM   21  C   UNL     1     -11.876  13.717  68.631  1.00  0.00    -0.374 C  
HETATM   22  C   UNL     1     -11.376  16.049  68.810  1.00  0.00    -0.380 C  
ENDBRANCH  19  20
ENDBRANCH  18  19
ENDBRANCH  17  18
ENDBRANCH   7   8
ENDBRANCH   4   7
ENDBRANCH   2   4
TORSDOF 6
ENDMDL
MODEL       48
REMARK 921   NORMALIZED FREE ENERGY PREDICTED BY IDOCK:   -5.29 KCAL/MOL
REMARK 922        TOTAL FREE ENERGY PREDICTED BY IDOCK:   -7.18 KCAL/MOL
REMARK 923 INTER-LIGAND FREE ENERGY PREDICTED BY IDOCK:   -6.58 KCAL/MOL
REMARK 924 INTRA-LIGAND FREE ENERGY PREDICTED BY IDOCK:   -0.59 KCAL/MOL
REMARK 927      BINDING AFFINITY PREDICTED BY RF-SCORE:    0.00 PKD
ROOT
HETATM    1  C   UNL     1     -10.558   8.650  72.223  1.00  0.00    -0.305 C  
HETATM    2  N   UNL     1      -9.441   8.539  71.276  1.00  0.00    -0.185 N  
HETATM    3  H   UNL     1      -8.577   8.056  71.521  1.00  0.00     0.000 HD 
ENDROOT
BRANCH   2   4
HETATM    4  S   UNL     1      -9.656   9.251  69.752  1.00  0.00    -0.204 S  
HETATM    5  O   UNL     1      -8.633  10.269  69.667  1.00  0.00    -0.170 OA 
HETATM    6  O   UNL     1      -9.704   8.150  68.813  1.00  0.00    -0.149 OA 
BRANCH   4   7
HETATM    7  C   UNL     1     -11.276  10.021  69.934  1.00  0.00    -0.275 C  
BRANCH   7   8
HETATM    8  C   UNL     1     -11.405  11.236  69.050  1.00  0.00    -0.344 A  
HETATM    9  C   UNL     1     -11.427  12.533  69.599  1.00  0.00    -0.255 A  
HETATM   10  C   UNL     1     -11.480  13.666  68.761  1.00  0.00    -0.346 A  
HETATM   11  C   UNL     1     -11.465  13.462  67.382  1.00  0.00    -0.333 A  
HETATM   12  C   UNL     1     -11.434  12.191  66.801  1.00  0.00    -0.418 A  
HETATM   13  N   UNL     1     -11.483  14.702  66.792  1.00  0.00    -0.361 NA 
HETATM   14  C   UNL     1     -11.408  11.085  67.657  1.00  0.00    -0.355 A  
HETATM   15  H   UNL     1     -11.474  14.868  65.786  1.00  0.00     0.000 HD 
HETATM   16  C   UNL     1     -11.516  15.683  67.744  1.00  0.00    -0.209 A  
HETATM   17  C   UNL     1     -11.547  15.080  68.989  1.00  0.00    -0.342 A  
BRANCH  17  18
HETATM   18  C   UNL     1     -11.629  15.793  70.313  1.00  0.00    -0.377 C  
BRANCH  18  19
HETATM   19  C   UNL     1     -12.939  15.471  71.067  1.00  0.00    -0.489 C  
BRANCH  19  20
HETATM   20  N   UNL     1     -12.784  14.735  72.340  1.00  0.00    -0.333 NA 
HETATM   21  C   UNL     1     -13.720  13.603  72.360  1.00  0.00    -0.595 C  
HETATM   22  C   UNL     1     -13.026  15.584  73.508  1.00  0.00    -0.542 C  
ENDBRANCH  19  20
ENDBRANCH  18  19
ENDBRANCH  17  18
ENDBRANCH   7   8
ENDBRANCH   4   7
ENDBRANCH   2   4
TORSDOF 6
ENDMDL
MODEL       49
REMARK 921   NORMALIZED FREE ENERGY PREDICTED BY IDOCK:   -5.28 KCAL/MOL
REMARK 922        TOTAL FREE ENERGY PREDICTED BY IDOCK:   -7.16 KCAL/MOL
REMARK 923 INTER-LIGAND FREE ENERGY PREDICTED BY IDOCK:   -6.84 KCAL/MOL
REMARK 924 INTRA-LIGAND FREE ENERGY PREDICTED BY IDOCK:   -0.32 KCAL/MOL
REMARK 927      BINDING AFFINITY PREDICTED BY RF-SCORE:    0.00 PKD
ROOT
HETATM    1  C   UNL     1      -8.567  16.983  66.349  1.00  0.00    -0.276 C  
HETATM    2  N   UNL     1      -8.948  16.989  67.767  1.00  0.00    -0.221 N  
HETATM    3  H   UNL     1      -8.840  17.821  68.346  1.00  0.00     0.000 HD 
ENDROOT
BRANCH   2   4
HETATM    4  S   UNL     1      -9.577  15.546  68.397  1.00  0.00    -0.204 S  
HETATM    5  O   UNL     1      -9.386  14.566  67.351  1.00  0.00    -0.188 OA 
HETATM    6  O   UNL     1      -8.961  15.391  69.698  1.00  0.00    -0.263 OA 
BRANCH   4   7
HETATM    7  C   UNL     1     -11.328  15.947  68.551  1.00  0.00    -0.374 C  
BRANCH   7   8
HETATM    8  C   UNL     1     -12.010  15.041  69.545  1.00  0.00    -0.346 A  
HETATM    9  C   UNL     1     -11.764  13.653  69.549  1.00  0.00    -0.380 A  
HETATM   10  C   UNL     1     -12.354  12.824  70.525  1.00  0.00    -0.355 A  
HETATM   11  C   UNL     1     -13.148  13.423  71.501  1.00  0.00    -0.342 A  
HETATM   12  C   UNL     1     -13.408  14.796  71.534  1.00  0.00    -0.452 A  
HETATM   13  N   UNL     1     -13.568  12.424  72.345  1.00  0.00    -0.567 NA 
HETATM   14  C   UNL     1     -12.829  15.591  70.539  1.00  0.00    -0.402 A  
HETATM   15  H   UNL     1     -14.163  12.565  73.162  1.00  0.00     0.000 HD 
HETATM   16  C   UNL     1     -13.078  11.216  71.937  1.00  0.00    -0.408 A  
HETATM   17  C   UNL     1     -12.339  11.413  70.783  1.00  0.00    -0.483 A  
BRANCH  17  18
HETATM   18  C   UNL     1     -11.657  10.339  69.978  1.00  0.00    -0.349 C  
BRANCH  18  19
HETATM   19  C   UNL     1     -11.470   9.036  70.785  1.00  0.00    -0.282 C  
BRANCH  19  20
HETATM   20  N   UNL     1     -10.384   9.050  71.789  1.00  0.00    -0.352 NA 
HETATM   21  C   UNL     1      -9.094   8.878  71.107  1.00  0.00    -0.249 C  
HETATM   22  C   UNL     1     -10.542   8.001  72.797  1.00  0.00    -0.351 C  
ENDBRANCH  19  20
ENDBRANCH  18  19
ENDBRANCH  17  18
ENDBRANCH   7   8
ENDBRANCH   4   7
ENDBRANCH   2   4
TORSDOF 6
ENDMDL
MODEL       50
REMARK 921   NORMALIZED FREE ENERGY PREDICTED BY IDOCK:   -5.26 KCAL/MOL
REMARK 922        TOTAL FREE ENERGY PREDICTED BY IDOCK:   -7.14 KCAL/MOL
REMARK 923 INTER-LIGAND FREE ENERGY PREDICTED BY IDOCK:   -6.88 KCAL/MOL
REMARK 924 INTRA-LIGAND FREE ENERGY PREDICTED BY IDOCK:   -0.26 KCAL/MOL
REMARK 927      BINDING AFFINITY PREDICTED BY RF-SCORE:    0.00 PKD
ROOT
HETATM    1  C   UNL     1     -11.540  11.170  68.838  1.00  0.00    -0.317 C  
HETATM    2  N   UNL     1     -11.486  10.723  67.440  1.00  0.00    -0.162 N  
HETATM    3  H   UNL     1     -12.187  11.013  66.759  1.00  0.00     0.000 HD 
ENDROOT
BRANCH   2   4
HETATM    4  S   UNL     1     -10.203   9.701  67.012  1.00  0.00    -0.246 S  
HETATM    5  O   UNL     1      -9.070  10.186  67.768  1.00  0.00    -0.131 OA 
HETATM    6  O   UNL     1     -10.706   8.355  67.185  1.00  0.00    -0.291 OA 
BRANCH   4   7
HETATM    7  C   UNL     1      -9.990  10.095  65.265  1.00  0.00    -0.311 C  
BRANCH   7   8
HETATM    8  C   UNL     1     -10.652  11.404  64.916  1.00  0.00    -0.368 A  
HETATM    9  C   UNL     1     -10.097  12.631  65.330  1.00  0.00    -0.271 A  
HETATM   10  C   UNL     1     -10.687  13.852  64.941  1.00  0.00    -0.422 A  
HETATM   11  C   UNL     1     -11.801  13.805  64.106  1.00  0.00    -0.401 A  
HETATM   12  C   UNL     1     -12.375  12.607  63.668  1.00  0.00    -0.584 A  
HETATM   13  N   UNL     1     -12.161  15.104  63.843  1.00  0.00    -0.989 NA 
HETATM   14  C   UNL     1     -11.784  11.411  64.090  1.00  0.00    -0.036 A  
HETATM   15  H   UNL     1     -12.944  15.382  63.251  1.00  0.00     0.000 HD 
HETATM   16  C   UNL     1     -11.322  15.971  64.484  1.00  0.00    -0.295 A  
HETATM   17  C   UNL     1     -10.404  15.232  65.209  1.00  0.00    -0.430 A  
BRANCH  17  18
HETATM   18  C   UNL     1      -9.323  15.792  66.096  1.00  0.00    -0.381 C  
BRANCH  18  19
HETATM   19  C   UNL     1      -9.547  17.287  66.414  1.00  0.00    -0.274 C  
BRANCH  19  20
HETATM   20  N   UNL     1     -10.272  17.575  67.671  1.00  0.00    -0.328 NA 
HETATM   21  C   UNL     1     -10.151  19.006  67.981  1.00  0.00    -0.385 C  
HETATM   22  C   UNL     1      -9.768  16.790  68.798  1.00  0.00    -0.261 C  
ENDBRANCH  19  20
ENDBRANCH  18  19
ENDBRANCH  17  18
ENDBRANCH   7   8
ENDBRANCH   4   7
ENDBRANCH   2   4
TORSDOF 6
ENDMDL
MODEL       51
REMARK 921   NORMALIZED FREE ENERGY PREDICTED BY IDOCK:   -5.23 KCAL/MOL
REMARK 922        TOTAL FREE ENERGY PREDICTED BY IDOCK:   -7.09 KCAL/MOL
REMARK 923 INTER-LIGAND FREE ENERGY PREDICTED BY IDOCK:   -6.66 KCAL/MOL
REMARK 924 INTRA-LIGAND FREE ENERGY PREDICTED BY IDOCK:   -0.43 KCAL/MOL
REMARK 927      BINDING AFFINITY PREDICTED BY RF-SCORE:    0.00 PKD
ROOT
HETATM    1  C   UNL     1      -6.215  21.313  67.577  1.00  0.00    -0.361 C  
HETATM    2  N   UNL     1      -5.613  20.260  66.750  1.00  0.00    -0.172 N  
HETATM    3  H   UNL     1      -4.622  20.270  66.509  1.00  0.00     0.000 HD 
ENDROOT
BRANCH   2   4
HETATM    4  S   UNL     1      -6.642  19.023  66.215  1.00  0.00    -0.216 S  
HETATM    5  O   UNL     1      -6.533  19.043  64.773  1.00  0.00    -0.483 OA 
HETATM    6  O   UNL     1      -6.273  17.853  66.983  1.00  0.00    -0.146 OA 
BRANCH   4   7
HETATM    7  C   UNL     1      -8.256  19.648  66.718  1.00  0.00    -0.304 C  
BRANCH   7   8
HETATM    8  C   UNL     1      -9.147  18.531  67.203  1.00  0.00    -0.280 A  
HETATM    9  C   UNL     1      -9.557  17.501  66.334  1.00  0.00    -0.283 A  
HETATM   10  C   UNL     1     -10.334  16.426  66.813  1.00  0.00    -0.293 A  
HETATM   11  C   UNL     1     -10.642  16.395  68.172  1.00  0.00    -0.318 A  
HETATM   12  C   UNL     1     -10.245  17.394  69.066  1.00  0.00    -0.317 A  
HETATM   13  N   UNL     1     -11.362  15.246  68.394  1.00  0.00    -0.313 NA 
HETATM   14  C   UNL     1      -9.497  18.461  68.558  1.00  0.00    -0.355 A  
HETATM   15  H   UNL     1     -11.722  14.952  69.302  1.00  0.00     0.000 HD 
HETATM   16  C   UNL     1     -11.527  14.553  67.228  1.00  0.00    -0.365 A  
HETATM   17  C   UNL     1     -10.927  15.269  66.207  1.00  0.00    -0.300 A  
BRANCH  17  18
HETATM   18  C   UNL     1     -10.911  14.886  64.751  1.00  0.00    -0.382 C  
BRANCH  18  19
HETATM   19  C   UNL     1     -12.051  13.906  64.394  1.00  0.00    -0.443 C  
BRANCH  19  20
HETATM   20  N   UNL     1     -11.723  12.877  63.383  1.00  0.00    -0.515 NA 
HETATM   21  C   UNL     1     -12.785  11.863  63.364  1.00  0.00    -0.366 C  
HETATM   22  C   UNL     1     -10.438  12.228  63.645  1.00  0.00    -0.450 C  
ENDBRANCH  19  20
ENDBRANCH  18  19
ENDBRANCH  17  18
ENDBRANCH   7   8
ENDBRANCH   4   7
ENDBRANCH   2   4
TORSDOF 6
ENDMDL
MODEL       52
REMARK 921   NORMALIZED FREE ENERGY PREDICTED BY IDOCK:   -5.22 KCAL/MOL
REMARK 922        TOTAL FREE ENERGY PREDICTED BY IDOCK:   -7.09 KCAL/MOL
REMARK 923 INTER-LIGAND FREE ENERGY PREDICTED BY IDOCK:   -6.50 KCAL/MOL
REMARK 924 INTRA-LIGAND FREE ENERGY PREDICTED BY IDOCK:   -0.59 KCAL/MOL
REMARK 927      BINDING AFFINITY PREDICTED BY RF-SCORE:    0.00 PKD
ROOT
HETATM    1  C   UNL     1     -10.619  18.768  67.263  1.00  0.00    -0.442 C  
HETATM    2  N   UNL     1     -11.017  17.440  67.746  1.00  0.00    -0.247 N  
HETATM    3  H   UNL     1     -11.749  17.323  68.446  1.00  0.00     0.000 HD 
ENDROOT
BRANCH   2   4
HETATM    4  S   UNL     1     -10.203  16.109  67.084  1.00  0.00    -0.285 S  
HETATM    5  O   UNL     1      -9.851  16.514  65.741  1.00  0.00    -0.457 OA 
HETATM    6  O   UNL     1      -9.188  15.754  68.054  1.00  0.00    -0.187 OA 
BRANCH   4   7
HETATM    7  C   UNL     1     -11.511  14.869  67.030  1.00  0.00    -0.326 C  
BRANCH   7   8
HETATM    8  C   UNL     1     -11.296  13.899  65.896  1.00  0.00    -0.314 A  
HETATM    9  C   UNL     1     -10.284  12.921  65.960  1.00  0.00    -0.293 A  
HETATM   10  C   UNL     1     -10.134  11.975  64.924  1.00  0.00    -0.289 A  
HETATM   11  C   UNL     1     -11.041  12.012  63.867  1.00  0.00    -0.405 A  
HETATM   12  C   UNL     1     -12.063  12.962  63.773  1.00  0.00    -0.583 A  
HETATM   13  N   UNL     1     -10.714  10.981  63.021  1.00  0.00    -0.803 NA 
HETATM   14  C   UNL     1     -12.172  13.903  64.803  1.00  0.00    -0.441 A  
HETATM   15  H   UNL     1     -11.209  10.757  62.158  1.00  0.00     0.000 HD 
HETATM   16  C   UNL     1      -9.632  10.297  63.498  1.00  0.00    -0.266 A  
HETATM   17  C   UNL     1      -9.216  10.903  64.671  1.00  0.00    -0.223 A  
BRANCH  17  18
HETATM   18  C   UNL     1      -8.030  10.494  65.503  1.00  0.00    -0.145 C  
BRANCH  18  19
HETATM   19  C   UNL     1      -8.367   9.335  66.468  1.00  0.00    -0.126 C  
BRANCH  19  20
HETATM   20  N   UNL     1      -9.764   9.288  66.953  1.00  0.00    -0.175 NA 
HETATM   21  C   UNL     1      -9.824   9.850  68.309  1.00  0.00    -0.147 C  
HETATM   22  C   UNL     1     -10.302   7.927  66.968  1.00  0.00    -0.341 C  
ENDBRANCH  19  20
ENDBRANCH  18  19
ENDBRANCH  17  18
ENDBRANCH   7   8
ENDBRANCH   4   7
ENDBRANCH   2   4
TORSDOF 6
ENDMDL
MODEL       53
REMARK 921   NORMALIZED FREE ENERGY PREDICTED BY IDOCK:   -5.19 KCAL/MOL
REMARK 922        TOTAL FREE ENERGY PREDICTED BY IDOCK:   -7.04 KCAL/MOL
REMARK 923 INTER-LIGAND FREE ENERGY PREDICTED BY IDOCK:   -6.72 KCAL/MOL
REMARK 924 INTRA-LIGAND FREE ENERGY PREDICTED BY IDOCK:   -0.33 KCAL/MOL
REMARK 927      BINDING AFFINITY PREDICTED BY RF-SCORE:    0.00 PKD
ROOT
HETATM    1  C   UNL     1     -10.043  19.749  68.472  1.00  0.00    -0.445 C  
HETATM    2  N   UNL     1     -10.398  19.012  67.253  1.00  0.00    -0.397 N  
HETATM    3  H   UNL     1     -11.351  19.005  66.891  1.00  0.00     0.000 HD 
ENDROOT
BRANCH   2   4
HETATM    4  S   UNL     1      -9.148  18.171  66.475  1.00  0.00    -0.251 S  
HETATM    5  O   UNL     1      -9.811  17.135  65.715  1.00  0.00    -0.530 OA 
HETATM    6  O   UNL     1      -8.345  19.186  65.826  1.00  0.00    -0.431 OA 
BRANCH   4   7
HETATM    7  C   UNL     1      -8.272  17.443  67.872  1.00  0.00    -0.225 C  
BRANCH   7   8
HETATM    8  C   UNL     1      -8.731  16.030  68.128  1.00  0.00    -0.173 A  
HETATM    9  C   UNL     1      -9.954  15.771  68.779  1.00  0.00    -0.214 A  
HETATM   10  C   UNL     1     -10.407  14.447  68.954  1.00  0.00    -0.233 A  
HETATM   11  C   UNL     1      -9.633  13.415  68.428  1.00  0.00    -0.188 A  
HETATM   12  C   UNL     1      -8.419  13.633  67.769  1.00  0.00    -0.183 A  
HETATM   13  N   UNL     1     -10.296  12.242  68.690  1.00  0.00    -0.313 NA 
HETATM   14  C   UNL     1      -7.982  14.955  67.632  1.00  0.00    -0.184 A  
HETATM   15  H   UNL     1      -9.970  11.315  68.417  1.00  0.00     0.000 HD 
HETATM   16  C   UNL     1     -11.457  12.491  69.368  1.00  0.00    -0.263 A  
HETATM   17  C   UNL     1     -11.552  13.854  69.582  1.00  0.00    -0.347 A  
BRANCH  17  18
HETATM   18  C   UNL     1     -12.655  14.556  70.330  1.00  0.00    -0.378 C  
BRANCH  18  19
HETATM   19  C   UNL     1     -12.108  15.562  71.366  1.00  0.00    -0.393 C  
BRANCH  19  20
HETATM   20  N   UNL     1     -13.021  15.901  72.479  1.00  0.00    -0.458 NA 
HETATM   21  C   UNL     1     -12.428  15.452  73.745  1.00  0.00    -0.620 C  
HETATM   22  C   UNL     1     -14.343  15.294  72.320  1.00  0.00    -0.494 C  
ENDBRANCH  19  20
ENDBRANCH  18  19
ENDBRANCH  17  18
ENDBRANCH   7   8
ENDBRANCH   4   7
ENDBRANCH   2   4
TORSDOF 6
ENDMDL
MODEL       54
REMARK 921   NORMALIZED FREE ENERGY PREDICTED BY IDOCK:   -5.16 KCAL/MOL
REMARK 922        TOTAL FREE ENERGY PREDICTED BY IDOCK:   -7.01 KCAL/MOL
REMARK 923 INTER-LIGAND FREE ENERGY PREDICTED BY IDOCK:   -6.52 KCAL/MOL
REMARK 924 INTRA-LIGAND FREE ENERGY PREDICTED BY IDOCK:   -0.49 KCAL/MOL
REMARK 927      BINDING AFFINITY PREDICTED BY RF-SCORE:    0.00 PKD
ROOT
HETATM    1  C   UNL     1     -12.238  15.340  64.270  1.00  0.00    -0.189 C  
HETATM    2  N   UNL     1     -12.484  14.172  63.415  1.00  0.00    -1.116 N  
HETATM    3  H   UNL     1     -12.800  14.272  62.451  1.00  0.00     0.000 HD 
ENDROOT
BRANCH   2   4
HETATM    4  S   UNL     1     -12.218  12.647  64.107  1.00  0.00    -0.466 S  
HETATM    5  O   UNL     1     -13.034  12.630  65.301  1.00  0.00    -0.657 OA 
HETATM    6  O   UNL     1     -12.426  11.695  63.037  1.00  0.00    -0.341 OA 
BRANCH   4   7
HETATM    7  C   UNL     1     -10.474  12.749  64.555  1.00  0.00    -0.368 C  
BRANCH   7   8
HETATM    8  C   UNL     1      -9.875  11.376  64.732  1.00  0.00    -0.302 A  
HETATM    9  C   UNL     1     -10.140  10.612  65.887  1.00  0.00    -0.321 A  
HETATM   10  C   UNL     1      -9.630   9.304  66.012  1.00  0.00    -0.338 A  
HETATM   11  C   UNL     1      -8.899   8.780  64.948  1.00  0.00    -0.074 A  
HETATM   12  C   UNL     1      -8.624   9.504  63.783  1.00  0.00    -0.222 A  
HETATM   13  N   UNL     1      -8.551   7.497  65.292  1.00  0.00    -0.327 NA 
HETATM   14  C   UNL     1      -9.121  10.809  63.697  1.00  0.00    -0.224 A  
HETATM   15  H   UNL     1      -8.014   6.862  64.702  1.00  0.00     0.000 HD 
HETATM   16  C   UNL     1      -9.028   7.190  66.536  1.00  0.00    -0.151 A  
HETATM   17  C   UNL     1      -9.681   8.302  67.037  1.00  0.00    -0.274 A  
BRANCH  17  18
HETATM   18  C   UNL     1     -10.320   8.412  68.397  1.00  0.00    -0.239 C  
BRANCH  18  19
HETATM   19  C   UNL     1      -9.452   7.768  69.501  1.00  0.00    -0.160 C  
BRANCH  19  20
HETATM   20  N   UNL     1     -10.112   6.719  70.309  1.00  0.00    -0.178 NA 
HETATM   21  C   UNL     1      -9.312   5.489  70.251  1.00  0.00    -0.154 C  
HETATM   22  C   UNL     1     -11.472   6.434  69.849  1.00  0.00    -0.415 C  
ENDBRANCH  19  20
ENDBRANCH  18  19
ENDBRANCH  17  18
ENDBRANCH   7   8
ENDBRANCH   4   7
ENDBRANCH   2   4
TORSDOF 6
ENDMDL
MODEL       55
REMARK 921   NORMALIZED FREE ENERGY PREDICTED BY IDOCK:   -5.16 KCAL/MOL
REMARK 922        TOTAL FREE ENERGY PREDICTED BY IDOCK:   -7.00 KCAL/MOL
REMARK 923 INTER-LIGAND FREE ENERGY PREDICTED BY IDOCK:   -6.70 KCAL/MOL
REMARK 924 INTRA-LIGAND FREE ENERGY PREDICTED BY IDOCK:   -0.30 KCAL/MOL
REMARK 927      BINDING AFFINITY PREDICTED BY RF-SCORE:    0.00 PKD
ROOT
HETATM    1  C   UNL     1     -11.493  15.214  67.874  1.00  0.00    -0.332 C  
HETATM    2  N   UNL     1     -12.166  13.927  67.657  1.00  0.00    -0.485 N  
HETATM    3  H   UNL     1     -13.033  13.861  67.124  1.00  0.00     0.000 HD 
ENDROOT
BRANCH   2   4
HETATM    4  S   UNL     1     -11.434  12.556  68.334  1.00  0.00    -0.336 S  
HETATM    5  O   UNL     1     -12.075  11.432  67.688  1.00  0.00    -0.630 OA 
HETATM    6  O   UNL     1     -10.009  12.781  68.217  1.00  0.00    -0.223 OA 
BRANCH   4   7
HETATM    7  C   UNL     1     -11.971  12.666  70.052  1.00  0.00    -0.306 C  
BRANCH   7   8
HETATM    8  C   UNL     1     -12.148  11.296  70.657  1.00  0.00    -0.480 A  
HETATM    9  C   UNL     1     -11.216  10.268  70.411  1.00  0.00    -0.407 A  
HETATM   10  C   UNL     1     -11.355   9.011  71.034  1.00  0.00    -0.362 A  
HETATM   11  C   UNL     1     -12.409   8.835  71.928  1.00  0.00    -0.363 A  
HETATM   12  C   UNL     1     -13.348   9.834  72.204  1.00  0.00    -0.527 A  
HETATM   13  N   UNL     1     -12.306   7.559  72.426  1.00  0.00    -0.519 NA 
HETATM   14  C   UNL     1     -13.200  11.063  71.552  1.00  0.00    -0.400 A  
HETATM   15  H   UNL     1     -12.942   7.148  73.109  1.00  0.00     0.000 HD 
HETATM   16  C   UNL     1     -11.231   6.918  71.876  1.00  0.00    -0.254 A  
HETATM   17  C   UNL     1     -10.625   7.777  70.977  1.00  0.00    -0.226 A  
BRANCH  17  18
HETATM   18  C   UNL     1      -9.429   7.457  70.119  1.00  0.00    -0.165 C  
BRANCH  18  19
HETATM   19  C   UNL     1      -9.728   6.336  69.099  1.00  0.00    -0.135 C  
BRANCH  19  20
HETATM   20  N   UNL     1      -9.472   6.670  67.681  1.00  0.00    -0.125 NA 
HETATM   21  C   UNL     1      -8.082   7.124  67.535  1.00  0.00    -0.113 C  
HETATM   22  C   UNL     1     -10.375   7.707  67.180  1.00  0.00    -0.315 C  
ENDBRANCH  19  20
ENDBRANCH  18  19
ENDBRANCH  17  18
ENDBRANCH   7   8
ENDBRANCH   4   7
ENDBRANCH   2   4
TORSDOF 6
ENDMDL
MODEL       56
REMARK 921   NORMALIZED FREE ENERGY PREDICTED BY IDOCK:   -5.14 KCAL/MOL
REMARK 922        TOTAL FREE ENERGY PREDICTED BY IDOCK:   -6.97 KCAL/MOL
REMARK 923 INTER-LIGAND FREE ENERGY PREDICTED BY IDOCK:   -6.51 KCAL/MOL
REMARK 924 INTRA-LIGAND FREE ENERGY PREDICTED BY IDOCK:   -0.47 KCAL/MOL
REMARK 927      BINDING AFFINITY PREDICTED BY RF-SCORE:    0.00 PKD
ROOT
HETATM    1  C   UNL     1     -12.098  15.520  64.214  1.00  0.00    -0.116 C  
HETATM    2  N   UNL     1     -12.298  14.248  63.508  1.00  0.00    -1.122 N  
HETATM    3  H   UNL     1     -12.580  14.219  62.528  1.00  0.00     0.000 HD 
ENDROOT
BRANCH   2   4
HETATM    4  S   UNL     1     -12.038  12.829  64.398  1.00  0.00    -0.443 S  
HETATM    5  O   UNL     1     -13.309  12.542  65.025  1.00  0.00    -0.591 OA 
HETATM    6  O   UNL     1     -11.427  11.898  63.473  1.00  0.00    -0.424 OA 
BRANCH   4   7
HETATM    7  C   UNL     1     -10.853  13.386  65.637  1.00  0.00    -0.283 C  
BRANCH   7   8
HETATM    8  C   UNL     1     -11.170  12.808  66.993  1.00  0.00    -0.336 A  
HETATM    9  C   UNL     1     -10.761  11.505  67.341  1.00  0.00    -0.275 A  
HETATM   10  C   UNL     1     -11.004  10.999  68.635  1.00  0.00    -0.271 A  
HETATM   11  C   UNL     1     -11.615  11.839  69.563  1.00  0.00    -0.332 A  
HETATM   12  C   UNL     1     -12.026  13.141  69.258  1.00  0.00    -0.344 A  
HETATM   13  N   UNL     1     -11.703  11.139  70.741  1.00  0.00    -0.385 NA 
HETATM   14  C   UNL     1     -11.796  13.607  67.959  1.00  0.00    -0.397 A  
HETATM   15  H   UNL     1     -12.104  11.503  71.605  1.00  0.00     0.000 HD 
HETATM   16  C   UNL     1     -11.178   9.886  70.593  1.00  0.00    -0.344 A  
HETATM   17  C   UNL     1     -10.757   9.744  69.282  1.00  0.00    -0.246 A  
BRANCH  17  18
HETATM   18  C   UNL     1     -10.154   8.502  68.679  1.00  0.00    -0.207 C  
BRANCH  18  19
HETATM   19  C   UNL     1      -8.617   8.469  68.829  1.00  0.00    -0.131 C  
BRANCH  19  20
HETATM   20  N   UNL     1      -8.101   8.620  70.207  1.00  0.00    -0.102 NA 
HETATM   21  C   UNL     1      -6.695   9.042  70.153  1.00  0.00    -0.047 C  
HETATM   22  C   UNL     1      -8.206   7.381  70.979  1.00  0.00    -0.110 C  
ENDBRANCH  19  20
ENDBRANCH  18  19
ENDBRANCH  17  18
ENDBRANCH   7   8
ENDBRANCH   4   7
ENDBRANCH   2   4
TORSDOF 6
ENDMDL
MODEL       57
REMARK 921   NORMALIZED FREE ENERGY PREDICTED BY IDOCK:   -5.12 KCAL/MOL
REMARK 922        TOTAL FREE ENERGY PREDICTED BY IDOCK:   -6.95 KCAL/MOL
REMARK 923 INTER-LIGAND FREE ENERGY PREDICTED BY IDOCK:   -6.88 KCAL/MOL
REMARK 924 INTRA-LIGAND FREE ENERGY PREDICTED BY IDOCK:   -0.07 KCAL/MOL
REMARK 927      BINDING AFFINITY PREDICTED BY RF-SCORE:    0.00 PKD
ROOT
HETATM    1  C   UNL     1     -12.766  12.886  71.091  1.00  0.00    -0.276 C  
HETATM    2  N   UNL     1     -11.691  13.255  70.161  1.00  0.00    -0.516 N  
HETATM    3  H   UNL     1     -11.096  14.066  70.327  1.00  0.00     0.000 HD 
ENDROOT
BRANCH   2   4
HETATM    4  S   UNL     1     -11.485  12.268  68.798  1.00  0.00    -0.335 S  
HETATM    5  O   UNL     1     -10.075  11.947  68.779  1.00  0.00    -0.198 OA 
HETATM    6  O   UNL     1     -12.492  11.235  68.912  1.00  0.00    -0.433 OA 
BRANCH   4   7
HETATM    7  C   UNL     1     -11.874  13.409  67.458  1.00  0.00    -0.366 C  
BRANCH   7   8
HETATM    8  C   UNL     1     -11.516  12.819  66.117  1.00  0.00    -0.399 A  
HETATM    9  C   UNL     1     -10.386  11.991  65.967  1.00  0.00    -0.271 A  
HETATM   10  C   UNL     1     -10.098  11.390  64.724  1.00  0.00    -0.326 A  
HETATM   11  C   UNL     1     -10.985  11.604  63.671  1.00  0.00    -0.431 A  
HETATM   12  C   UNL     1     -12.122  12.411  63.785  1.00  0.00    -0.618 A  
HETATM   13  N   UNL     1     -10.513  10.890  62.597  1.00  0.00    -0.723 NA 
HETATM   14  C   UNL     1     -12.368  13.015  65.023  1.00  0.00    -0.526 A  
HETATM   15  H   UNL     1     -10.962  10.852  61.682  1.00  0.00     0.000 HD 
HETATM   16  C   UNL     1      -9.358  10.239  62.927  1.00  0.00    -0.311 A  
HETATM   17  C   UNL     1      -9.043  10.548  64.238  1.00  0.00    -0.256 A  
BRANCH  17  18
HETATM   18  C   UNL     1      -7.826  10.075  64.989  1.00  0.00    -0.137 C  
BRANCH  18  19
HETATM   19  C   UNL     1      -8.199   9.250  66.241  1.00  0.00    -0.107 C  
BRANCH  19  20
HETATM   20  N   UNL     1      -9.351   8.334  66.088  1.00  0.00    -0.204 NA 
HETATM   21  C   UNL     1     -10.299   8.563  67.186  1.00  0.00    -0.307 C  
HETATM   22  C   UNL     1      -8.947   6.927  66.082  1.00  0.00    -0.134 C  
ENDBRANCH  19  20
ENDBRANCH  18  19
ENDBRANCH  17  18
ENDBRANCH   7   8
ENDBRANCH   4   7
ENDBRANCH   2   4
TORSDOF 6
ENDMDL
MODEL       58
REMARK 921   NORMALIZED FREE ENERGY PREDICTED BY IDOCK:   -5.12 KCAL/MOL
REMARK 922        TOTAL FREE ENERGY PREDICTED BY IDOCK:   -6.95 KCAL/MOL
REMARK 923 INTER-LIGAND FREE ENERGY PREDICTED BY IDOCK:   -6.55 KCAL/MOL
REMARK 924 INTRA-LIGAND FREE ENERGY PREDICTED BY IDOCK:   -0.40 KCAL/MOL
REMARK 927      BINDING AFFINITY PREDICTED BY RF-SCORE:    0.00 PKD
ROOT
HETATM    1  C   UNL     1     -11.897  13.046  63.705  1.00  0.00    -0.516 C  
HETATM    2  N   UNL     1     -10.648  13.575  64.268  1.00  0.00    -0.549 N  
HETATM    3  H   UNL     1      -9.870  13.855  63.671  1.00  0.00     0.000 HD 
ENDROOT
BRANCH   2   4
HETATM    4  S   UNL     1     -10.561  13.699  65.956  1.00  0.00    -0.295 S  
HETATM    5  O   UNL     1      -9.234  13.236  66.297  1.00  0.00    -0.179 OA 
HETATM    6  O   UNL     1     -10.993  15.045  66.268  1.00  0.00    -0.332 OA 
BRANCH   4   7
HETATM    7  C   UNL     1     -11.789  12.486  66.476  1.00  0.00    -0.367 C  
BRANCH   7   8
HETATM    8  C   UNL     1     -11.132  11.211  66.944  1.00  0.00    -0.313 A  
HETATM    9  C   UNL     1     -11.193  10.818  68.296  1.00  0.00    -0.358 A  
HETATM   10  C   UNL     1     -10.634   9.592  68.711  1.00  0.00    -0.240 A  
HETATM   11  C   UNL     1     -10.064   8.770  67.742  1.00  0.00    -0.207 A  
HETATM   12  C   UNL     1      -9.993   9.122  66.390  1.00  0.00    -0.358 A  
HETATM   13  N   UNL     1      -9.632   7.634  68.381  1.00  0.00    -0.150 NA 
HETATM   14  C   UNL     1     -10.533  10.355  66.011  1.00  0.00    -0.211 A  
HETATM   15  H   UNL     1      -9.175   6.846  67.923  1.00  0.00     0.000 HD 
HETATM   16  C   UNL     1      -9.900   7.708  69.719  1.00  0.00    -0.181 A  
HETATM   17  C   UNL     1     -10.498   8.929  69.976  1.00  0.00    -0.227 A  
BRANCH  17  18
HETATM   18  C   UNL     1     -10.920   9.439  71.329  1.00  0.00    -0.440 C  
BRANCH  18  19
HETATM   19  C   UNL     1     -11.923   8.489  72.022  1.00  0.00    -0.361 C  
BRANCH  19  20
HETATM   20  N   UNL     1     -13.255   9.061  72.313  1.00  0.00    -0.432 NA 
HETATM   21  C   UNL     1     -14.290   8.197  71.730  1.00  0.00    -0.484 C  
HETATM   22  C   UNL     1     -13.406  10.419  71.789  1.00  0.00    -0.354 C  
ENDBRANCH  19  20
ENDBRANCH  18  19
ENDBRANCH  17  18
ENDBRANCH   7   8
ENDBRANCH   4   7
ENDBRANCH   2   4
TORSDOF 6
ENDMDL
MODEL       59
REMARK 921   NORMALIZED FREE ENERGY PREDICTED BY IDOCK:   -5.11 KCAL/MOL
REMARK 922        TOTAL FREE ENERGY PREDICTED BY IDOCK:   -6.94 KCAL/MOL
REMARK 923 INTER-LIGAND FREE ENERGY PREDICTED BY IDOCK:   -6.51 KCAL/MOL
REMARK 924 INTRA-LIGAND FREE ENERGY PREDICTED BY IDOCK:   -0.43 KCAL/MOL
REMARK 927      BINDING AFFINITY PREDICTED BY RF-SCORE:    0.00 PKD
ROOT
HETATM    1  C   UNL     1     -11.511  15.901  64.401  1.00  0.00    -0.264 C  
HETATM    2  N   UNL     1     -12.300  14.873  63.710  1.00  0.00    -1.071 N  
HETATM    3  H   UNL     1     -12.977  15.115  62.987  1.00  0.00     0.000 HD 
ENDROOT
BRANCH   2   4
HETATM    4  S   UNL     1     -12.031  13.264  64.170  1.00  0.00    -0.462 S  
HETATM    5  O   UNL     1     -12.923  12.484  63.341  1.00  0.00    -0.685 OA 
HETATM    6  O   UNL     1     -10.596  13.080  64.115  1.00  0.00    -0.402 OA 
BRANCH   4   7
HETATM    7  C   UNL     1     -12.621  13.268  65.874  1.00  0.00    -0.281 C  
BRANCH   7   8
HETATM    8  C   UNL     1     -11.547  12.802  66.824  1.00  0.00    -0.431 A  
HETATM    9  C   UNL     1     -11.266  11.430  66.986  1.00  0.00    -0.350 A  
HETATM   10  C   UNL     1     -10.214  11.008  67.826  1.00  0.00    -0.210 A  
HETATM   11  C   UNL     1      -9.442  11.986  68.451  1.00  0.00    -0.181 A  
HETATM   12  C   UNL     1      -9.685  13.355  68.308  1.00  0.00    -0.226 A  
HETATM   13  N   UNL     1      -8.473  11.332  69.172  1.00  0.00    -0.378 NA 
HETATM   14  C   UNL     1     -10.750  13.744  67.488  1.00  0.00    -0.262 A  
HETATM   15  H   UNL     1      -7.755  11.791  69.732  1.00  0.00     0.000 HD 
HETATM   16  C   UNL     1      -8.606   9.979  69.033  1.00  0.00    -0.153 A  
HETATM   17  C   UNL     1      -9.702   9.730  68.225  1.00  0.00    -0.160 A  
BRANCH  17  18
HETATM   18  C   UNL     1     -10.231   8.371  67.848  1.00  0.00    -0.273 C  
BRANCH  18  19
HETATM   19  C   UNL     1      -9.306   7.232  68.333  1.00  0.00    -0.143 C  
BRANCH  19  20
HETATM   20  N   UNL     1      -9.702   6.576  69.599  1.00  0.00    -0.156 NA 
HETATM   21  C   UNL     1      -8.531   5.912  70.186  1.00  0.00    -0.126 C  
HETATM   22  C   UNL     1     -10.771   5.595  69.407  1.00  0.00    -0.295 C  
ENDBRANCH  19  20
ENDBRANCH  18  19
ENDBRANCH  17  18
ENDBRANCH   7   8
ENDBRANCH   4   7
ENDBRANCH   2   4
TORSDOF 6
ENDMDL
MODEL       60
REMARK 921   NORMALIZED FREE ENERGY PREDICTED BY IDOCK:   -5.09 KCAL/MOL
REMARK 922        TOTAL FREE ENERGY PREDICTED BY IDOCK:   -6.90 KCAL/MOL
REMARK 923 INTER-LIGAND FREE ENERGY PREDICTED BY IDOCK:   -6.46 KCAL/MOL
REMARK 924 INTRA-LIGAND FREE ENERGY PREDICTED BY IDOCK:   -0.44 KCAL/MOL
REMARK 927      BINDING AFFINITY PREDICTED BY RF-SCORE:    0.00 PKD
ROOT
HETATM    1  C   UNL     1     -10.610   8.190  67.807  1.00  0.00    -0.165 C  
HETATM    2  N   UNL     1     -10.940   8.249  69.237  1.00  0.00    -0.428 N  
HETATM    3  H   UNL     1     -11.290   7.433  69.739  1.00  0.00     0.000 HD 
ENDROOT
BRANCH   2   4
HETATM    4  S   UNL     1     -10.711   9.738  70.015  1.00  0.00    -0.304 S  
HETATM    5  O   UNL     1     -10.981   9.475  71.412  1.00  0.00    -0.351 OA 
HETATM    6  O   UNL     1      -9.417  10.211  69.573  1.00  0.00    -0.211 OA 
BRANCH   4   7
HETATM    7  C   UNL     1     -12.041  10.728  69.307  1.00  0.00    -0.207 C  
BRANCH   7   8
HETATM    8  C   UNL     1     -11.886  12.185  69.665  1.00  0.00    -0.391 A  
HETATM    9  C   UNL     1     -11.303  13.095  68.762  1.00  0.00    -0.333 A  
HETATM   10  C   UNL     1     -11.223  14.468  69.078  1.00  0.00    -0.289 A  
HETATM   11  C   UNL     1     -11.776  14.895  70.283  1.00  0.00    -0.303 A  
HETATM   12  C   UNL     1     -12.371  14.023  71.201  1.00  0.00    -0.443 A  
HETATM   13  N   UNL     1     -11.610  16.257  70.341  1.00  0.00    -0.465 NA 
HETATM   14  C   UNL     1     -12.413  12.664  70.871  1.00  0.00    -0.368 A  
HETATM   15  H   UNL     1     -11.922  16.849  71.110  1.00  0.00     0.000 HD 
HETATM   16  C   UNL     1     -10.967  16.707  69.222  1.00  0.00    -0.261 A  
HETATM   17  C   UNL     1     -10.678  15.618  68.419  1.00  0.00    -0.271 A  
BRANCH  17  18
HETATM   18  C   UNL     1      -9.937  15.660  67.108  1.00  0.00    -0.240 C  
BRANCH  18  19
HETATM   19  C   UNL     1     -10.377  16.852  66.229  1.00  0.00    -0.308 C  
BRANCH  19  20
HETATM   20  N   UNL     1      -9.338  17.868  65.954  1.00  0.00    -0.514 NA 
HETATM   21  C   UNL     1      -8.178  17.618  66.820  1.00  0.00    -0.243 C  
HETATM   22  C   UNL     1      -9.820  19.232  66.173  1.00  0.00    -0.367 C  
ENDBRANCH  19  20
ENDBRANCH  18  19
ENDBRANCH  17  18
ENDBRANCH   7   8
ENDBRANCH   4   7
ENDBRANCH   2   4
TORSDOF 6
ENDMDL
MODEL       61
REMARK 921   NORMALIZED FREE ENERGY PREDICTED BY IDOCK:   -5.08 KCAL/MOL
REMARK 922        TOTAL FREE ENERGY PREDICTED BY IDOCK:   -6.89 KCAL/MOL
REMARK 923 INTER-LIGAND FREE ENERGY PREDICTED BY IDOCK:   -6.91 KCAL/MOL
REMARK 924 INTRA-LIGAND FREE ENERGY PREDICTED BY IDOCK:    0.02 KCAL/MOL
REMARK 927      BINDING AFFINITY PREDICTED BY RF-SCORE:    0.00 PKD
ROOT
HETATM    1  C   UNL     1     -12.102  15.032  64.182  1.00  0.00    -0.223 C  
HETATM    2  N   UNL     1     -12.249  13.912  63.244  1.00  0.00    -1.111 N  
HETATM    3  H   UNL     1     -12.206  14.051  62.235  1.00  0.00     0.000 HD 
ENDROOT
BRANCH   2   4
HETATM    4  S   UNL     1     -12.493  12.375  63.918  1.00  0.00    -0.447 S  
HETATM    5  O   UNL     1     -13.236  12.614  65.135  1.00  0.00    -0.646 OA 
HETATM    6  O   UNL     1     -13.038  11.566  62.848  1.00  0.00    -0.193 OA 
BRANCH   4   7
HETATM    7  C   UNL     1     -10.806  11.878  64.314  1.00  0.00    -0.344 C  
BRANCH   7   8
HETATM    8  C   UNL     1     -10.743  11.178  65.648  1.00  0.00    -0.250 A  
HETATM    9  C   UNL     1     -11.240  11.793  66.815  1.00  0.00    -0.388 A  
HETATM   10  C   UNL     1     -11.237  11.104  68.045  1.00  0.00    -0.359 A  
HETATM   11  C   UNL     1     -10.772   9.791  68.059  1.00  0.00    -0.247 A  
HETATM   12  C   UNL     1     -10.279   9.144  66.921  1.00  0.00    -0.336 A  
HETATM   13  N   UNL     1     -10.906   9.331  69.347  1.00  0.00    -0.332 NA 
HETATM   14  C   UNL     1     -10.271   9.861  65.720  1.00  0.00    -0.251 A  
HETATM   15  H   UNL     1     -10.650   8.395  69.660  1.00  0.00     0.000 HD 
HETATM   16  C   UNL     1     -11.432  10.304  70.149  1.00  0.00    -0.309 A  
HETATM   17  C   UNL     1     -11.625  11.441  69.384  1.00  0.00    -0.391 A  
BRANCH  17  18
HETATM   18  C   UNL     1     -12.149  12.762  69.882  1.00  0.00    -0.329 C  
BRANCH  18  19
HETATM   19  C   UNL     1     -11.047  13.844  69.928  1.00  0.00     0.063 C  
BRANCH  19  20
HETATM   20  N   UNL     1     -11.479  15.218  69.592  1.00  0.00    -0.282 NA 
HETATM   21  C   UNL     1     -12.660  15.563  70.394  1.00  0.00    -0.378 C  
HETATM   22  C   UNL     1     -11.797  15.370  68.172  1.00  0.00    -0.160 C  
ENDBRANCH  19  20
ENDBRANCH  18  19
ENDBRANCH  17  18
ENDBRANCH   7   8
ENDBRANCH   4   7
ENDBRANCH   2   4
TORSDOF 6
ENDMDL
MODEL       62
REMARK 921   NORMALIZED FREE ENERGY PREDICTED BY IDOCK:   -5.06 KCAL/MOL
REMARK 922        TOTAL FREE ENERGY PREDICTED BY IDOCK:   -6.87 KCAL/MOL
REMARK 923 INTER-LIGAND FREE ENERGY PREDICTED BY IDOCK:   -6.39 KCAL/MOL
REMARK 924 INTRA-LIGAND FREE ENERGY PREDICTED BY IDOCK:   -0.47 KCAL/MOL
REMARK 927      BINDING AFFINITY PREDICTED BY RF-SCORE:    0.00 PKD
ROOT
HETATM    1  C   UNL     1     -10.310   9.773  66.885  1.00  0.00    -0.234 C  
HETATM    2  N   UNL     1     -11.278   9.603  67.977  1.00  0.00    -0.513 N  
HETATM    3  H   UNL     1     -12.127   9.051  67.857  1.00  0.00     0.000 HD 
ENDROOT
BRANCH   2   4
HETATM    4  S   UNL     1     -10.917  10.367  69.446  1.00  0.00    -0.268 S  
HETATM    5  O   UNL     1     -11.117   9.350  70.455  1.00  0.00    -0.240 OA 
HETATM    6  O   UNL     1      -9.625  10.991  69.251  1.00  0.00    -0.124 OA 
BRANCH   4   7
HETATM    7  C   UNL     1     -12.226  11.601  69.548  1.00  0.00    -0.193 C  
BRANCH   7   8
HETATM    8  C   UNL     1     -11.748  12.946  69.060  1.00  0.00    -0.375 A  
HETATM    9  C   UNL     1     -11.689  13.238  67.683  1.00  0.00    -0.408 A  
HETATM   10  C   UNL     1     -11.304  14.520  67.238  1.00  0.00    -0.363 A  
HETATM   11  C   UNL     1     -11.031  15.492  68.199  1.00  0.00    -0.312 A  
HETATM   12  C   UNL     1     -11.088  15.242  69.573  1.00  0.00    -0.286 A  
HETATM   13  N   UNL     1     -10.723  16.648  67.524  1.00  0.00    -0.310 NA 
HETATM   14  C   UNL     1     -11.448  13.954  69.985  1.00  0.00    -0.208 A  
HETATM   15  H   UNL     1     -10.483  17.534  67.968  1.00  0.00     0.000 HD 
HETATM   16  C   UNL     1     -10.784  16.444  66.174  1.00  0.00    -0.173 A  
HETATM   17  C   UNL     1     -11.114  15.119  65.949  1.00  0.00    -0.319 A  
BRANCH  17  18
HETATM   18  C   UNL     1     -11.245  14.458  64.602  1.00  0.00    -0.366 C  
BRANCH  18  19
HETATM   19  C   UNL     1     -10.394  13.173  64.499  1.00  0.00    -0.368 C  
BRANCH  19  20
HETATM   20  N   UNL     1     -10.778  12.232  63.424  1.00  0.00    -0.438 NA 
HETATM   21  C   UNL     1     -12.221  11.971  63.502  1.00  0.00    -0.547 C  
HETATM   22  C   UNL     1     -10.052  10.964  63.507  1.00  0.00    -0.347 C  
ENDBRANCH  19  20
ENDBRANCH  18  19
ENDBRANCH  17  18
ENDBRANCH   7   8
ENDBRANCH   4   7
ENDBRANCH   2   4
TORSDOF 6
ENDMDL
MODEL       63
REMARK 921   NORMALIZED FREE ENERGY PREDICTED BY IDOCK:   -5.05 KCAL/MOL
REMARK 922        TOTAL FREE ENERGY PREDICTED BY IDOCK:   -6.86 KCAL/MOL
REMARK 923 INTER-LIGAND FREE ENERGY PREDICTED BY IDOCK:   -6.46 KCAL/MOL
REMARK 924 INTRA-LIGAND FREE ENERGY PREDICTED BY IDOCK:   -0.40 KCAL/MOL
REMARK 927      BINDING AFFINITY PREDICTED BY RF-SCORE:    0.00 PKD
ROOT
HETATM    1  C   UNL     1      -9.675   9.122  66.556  1.00  0.00    -0.241 C  
HETATM    2  N   UNL     1     -10.000   9.569  65.196  1.00  0.00    -0.384 N  
HETATM    3  H   UNL     1     -10.388   8.931  64.501  1.00  0.00     0.000 HD 
ENDROOT
BRANCH   2   4
HETATM    4  S   UNL     1      -9.702  11.198  64.834  1.00  0.00    -0.265 S  
HETATM    5  O   UNL     1      -8.923  11.693  65.947  1.00  0.00    -0.192 OA 
HETATM    6  O   UNL     1      -9.178  11.205  63.484  1.00  0.00    -0.217 OA 
BRANCH   4   7
HETATM    7  C   UNL     1     -11.364  11.895  64.889  1.00  0.00    -0.277 C  
BRANCH   7   8
HETATM    8  C   UNL     1     -11.569  12.720  66.135  1.00  0.00    -0.431 A  
HETATM    9  C   UNL     1     -11.763  12.105  67.388  1.00  0.00    -0.374 A  
HETATM   10  C   UNL     1     -11.887  12.885  68.557  1.00  0.00    -0.350 A  
HETATM   11  C   UNL     1     -11.767  14.268  68.438  1.00  0.00    -0.338 A  
HETATM   12  C   UNL     1     -11.564  14.913  67.214  1.00  0.00    -0.337 A  
HETATM   13  N   UNL     1     -11.882  14.792  69.702  1.00  0.00    -0.301 NA 
HETATM   14  C   UNL     1     -11.471  14.116  66.067  1.00  0.00    -0.343 A  
HETATM   15  H   UNL     1     -11.829  15.785  69.928  1.00  0.00     0.000 HD 
HETATM   16  C   UNL     1     -12.078  13.794  70.616  1.00  0.00    -0.333 A  
HETATM   17  C   UNL     1     -12.119  12.587  69.940  1.00  0.00    -0.322 A  
BRANCH  17  18
HETATM   18  C   UNL     1     -12.358  11.236  70.561  1.00  0.00    -0.446 C  
BRANCH  18  19
HETATM   19  C   UNL     1     -11.151  10.289  70.377  1.00  0.00    -0.319 C  
BRANCH  19  20
HETATM   20  N   UNL     1     -11.218   9.010  71.116  1.00  0.00    -0.280 NA 
HETATM   21  C   UNL     1     -12.387   9.026  72.005  1.00  0.00    -0.384 C  
HETATM   22  C   UNL     1     -10.012   8.759  71.906  1.00  0.00    -0.331 C  
ENDBRANCH  19  20
ENDBRANCH  18  19
ENDBRANCH  17  18
ENDBRANCH   7   8
ENDBRANCH   4   7
ENDBRANCH   2   4
TORSDOF 6
ENDMDL
MODEL       64
REMARK 921   NORMALIZED FREE ENERGY PREDICTED BY IDOCK:   -5.05 KCAL/MOL
REMARK 922        TOTAL FREE ENERGY PREDICTED BY IDOCK:   -6.86 KCAL/MOL
REMARK 923 INTER-LIGAND FREE ENERGY PREDICTED BY IDOCK:   -6.66 KCAL/MOL
REMARK 924 INTRA-LIGAND FREE ENERGY PREDICTED BY IDOCK:   -0.20 KCAL/MOL
REMARK 927      BINDING AFFINITY PREDICTED BY RF-SCORE:    0.00 PKD
ROOT
HETATM    1  C   UNL     1     -11.284   9.721  70.189  1.00  0.00    -0.272 C  
HETATM    2  N   UNL     1     -11.315  10.010  68.749  1.00  0.00    -0.479 N  
HETATM    3  H   UNL     1     -11.571   9.297  68.066  1.00  0.00     0.000 HD 
ENDROOT
BRANCH   2   4
HETATM    4  S   UNL     1     -10.907  11.586  68.276  1.00  0.00    -0.233 S  
HETATM    5  O   UNL     1     -11.900  12.433  68.899  1.00  0.00    -0.305 OA 
HETATM    6  O   UNL     1      -9.499  11.728  68.577  1.00  0.00    -0.200 OA 
BRANCH   4   7
HETATM    7  C   UNL     1     -11.188  11.517  66.496  1.00  0.00    -0.259 C  
BRANCH   7   8
HETATM    8  C   UNL     1     -11.308  12.901  65.909  1.00  0.00    -0.348 A  
HETATM    9  C   UNL     1     -10.636  13.996  66.488  1.00  0.00    -0.279 A  
HETATM   10  C   UNL     1     -10.700  15.273  65.892  1.00  0.00    -0.340 A  
HETATM   11  C   UNL     1     -11.408  15.404  64.700  1.00  0.00    -0.355 A  
HETATM   12  C   UNL     1     -12.080  14.340  64.091  1.00  0.00    -0.423 A  
HETATM   13  N   UNL     1     -11.291  16.715  64.305  1.00  0.00    -1.364 NA 
HETATM   14  C   UNL     1     -12.019  13.090  64.717  1.00  0.00    -0.443 A  
HETATM   15  H   UNL     1     -11.704  17.107  63.460  1.00  0.00     0.000 HD 
HETATM   16  C   UNL     1     -10.543  17.419  65.206  1.00  0.00     0.072 A  
HETATM   17  C   UNL     1     -10.179  16.565  66.232  1.00  0.00    -0.343 A  
BRANCH  17  18
HETATM   18  C   UNL     1      -9.383  16.941  67.455  1.00  0.00    -0.235 C  
BRANCH  18  19
HETATM   19  C   UNL     1      -7.903  16.515  67.340  1.00  0.00    -0.157 C  
BRANCH  19  20
HETATM   20  N   UNL     1      -6.954  17.245  68.208  1.00  0.00    -0.180 NA 
HETATM   21  C   UNL     1      -6.700  16.453  69.419  1.00  0.00    -0.215 C  
HETATM   22  C   UNL     1      -7.450  18.568  68.589  1.00  0.00    -0.301 C  
ENDBRANCH  19  20
ENDBRANCH  18  19
ENDBRANCH  17  18
ENDBRANCH   7   8
ENDBRANCH   4   7
ENDBRANCH   2   4
TORSDOF 6
ENDMDL
MODEL       65
REMARK 921   NORMALIZED FREE ENERGY PREDICTED BY IDOCK:   -5.04 KCAL/MOL
REMARK 922        TOTAL FREE ENERGY PREDICTED BY IDOCK:   -6.83 KCAL/MOL
REMARK 923 INTER-LIGAND FREE ENERGY PREDICTED BY IDOCK:   -6.51 KCAL/MOL
REMARK 924 INTRA-LIGAND FREE ENERGY PREDICTED BY IDOCK:   -0.33 KCAL/MOL
REMARK 927      BINDING AFFINITY PREDICTED BY RF-SCORE:    0.00 PKD
ROOT
HETATM    1  C   UNL     1      -6.727  20.538  67.413  1.00  0.00    -0.285 C  
HETATM    2  N   UNL     1      -8.107  20.039  67.353  1.00  0.00    -0.312 N  
HETATM    3  H   UNL     1      -8.906  20.661  67.474  1.00  0.00     0.000 HD 
ENDROOT
BRANCH   2   4
HETATM    4  S   UNL     1      -8.309  18.379  67.075  1.00  0.00    -0.259 S  
HETATM    5  O   UNL     1      -7.768  18.152  65.753  1.00  0.00    -0.523 OA 
HETATM    6  O   UNL     1      -7.756  17.720  68.239  1.00  0.00    -0.246 OA 
BRANCH   4   7
HETATM    7  C   UNL     1     -10.106  18.231  67.037  1.00  0.00    -0.360 C  
BRANCH   7   8
HETATM    8  C   UNL     1     -10.531  16.891  66.491  1.00  0.00    -0.253 A  
HETATM    9  C   UNL     1     -10.728  15.788  67.347  1.00  0.00    -0.317 A  
HETATM   10  C   UNL     1     -11.190  14.558  66.836  1.00  0.00    -0.340 A  
HETATM   11  C   UNL     1     -11.486  14.483  65.476  1.00  0.00    -0.343 A  
HETATM   12  C   UNL     1     -11.313  15.558  64.598  1.00  0.00    -0.363 A  
HETATM   13  N   UNL     1     -11.950  13.213  65.235  1.00  0.00    -0.373 NA 
HETATM   14  C   UNL     1     -10.828  16.758  65.129  1.00  0.00    -0.150 A  
HETATM   15  H   UNL     1     -12.250  12.866  64.325  1.00  0.00     0.000 HD 
HETATM   16  C   UNL     1     -11.952  12.479  66.388  1.00  0.00    -0.318 A  
HETATM   17  C   UNL     1     -11.455  13.270  67.409  1.00  0.00    -0.371 A  
BRANCH  17  18
HETATM   18  C   UNL     1     -11.247  12.841  68.837  1.00  0.00    -0.332 C  
BRANCH  18  19
HETATM   19  C   UNL     1     -11.752  11.404  69.093  1.00  0.00    -0.342 C  
BRANCH  19  20
HETATM   20  N   UNL     1     -11.633  10.917  70.484  1.00  0.00    -0.328 NA 
HETATM   21  C   UNL     1     -11.357   9.475  70.469  1.00  0.00    -0.283 C  
HETATM   22  C   UNL     1     -12.841  11.171  71.270  1.00  0.00    -0.412 C  
ENDBRANCH  19  20
ENDBRANCH  18  19
ENDBRANCH  17  18
ENDBRANCH   7   8
ENDBRANCH   4   7
ENDBRANCH   2   4
TORSDOF 6
ENDMDL
MODEL       66
REMARK 921   NORMALIZED FREE ENERGY PREDICTED BY IDOCK:   -5.03 KCAL/MOL
REMARK 922        TOTAL FREE ENERGY PREDICTED BY IDOCK:   -6.83 KCAL/MOL
REMARK 923 INTER-LIGAND FREE ENERGY PREDICTED BY IDOCK:   -6.39 KCAL/MOL
REMARK 924 INTRA-LIGAND FREE ENERGY PREDICTED BY IDOCK:   -0.44 KCAL/MOL
REMARK 927      BINDING AFFINITY PREDICTED BY RF-SCORE:    0.00 PKD
ROOT
HETATM    1  C   UNL     1     -13.034  10.650  71.600  1.00  0.00    -0.477 C  
HETATM    2  N   UNL     1     -12.828   9.457  70.768  1.00  0.00    -0.523 N  
HETATM    3  H   UNL     1     -13.497   9.186  70.048  1.00  0.00     0.000 HD 
ENDROOT
BRANCH   2   4
HETATM    4  S   UNL     1     -11.426   8.552  71.062  1.00  0.00    -0.274 S  
HETATM    5  O   UNL     1     -11.351   8.433  72.501  1.00  0.00    -0.375 OA 
HETATM    6  O   UNL     1     -11.534   7.383  70.214  1.00  0.00    -0.261 OA 
BRANCH   4   7
HETATM    7  C   UNL     1     -10.139   9.667  70.469  1.00  0.00    -0.274 C  
BRANCH   7   8
HETATM    8  C   UNL     1     -10.243   9.878  68.980  1.00  0.00    -0.213 A  
HETATM    9  C   UNL     1     -10.846  11.036  68.451  1.00  0.00    -0.264 A  
HETATM   10  C   UNL     1     -10.878  11.255  67.058  1.00  0.00    -0.332 A  
HETATM   11  C   UNL     1     -10.260  10.319  66.233  1.00  0.00    -0.221 A  
HETATM   12  C   UNL     1      -9.644   9.162  66.721  1.00  0.00    -0.253 A  
HETATM   13  N   UNL     1     -10.391  10.771  64.943  1.00  0.00    -0.315 NA 
HETATM   14  C   UNL     1      -9.649   8.958  68.105  1.00  0.00    -0.161 A  
HETATM   15  H   UNL     1     -10.030  10.292  64.119  1.00  0.00     0.000 HD 
HETATM   16  C   UNL     1     -11.075  11.954  64.919  1.00  0.00    -0.307 A  
HETATM   17  C   UNL     1     -11.427  12.279  66.217  1.00  0.00    -0.435 A  
BRANCH  17  18
HETATM   18  C   UNL     1     -12.227  13.484  66.640  1.00  0.00    -0.411 C  
BRANCH  18  19
HETATM   19  C   UNL     1     -11.337  14.730  66.845  1.00  0.00    -0.355 C  
BRANCH  19  20
HETATM   20  N   UNL     1     -11.474  15.411  68.151  1.00  0.00    -0.346 NA 
HETATM   21  C   UNL     1     -10.852  16.739  68.071  1.00  0.00    -0.341 C  
HETATM   22  C   UNL     1     -10.860  14.653  69.242  1.00  0.00    -0.258 C  
ENDBRANCH  19  20
ENDBRANCH  18  19
ENDBRANCH  17  18
ENDBRANCH   7   8
ENDBRANCH   4   7
ENDBRANCH   2   4
TORSDOF 6
ENDMDL
MODEL       67
REMARK 921   NORMALIZED FREE ENERGY PREDICTED BY IDOCK:   -5.02 KCAL/MOL
REMARK 922        TOTAL FREE ENERGY PREDICTED BY IDOCK:   -6.81 KCAL/MOL
REMARK 923 INTER-LIGAND FREE ENERGY PREDICTED BY IDOCK:   -6.79 KCAL/MOL
REMARK 924 INTRA-LIGAND FREE ENERGY PREDICTED BY IDOCK:   -0.02 KCAL/MOL
REMARK 927      BINDING AFFINITY PREDICTED BY RF-SCORE:    0.00 PKD
ROOT
HETATM    1  C   UNL     1     -12.833  15.662  73.630  1.00  0.00    -0.574 C  
HETATM    2  N   UNL     1     -12.503  14.531  72.753  1.00  0.00    -0.276 N  
HETATM    3  H   UNL     1     -12.430  13.580  73.112  1.00  0.00     0.000 HD 
ENDROOT
BRANCH   2   4
HETATM    4  S   UNL     1     -12.248  14.883  71.114  1.00  0.00    -0.350 S  
HETATM    5  O   UNL     1     -13.418  15.629  70.705  1.00  0.00    -0.536 OA 
HETATM    6  O   UNL     1     -10.923  15.460  71.043  1.00  0.00    -0.342 OA 
BRANCH   4   7
HETATM    7  C   UNL     1     -12.281  13.238  70.378  1.00  0.00    -0.332 C  
BRANCH   7   8
HETATM    8  C   UNL     1     -11.806  13.271  68.947  1.00  0.00    -0.367 A  
HETATM    9  C   UNL     1     -11.588  14.494  68.283  1.00  0.00    -0.358 A  
HETATM   10  C   UNL     1     -11.080  14.515  66.967  1.00  0.00    -0.324 A  
HETATM   11  C   UNL     1     -10.762  13.298  66.368  1.00  0.00    -0.285 A  
HETATM   12  C   UNL     1     -10.955  12.065  66.999  1.00  0.00    -0.323 A  
HETATM   13  N   UNL     1     -10.256  13.583  65.123  1.00  0.00    -0.455 NA 
HETATM   14  C   UNL     1     -11.485  12.074  68.294  1.00  0.00    -0.361 A  
HETATM   15  H   UNL     1      -9.932  12.886  64.454  1.00  0.00     0.000 HD 
HETATM   16  C   UNL     1     -10.248  14.933  64.909  1.00  0.00    -0.251 A  
HETATM   17  C   UNL     1     -10.784  15.554  66.023  1.00  0.00    -0.331 A  
BRANCH  17  18
HETATM   18  C   UNL     1     -11.000  17.035  66.190  1.00  0.00     0.176 C  
BRANCH  18  19
HETATM   19  C   UNL     1     -10.061  17.643  67.256  1.00  0.00    -0.331 C  
BRANCH  19  20
HETATM   20  N   UNL     1     -10.188  19.101  67.470  1.00  0.00    -0.376 NA 
HETATM   21  C   UNL     1      -9.925  19.799  66.205  1.00  0.00    -0.473 C  
HETATM   22  C   UNL     1      -9.271  19.596  68.497  1.00  0.00    -0.316 C  
ENDBRANCH  19  20
ENDBRANCH  18  19
ENDBRANCH  17  18
ENDBRANCH   7   8
ENDBRANCH   4   7
ENDBRANCH   2   4
TORSDOF 6
ENDMDL
MODEL       68
REMARK 921   NORMALIZED FREE ENERGY PREDICTED BY IDOCK:   -4.99 KCAL/MOL
REMARK 922        TOTAL FREE ENERGY PREDICTED BY IDOCK:   -6.77 KCAL/MOL
REMARK 923 INTER-LIGAND FREE ENERGY PREDICTED BY IDOCK:   -6.58 KCAL/MOL
REMARK 924 INTRA-LIGAND FREE ENERGY PREDICTED BY IDOCK:   -0.18 KCAL/MOL
REMARK 927      BINDING AFFINITY PREDICTED BY RF-SCORE:    0.00 PKD
ROOT
HETATM    1  C   UNL     1     -11.609  14.152  69.445  1.00  0.00    -0.304 C  
HETATM    2  N   UNL     1     -10.253  14.148  68.882  1.00  0.00    -0.339 N  
HETATM    3  H   UNL     1      -9.831  13.297  68.511  1.00  0.00     0.000 HD 
ENDROOT
BRANCH   2   4
HETATM    4  S   UNL     1      -9.420  15.624  68.879  1.00  0.00    -0.245 S  
HETATM    5  O   UNL     1     -10.453  16.636  68.924  1.00  0.00    -0.279 OA 
HETATM    6  O   UNL     1      -8.429  15.513  69.928  1.00  0.00    -0.120 OA 
BRANCH   4   7
HETATM    7  C   UNL     1      -8.648  15.605  67.250  1.00  0.00    -0.192 C  
BRANCH   7   8
HETATM    8  C   UNL     1      -9.643  15.237  66.179  1.00  0.00    -0.353 A  
HETATM    9  C   UNL     1      -9.803  13.899  65.765  1.00  0.00    -0.262 A  
HETATM   10  C   UNL     1     -10.783  13.556  64.811  1.00  0.00    -0.412 A  
HETATM   11  C   UNL     1     -11.610  14.568  64.328  1.00  0.00    -0.238 A  
HETATM   12  C   UNL     1     -11.488  15.904  64.721  1.00  0.00    -0.235 A  
HETATM   13  N   UNL     1     -12.493  13.982  63.455  1.00  0.00    -1.123 NA 
HETATM   14  C   UNL     1     -10.490  16.220  65.650  1.00  0.00    -0.386 A  
HETATM   15  H   UNL     1     -13.226  14.479  62.948  1.00  0.00     0.000 HD 
HETATM   16  C   UNL     1     -12.253  12.640  63.361  1.00  0.00    -0.517 A  
HETATM   17  C   UNL     1     -11.171  12.334  64.168  1.00  0.00    -0.430 A  
BRANCH  17  18
HETATM   18  C   UNL     1     -10.545  10.974  64.327  1.00  0.00    -0.402 C  
BRANCH  18  19
HETATM   19  C   UNL     1      -9.321  10.785  63.404  1.00  0.00    -0.286 C  
BRANCH  19  20
HETATM   20  N   UNL     1      -8.419   9.665  63.751  1.00  0.00    -0.172 NA 
HETATM   21  C   UNL     1      -7.073  10.191  64.012  1.00  0.00    -0.103 C  
HETATM   22  C   UNL     1      -8.349   8.657  62.692  1.00  0.00    -0.187 C  
ENDBRANCH  19  20
ENDBRANCH  18  19
ENDBRANCH  17  18
ENDBRANCH   7   8
ENDBRANCH   4   7
ENDBRANCH   2   4
TORSDOF 6
ENDMDL
MODEL       69
REMARK 921   NORMALIZED FREE ENERGY PREDICTED BY IDOCK:   -4.97 KCAL/MOL
REMARK 922        TOTAL FREE ENERGY PREDICTED BY IDOCK:   -6.74 KCAL/MOL
REMARK 923 INTER-LIGAND FREE ENERGY PREDICTED BY IDOCK:   -6.82 KCAL/MOL
REMARK 924 INTRA-LIGAND FREE ENERGY PREDICTED BY IDOCK:    0.08 KCAL/MOL
REMARK 927      BINDING AFFINITY PREDICTED BY RF-SCORE:    0.00 PKD
ROOT
HETATM    1  C   UNL     1      -6.651  11.195  66.578  1.00  0.00    -0.124 C  
HETATM    2  N   UNL     1      -7.801  12.101  66.464  1.00  0.00    -0.385 N  
HETATM    3  H   UNL     1      -8.049  12.541  65.578  1.00  0.00     0.000 HD 
ENDROOT
BRANCH   2   4
HETATM    4  S   UNL     1      -8.697  12.383  67.876  1.00  0.00    -0.184 S  
HETATM    5  O   UNL     1      -8.822  11.087  68.505  1.00  0.00    -0.147 OA 
HETATM    6  O   UNL     1      -8.033  13.483  68.542  1.00  0.00    -0.142 OA 
BRANCH   4   7
HETATM    7  C   UNL     1     -10.288  12.896  67.202  1.00  0.00    -0.238 C  
BRANCH   7   8
HETATM    8  C   UNL     1     -11.052  13.741  68.190  1.00  0.00    -0.282 A  
HETATM    9  C   UNL     1     -11.669  13.161  69.317  1.00  0.00    -0.376 A  
HETATM   10  C   UNL     1     -12.324  13.968  70.271  1.00  0.00    -0.425 A  
HETATM   11  C   UNL     1     -12.303  15.348  70.086  1.00  0.00    -0.361 A  
HETATM   12  C   UNL     1     -11.694  15.961  68.986  1.00  0.00    -0.377 A  
HETATM   13  N   UNL     1     -12.963  15.907  71.153  1.00  0.00    -0.581 NA 
HETATM   14  C   UNL     1     -11.074  15.134  68.043  1.00  0.00    -0.310 A  
HETATM   15  H   UNL     1     -13.103  16.907  71.292  1.00  0.00     0.000 HD 
HETATM   16  C   UNL     1     -13.407  14.932  72.002  1.00  0.00    -0.367 A  
HETATM   17  C   UNL     1     -13.057  13.702  71.474  1.00  0.00    -0.431 A  
BRANCH  17  18
HETATM   18  C   UNL     1     -13.390  12.359  72.069  1.00  0.00    -0.511 C  
BRANCH  18  19
HETATM   19  C   UNL     1     -12.758  11.197  71.271  1.00  0.00    -0.426 C  
BRANCH  19  20
HETATM   20  N   UNL     1     -12.508   9.954  72.033  1.00  0.00    -0.330 NA 
HETATM   21  C   UNL     1     -11.377   9.237  71.429  1.00  0.00    -0.364 C  
HETATM   22  C   UNL     1     -13.677   9.075  72.066  1.00  0.00    -0.461 C  
ENDBRANCH  19  20
ENDBRANCH  18  19
ENDBRANCH  17  18
ENDBRANCH   7   8
ENDBRANCH   4   7
ENDBRANCH   2   4
TORSDOF 6
ENDMDL
MODEL       70
REMARK 921   NORMALIZED FREE ENERGY PREDICTED BY IDOCK:   -4.97 KCAL/MOL
REMARK 922        TOTAL FREE ENERGY PREDICTED BY IDOCK:   -6.74 KCAL/MOL
REMARK 923 INTER-LIGAND FREE ENERGY PREDICTED BY IDOCK:   -6.20 KCAL/MOL
REMARK 924 INTRA-LIGAND FREE ENERGY PREDICTED BY IDOCK:   -0.54 KCAL/MOL
REMARK 927      BINDING AFFINITY PREDICTED BY RF-SCORE:    0.00 PKD
ROOT
HETATM    1  C   UNL     1     -12.527  15.510  70.438  1.00  0.00    -0.402 C  
HETATM    2  N   UNL     1     -12.289  15.556  68.990  1.00  0.00    -0.611 N  
HETATM    3  H   UNL     1     -12.524  16.379  68.435  1.00  0.00     0.000 HD 
ENDROOT
BRANCH   2   4
HETATM    4  S   UNL     1     -11.605  14.176  68.282  1.00  0.00    -0.341 S  
HETATM    5  O   UNL     1     -10.332  14.617  67.756  1.00  0.00    -0.235 OA 
HETATM    6  O   UNL     1     -11.685  13.143  69.292  1.00  0.00    -0.286 OA 
BRANCH   4   7
HETATM    7  C   UNL     1     -12.751  13.852  66.929  1.00  0.00     0.252 C  
BRANCH   7   8
HETATM    8  C   UNL     1     -12.052  13.192  65.767  1.00  0.00    -0.502 A  
HETATM    9  C   UNL     1     -11.228  12.066  65.962  1.00  0.00    -0.385 A  
HETATM   10  C   UNL     1     -10.632  11.415  64.861  1.00  0.00    -0.368 A  
HETATM   11  C   UNL     1     -10.918  11.893  63.584  1.00  0.00    -0.440 A  
HETATM   12  C   UNL     1     -11.738  13.001  63.351  1.00  0.00    -0.477 A  
HETATM   13  N   UNL     1     -10.261  11.079  62.694  1.00  0.00    -0.726 NA 
HETATM   14  C   UNL     1     -12.295  13.642  64.463  1.00  0.00    -0.402 A  
HETATM   15  H   UNL     1     -10.289  11.183  61.680  1.00  0.00     0.000 HD 
HETATM   16  C   UNL     1      -9.563  10.110  63.359  1.00  0.00    -0.181 A  
HETATM   17  C   UNL     1      -9.741  10.301  64.718  1.00  0.00    -0.397 A  
BRANCH  17  18
HETATM   18  C   UNL     1      -9.113   9.480  65.814  1.00  0.00    -0.243 C  
BRANCH  18  19
HETATM   19  C   UNL     1      -7.815  10.123  66.352  1.00  0.00    -0.114 C  
BRANCH  19  20
HETATM   20  N   UNL     1      -7.962  10.946  67.572  1.00  0.00    -0.114 NA 
HETATM   21  C   UNL     1      -7.732  12.357  67.233  1.00  0.00    -0.158 C  
HETATM   22  C   UNL     1      -7.036  10.545  68.631  1.00  0.00    -0.067 C  
ENDBRANCH  19  20
ENDBRANCH  18  19
ENDBRANCH  17  18
ENDBRANCH   7   8
ENDBRANCH   4   7
ENDBRANCH   2   4
TORSDOF 6
ENDMDL
MODEL       71
REMARK 921   NORMALIZED FREE ENERGY PREDICTED BY IDOCK:   -4.96 KCAL/MOL
REMARK 922        TOTAL FREE ENERGY PREDICTED BY IDOCK:   -6.73 KCAL/MOL
REMARK 923 INTER-LIGAND FREE ENERGY PREDICTED BY IDOCK:   -6.12 KCAL/MOL
REMARK 924 INTRA-LIGAND FREE ENERGY PREDICTED BY IDOCK:   -0.61 KCAL/MOL
REMARK 927      BINDING AFFINITY PREDICTED BY RF-SCORE:    0.00 PKD
ROOT
HETATM    1  C   UNL     1     -11.539   9.706  70.573  1.00  0.00    -0.272 C  
HETATM    2  N   UNL     1     -10.133  10.100  70.417  1.00  0.00    -0.401 N  
HETATM    3  H   UNL     1      -9.751  10.916  70.894  1.00  0.00     0.000 HD 
ENDROOT
BRANCH   2   4
HETATM    4  S   UNL     1      -9.175   9.134  69.406  1.00  0.00    -0.161 S  
HETATM    5  O   UNL     1      -8.208  10.041  68.828  1.00  0.00    -0.104 OA 
HETATM    6  O   UNL     1      -8.762   8.012  70.221  1.00  0.00    -0.131 OA 
BRANCH   4   7
HETATM    7  C   UNL     1     -10.365   8.623  68.152  1.00  0.00    -0.216 C  
BRANCH   7   8
HETATM    8  C   UNL     1     -10.305   9.524  66.944  1.00  0.00    -0.307 A  
HETATM    9  C   UNL     1     -10.895  10.803  66.962  1.00  0.00    -0.311 A  
HETATM   10  C   UNL     1     -10.775  11.664  65.851  1.00  0.00    -0.328 A  
HETATM   11  C   UNL     1     -10.024  11.227  64.762  1.00  0.00    -0.277 A  
HETATM   12  C   UNL     1      -9.417   9.968  64.711  1.00  0.00    -0.366 A  
HETATM   13  N   UNL     1     -10.025  12.244  63.839  1.00  0.00    -0.566 NA 
HETATM   14  C   UNL     1      -9.573   9.126  65.817  1.00  0.00    -0.323 A  
HETATM   15  H   UNL     1      -9.549  12.212  62.938  1.00  0.00     0.000 HD 
HETATM   16  C   UNL     1     -10.753  13.305  64.299  1.00  0.00    -0.387 A  
HETATM   17  C   UNL     1     -11.268  12.974  65.540  1.00  0.00    -0.315 A  
BRANCH  17  18
HETATM   18  C   UNL     1     -12.165  13.841  66.384  1.00  0.00    -0.480 C  
BRANCH  18  19
HETATM   19  C   UNL     1     -11.400  15.025  67.019  1.00  0.00    -0.318 C  
BRANCH  19  20
HETATM   20  N   UNL     1     -11.247  14.978  68.489  1.00  0.00    -0.273 NA 
HETATM   21  C   UNL     1      -9.821  14.873  68.823  1.00  0.00    -0.225 C  
HETATM   22  C   UNL     1     -11.969  13.856  69.090  1.00  0.00    -0.363 C  
ENDBRANCH  19  20
ENDBRANCH  18  19
ENDBRANCH  17  18
ENDBRANCH   7   8
ENDBRANCH   4   7
ENDBRANCH   2   4
TORSDOF 6
ENDMDL
MODEL       72
REMARK 921   NORMALIZED FREE ENERGY PREDICTED BY IDOCK:   -4.96 KCAL/MOL
REMARK 922        TOTAL FREE ENERGY PREDICTED BY IDOCK:   -6.73 KCAL/MOL
REMARK 923 INTER-LIGAND FREE ENERGY PREDICTED BY IDOCK:   -6.28 KCAL/MOL
REMARK 924 INTRA-LIGAND FREE ENERGY PREDICTED BY IDOCK:   -0.44 KCAL/MOL
REMARK 927      BINDING AFFINITY PREDICTED BY RF-SCORE:    0.00 PKD
ROOT
HETATM    1  C   UNL     1      -8.423   5.610  71.298  1.00  0.00    -0.128 C  
HETATM    2  N   UNL     1      -8.879   6.931  70.847  1.00  0.00    -0.148 N  
HETATM    3  H   UNL     1      -8.496   7.372  70.011  1.00  0.00     0.000 HD 
ENDROOT
BRANCH   2   4
HETATM    4  S   UNL     1     -10.075   7.688  71.780  1.00  0.00    -0.176 S  
HETATM    5  O   UNL     1     -10.635   6.635  72.598  1.00  0.00    -0.204 OA 
HETATM    6  O   UNL     1      -9.431   8.841  72.373  1.00  0.00    -0.293 OA 
BRANCH   4   7
HETATM    7  C   UNL     1     -11.264   8.185  70.519  1.00  0.00    -0.247 C  
BRANCH   7   8
HETATM    8  C   UNL     1     -11.640   9.638  70.665  1.00  0.00    -0.371 A  
HETATM    9  C   UNL     1     -11.131  10.612  69.782  1.00  0.00    -0.358 A  
HETATM   10  C   UNL     1     -11.541  11.957  69.886  1.00  0.00    -0.333 A  
HETATM   11  C   UNL     1     -12.491  12.280  70.853  1.00  0.00    -0.276 A  
HETATM   12  C   UNL     1     -13.025  11.340  71.741  1.00  0.00    -0.519 A  
HETATM   13  N   UNL     1     -12.750  13.623  70.729  1.00  0.00    -0.298 NA 
HETATM   14  C   UNL     1     -12.581  10.018  71.631  1.00  0.00    -0.524 A  
HETATM   15  H   UNL     1     -13.412  14.143  71.305  1.00  0.00     0.000 HD 
HETATM   16  C   UNL     1     -11.997  14.164  69.725  1.00  0.00    -0.339 A  
HETATM   17  C   UNL     1     -11.202  13.165  69.191  1.00  0.00    -0.303 A  
BRANCH  17  18
HETATM   18  C   UNL     1     -10.189  13.336  68.090  1.00  0.00    -0.243 C  
BRANCH  18  19
HETATM   19  C   UNL     1     -10.822  13.189  66.689  1.00  0.00    -0.280 C  
BRANCH  19  20
HETATM   20  N   UNL     1     -11.518  14.385  66.167  1.00  0.00    -0.351 NA 
HETATM   21  C   UNL     1     -12.709  13.963  65.418  1.00  0.00    -0.490 C  
HETATM   22  C   UNL     1     -10.662  15.195  65.299  1.00  0.00    -0.404 C  
ENDBRANCH  19  20
ENDBRANCH  18  19
ENDBRANCH  17  18
ENDBRANCH   7   8
ENDBRANCH   4   7
ENDBRANCH   2   4
TORSDOF 6
ENDMDL
MODEL       73
REMARK 921   NORMALIZED FREE ENERGY PREDICTED BY IDOCK:   -4.96 KCAL/MOL
REMARK 922        TOTAL FREE ENERGY PREDICTED BY IDOCK:   -6.73 KCAL/MOL
REMARK 923 INTER-LIGAND FREE ENERGY PREDICTED BY IDOCK:   -6.01 KCAL/MOL
REMARK 924 INTRA-LIGAND FREE ENERGY PREDICTED BY IDOCK:   -0.72 KCAL/MOL
REMARK 927      BINDING AFFINITY PREDICTED BY RF-SCORE:    0.00 PKD
ROOT
HETATM    1  C   UNL     1     -11.302   4.450  73.348  1.00  0.00    -0.261 C  
HETATM    2  N   UNL     1     -11.493   5.906  73.350  1.00  0.00    -0.406 N  
HETATM    3  H   UNL     1     -11.625   6.427  74.217  1.00  0.00     0.000 HD 
ENDROOT
BRANCH   2   4
HETATM    4  S   UNL     1     -11.483   6.682  71.843  1.00  0.00    -0.307 S  
HETATM    5  O   UNL     1     -10.547   5.927  71.040  1.00  0.00    -0.228 OA 
HETATM    6  O   UNL     1     -12.874   6.805  71.462  1.00  0.00    -0.346 OA 
BRANCH   4   7
HETATM    7  C   UNL     1     -10.779   8.287  72.262  1.00  0.00    -0.329 C  
BRANCH   7   8
HETATM    8  C   UNL     1     -11.129   9.324  71.225  1.00  0.00    -0.427 A  
HETATM    9  C   UNL     1     -10.481   9.347  69.974  1.00  0.00    -0.266 A  
HETATM   10  C   UNL     1     -10.862  10.278  68.986  1.00  0.00    -0.265 A  
HETATM   11  C   UNL     1     -11.921  11.138  69.269  1.00  0.00    -0.351 A  
HETATM   12  C   UNL     1     -12.594  11.139  70.495  1.00  0.00    -0.360 A  
HETATM   13  N   UNL     1     -12.123  11.909  68.151  1.00  0.00    -0.486 NA 
HETATM   14  C   UNL     1     -12.178  10.221  71.466  1.00  0.00    -0.449 A  
HETATM   15  H   UNL     1     -12.839  12.630  68.063  1.00  0.00     0.000 HD 
HETATM   16  C   UNL     1     -11.228  11.576  67.173  1.00  0.00    -0.301 A  
HETATM   17  C   UNL     1     -10.399  10.582  67.663  1.00  0.00    -0.257 A  
BRANCH  17  18
HETATM   18  C   UNL     1      -9.245   9.953  66.927  1.00  0.00    -0.171 C  
BRANCH  18  19
HETATM   19  C   UNL     1      -9.684   8.731  66.091  1.00  0.00    -0.250 C  
BRANCH  19  20
HETATM   20  N   UNL     1      -9.270   7.411  66.614  1.00  0.00    -0.152 NA 
HETATM   21  C   UNL     1     -10.428   6.751  67.232  1.00  0.00    -0.282 C  
HETATM   22  C   UNL     1      -8.190   7.514  67.597  1.00  0.00    -0.118 C  
ENDBRANCH  19  20
ENDBRANCH  18  19
ENDBRANCH  17  18
ENDBRANCH   7   8
ENDBRANCH   4   7
ENDBRANCH   2   4
TORSDOF 6
ENDMDL
MODEL       74
REMARK 921   NORMALIZED FREE ENERGY PREDICTED BY IDOCK:   -4.95 KCAL/MOL
REMARK 922        TOTAL FREE ENERGY PREDICTED BY IDOCK:   -6.72 KCAL/MOL
REMARK 923 INTER-LIGAND FREE ENERGY PREDICTED BY IDOCK:   -6.45 KCAL/MOL
REMARK 924 INTRA-LIGAND FREE ENERGY PREDICTED BY IDOCK:   -0.27 KCAL/MOL
REMARK 927      BINDING AFFINITY PREDICTED BY RF-SCORE:    0.00 PKD
ROOT
HETATM    1  C   UNL     1      -8.400  15.179  68.989  1.00  0.00    -0.209 C  
HETATM    2  N   UNL     1      -9.548  14.264  69.018  1.00  0.00    -0.394 N  
HETATM    3  H   UNL     1      -9.429  13.254  68.947  1.00  0.00     0.000 HD 
ENDROOT
BRANCH   2   4
HETATM    4  S   UNL     1     -11.083  14.967  69.174  1.00  0.00    -0.284 S  
HETATM    5  O   UNL     1     -11.284  15.115  70.598  1.00  0.00    -0.282 OA 
HETATM    6  O   UNL     1     -11.076  16.113  68.290  1.00  0.00    -0.331 OA 
BRANCH   4   7
HETATM    7  C   UNL     1     -12.150  13.661  68.536  1.00  0.00    -0.286 C  
BRANCH   7   8
HETATM    8  C   UNL     1     -11.843  13.363  67.089  1.00  0.00    -0.429 A  
HETATM    9  C   UNL     1     -10.977  12.310  66.733  1.00  0.00    -0.321 A  
HETATM   10  C   UNL     1     -10.749  11.997  65.377  1.00  0.00    -0.330 A  
HETATM   11  C   UNL     1     -11.436  12.730  64.411  1.00  0.00    -0.354 A  
HETATM   12  C   UNL     1     -12.309  13.776  64.726  1.00  0.00    -0.420 A  
HETATM   13  N   UNL     1     -11.080  12.217  63.188  1.00  0.00    -0.699 NA 
HETATM   14  C   UNL     1     -12.497  14.080  66.079  1.00  0.00    -0.489 A  
HETATM   15  H   UNL     1     -11.430  12.552  62.291  1.00  0.00     0.000 HD 
HETATM   16  C   UNL     1     -10.188  11.192  63.342  1.00  0.00    -0.380 A  
HETATM   17  C   UNL     1      -9.928  11.041  64.693  1.00  0.00    -0.357 A  
BRANCH  17  18
HETATM   18  C   UNL     1      -8.969  10.053  65.302  1.00  0.00    -0.220 C  
BRANCH  18  19
HETATM   19  C   UNL     1      -9.695   8.980  66.144  1.00  0.00    -0.283 C  
BRANCH  19  20
HETATM   20  N   UNL     1      -8.969   7.704  66.326  1.00  0.00    -0.165 NA 
HETATM   21  C   UNL     1      -8.290   7.352  65.072  1.00  0.00    -0.050 C  
HETATM   22  C   UNL     1      -9.856   6.609  66.720  1.00  0.00    -0.173 C  
ENDBRANCH  19  20
ENDBRANCH  18  19
ENDBRANCH  17  18
ENDBRANCH   7   8
ENDBRANCH   4   7
ENDBRANCH   2   4
TORSDOF 6
ENDMDL
MODEL       75
REMARK 921   NORMALIZED FREE ENERGY PREDICTED BY IDOCK:   -4.94 KCAL/MOL
REMARK 922        TOTAL FREE ENERGY PREDICTED BY IDOCK:   -6.71 KCAL/MOL
REMARK 923 INTER-LIGAND FREE ENERGY PREDICTED BY IDOCK:   -6.60 KCAL/MOL
REMARK 924 INTRA-LIGAND FREE ENERGY PREDICTED BY IDOCK:   -0.10 KCAL/MOL
REMARK 927      BINDING AFFINITY PREDICTED BY RF-SCORE:    0.00 PKD
ROOT
HETATM    1  C   UNL     1     -10.342   9.047  67.190  1.00  0.00    -0.272 C  
HETATM    2  N   UNL     1     -11.357   9.818  67.920  1.00  0.00    -0.467 N  
HETATM    3  H   UNL     1     -12.113   9.359  68.429  1.00  0.00     0.000 HD 
ENDROOT
BRANCH   2   4
HETATM    4  S   UNL     1     -11.215  11.506  67.876  1.00  0.00    -0.302 S  
HETATM    5  O   UNL     1      -9.793  11.760  67.806  1.00  0.00    -0.175 OA 
HETATM    6  O   UNL     1     -12.111  11.944  66.827  1.00  0.00    -0.593 OA 
BRANCH   4   7
HETATM    7  C   UNL     1     -11.843  11.968  69.502  1.00  0.00    -0.326 C  
BRANCH   7   8
HETATM    8  C   UNL     1     -11.922  10.772  70.417  1.00  0.00    -0.448 A  
HETATM    9  C   UNL     1     -10.758  10.080  70.809  1.00  0.00    -0.272 A  
HETATM   10  C   UNL     1     -10.836   9.004  71.717  1.00  0.00    -0.437 A  
HETATM   11  C   UNL     1     -12.085   8.680  72.243  1.00  0.00    -0.373 A  
HETATM   12  C   UNL     1     -13.259   9.349  71.885  1.00  0.00    -0.507 A  
HETATM   13  N   UNL     1     -11.894   7.640  73.120  1.00  0.00    -0.610 NA 
HETATM   14  C   UNL     1     -13.156  10.396  70.963  1.00  0.00    -0.450 A  
HETATM   15  H   UNL     1     -12.632   7.193  73.662  1.00  0.00     0.000 HD 
HETATM   16  C   UNL     1     -10.573   7.290  73.164  1.00  0.00    -0.355 A  
HETATM   17  C   UNL     1      -9.879   8.095  72.279  1.00  0.00    -0.329 A  
BRANCH  17  18
HETATM   18  C   UNL     1      -8.405   8.017  71.983  1.00  0.00    -0.179 C  
BRANCH  18  19
HETATM   19  C   UNL     1      -8.110   7.201  70.705  1.00  0.00    -0.113 C  
BRANCH  19  20
HETATM   20  N   UNL     1      -9.083   6.135  70.382  1.00  0.00    -0.152 NA 
HETATM   21  C   UNL     1      -8.732   4.919  71.127  1.00  0.00    -0.126 C  
HETATM   22  C   UNL     1      -9.125   5.832  68.951  1.00  0.00    -0.115 C  
ENDBRANCH  19  20
ENDBRANCH  18  19
ENDBRANCH  17  18
ENDBRANCH   7   8
ENDBRANCH   4   7
ENDBRANCH   2   4
TORSDOF 6
ENDMDL
MODEL       76
REMARK 921   NORMALIZED FREE ENERGY PREDICTED BY IDOCK:   -4.94 KCAL/MOL
REMARK 922        TOTAL FREE ENERGY PREDICTED BY IDOCK:   -6.70 KCAL/MOL
REMARK 923 INTER-LIGAND FREE ENERGY PREDICTED BY IDOCK:   -6.43 KCAL/MOL
REMARK 924 INTRA-LIGAND FREE ENERGY PREDICTED BY IDOCK:   -0.27 KCAL/MOL
REMARK 927      BINDING AFFINITY PREDICTED BY RF-SCORE:    0.00 PKD
ROOT
HETATM    1  C   UNL     1     -10.756   6.580  73.258  1.00  0.00    -0.274 C  
HETATM    2  N   UNL     1     -11.797   7.598  73.068  1.00  0.00    -0.598 N  
HETATM    3  H   UNL     1     -12.282   8.021  73.859  1.00  0.00     0.000 HD 
ENDROOT
BRANCH   2   4
HETATM    4  S   UNL     1     -12.155   8.038  71.470  1.00  0.00    -0.307 S  
HETATM    5  O   UNL     1     -12.198   6.791  70.739  1.00  0.00    -0.390 OA 
HETATM    6  O   UNL     1     -13.315   8.901  71.557  1.00  0.00    -0.341 OA 
BRANCH   4   7
HETATM    7  C   UNL     1     -10.684   8.972  71.009  1.00  0.00    -0.269 C  
BRANCH   7   8
HETATM    8  C   UNL     1     -10.623   9.194  69.519  1.00  0.00    -0.233 A  
HETATM    9  C   UNL     1     -11.000  10.427  68.953  1.00  0.00    -0.289 A  
HETATM   10  C   UNL     1     -10.876  10.647  67.565  1.00  0.00    -0.351 A  
HETATM   11  C   UNL     1     -10.331   9.629  66.787  1.00  0.00    -0.222 A  
HETATM   12  C   UNL     1      -9.937   8.395  67.314  1.00  0.00    -0.291 A  
HETATM   13  N   UNL     1     -10.279  10.094  65.495  1.00  0.00    -0.264 NA 
HETATM   14  C   UNL     1     -10.095   8.196  68.689  1.00  0.00    -0.211 A  
HETATM   15  H   UNL     1      -9.920   9.565  64.701  1.00  0.00     0.000 HD 
HETATM   16  C   UNL     1     -10.777  11.365  65.426  1.00  0.00    -0.253 A  
HETATM   17  C   UNL     1     -11.192  11.740  66.691  1.00  0.00    -0.383 A  
BRANCH  17  18
HETATM   18  C   UNL     1     -11.841  13.049  67.056  1.00  0.00    -0.437 C  
BRANCH  18  19
HETATM   19  C   UNL     1     -12.239  13.868  65.808  1.00  0.00    -0.460 C  
BRANCH  19  20
HETATM   20  N   UNL     1     -11.222  14.820  65.311  1.00  0.00    -0.350 NA 
HETATM   21  C   UNL     1     -10.656  15.560  66.446  1.00  0.00    -0.311 C  
HETATM   22  C   UNL     1     -11.771  15.767  64.340  1.00  0.00    -0.201 C  
ENDBRANCH  19  20
ENDBRANCH  18  19
ENDBRANCH  17  18
ENDBRANCH   7   8
ENDBRANCH   4   7
ENDBRANCH   2   4
TORSDOF 6
ENDMDL
MODEL       77
REMARK 921   NORMALIZED FREE ENERGY PREDICTED BY IDOCK:   -4.93 KCAL/MOL
REMARK 922        TOTAL FREE ENERGY PREDICTED BY IDOCK:   -6.69 KCAL/MOL
REMARK 923 INTER-LIGAND FREE ENERGY PREDICTED BY IDOCK:   -6.41 KCAL/MOL
REMARK 924 INTRA-LIGAND FREE ENERGY PREDICTED BY IDOCK:   -0.28 KCAL/MOL
REMARK 927      BINDING AFFINITY PREDICTED BY RF-SCORE:    0.00 PKD
ROOT
HETATM    1  C   UNL     1      -8.411  15.210  69.176  1.00  0.00    -0.221 C  
HETATM    2  N   UNL     1      -9.592  14.339  69.138  1.00  0.00    -0.410 N  
HETATM    3  H   UNL     1      -9.511  13.325  69.203  1.00  0.00     0.000 HD 
ENDROOT
BRANCH   2   4
HETATM    4  S   UNL     1     -11.100  15.100  68.983  1.00  0.00    -0.273 S  
HETATM    5  O   UNL     1     -11.471  15.473  70.330  1.00  0.00    -0.283 OA 
HETATM    6  O   UNL     1     -10.926  16.095  67.946  1.00  0.00    -0.331 OA 
BRANCH   4   7
HETATM    7  C   UNL     1     -12.138  13.741  68.413  1.00  0.00    -0.289 C  
BRANCH   7   8
HETATM    8  C   UNL     1     -11.850  13.401  66.973  1.00  0.00    -0.443 A  
HETATM    9  C   UNL     1     -11.101  12.257  66.633  1.00  0.00    -0.344 A  
HETATM   10  C   UNL     1     -10.894  11.911  65.281  1.00  0.00    -0.347 A  
HETATM   11  C   UNL     1     -11.486  12.706  64.303  1.00  0.00    -0.363 A  
HETATM   12  C   UNL     1     -12.244  13.844  64.602  1.00  0.00    -0.449 A  
HETATM   13  N   UNL     1     -11.175  12.148  63.088  1.00  0.00    -0.703 NA 
HETATM   14  C   UNL     1     -12.411  14.177  65.950  1.00  0.00    -0.479 A  
HETATM   15  H   UNL     1     -11.477  12.513  62.185  1.00  0.00     0.000 HD 
HETATM   16  C   UNL     1     -10.402  11.034  63.259  1.00  0.00    -0.255 A  
HETATM   17  C   UNL     1     -10.174  10.866  64.613  1.00  0.00    -0.411 A  
BRANCH  17  18
HETATM   18  C   UNL     1      -9.335   9.783  65.240  1.00  0.00    -0.315 C  
BRANCH  18  19
HETATM   19  C   UNL     1      -8.461   9.049  64.199  1.00  0.00    -0.170 C  
BRANCH  19  20
HETATM   20  N   UNL     1      -7.162   9.684  63.887  1.00  0.00    -0.110 NA 
HETATM   21  C   UNL     1      -6.300   8.710  63.205  1.00  0.00    -0.090 C  
HETATM   22  C   UNL     1      -6.481  10.179  65.084  1.00  0.00    -0.121 C  
ENDBRANCH  19  20
ENDBRANCH  18  19
ENDBRANCH  17  18
ENDBRANCH   7   8
ENDBRANCH   4   7
ENDBRANCH   2   4
TORSDOF 6
ENDMDL
MODEL       78
REMARK 921   NORMALIZED FREE ENERGY PREDICTED BY IDOCK:   -4.93 KCAL/MOL
REMARK 922        TOTAL FREE ENERGY PREDICTED BY IDOCK:   -6.68 KCAL/MOL
REMARK 923 INTER-LIGAND FREE ENERGY PREDICTED BY IDOCK:   -6.46 KCAL/MOL
REMARK 924 INTRA-LIGAND FREE ENERGY PREDICTED BY IDOCK:   -0.22 KCAL/MOL
REMARK 927      BINDING AFFINITY PREDICTED BY RF-SCORE:    0.00 PKD
ROOT
HETATM    1  C   UNL     1      -8.804   7.857  65.752  1.00  0.00    -0.119 C  
HETATM    2  N   UNL     1      -9.957   8.720  66.039  1.00  0.00    -0.456 N  
HETATM    3  H   UNL     1     -10.906   8.348  66.078  1.00  0.00     0.000 HD 
ENDROOT
BRANCH   2   4
HETATM    4  S   UNL     1      -9.638  10.364  66.302  1.00  0.00    -0.191 S  
HETATM    5  O   UNL     1      -8.685  10.728  65.276  1.00  0.00    -0.189 OA 
HETATM    6  O   UNL     1     -10.934  11.001  66.387  1.00  0.00    -0.234 OA 
BRANCH   4   7
HETATM    7  C   UNL     1      -8.825  10.326  67.910  1.00  0.00    -0.122 C  
BRANCH   7   8
HETATM    8  C   UNL     1      -9.800   9.975  69.006  1.00  0.00    -0.203 A  
HETATM    9  C   UNL     1     -10.718  10.927  69.493  1.00  0.00    -0.251 A  
HETATM   10  C   UNL     1     -11.670  10.571  70.470  1.00  0.00    -0.443 A  
HETATM   11  C   UNL     1     -11.700   9.247  70.903  1.00  0.00    -0.296 A  
HETATM   12  C   UNL     1     -10.812   8.272  70.437  1.00  0.00    -0.241 A  
HETATM   13  N   UNL     1     -12.725   9.145  71.812  1.00  0.00    -0.347 NA 
HETATM   14  C   UNL     1      -9.862   8.661  69.486  1.00  0.00    -0.187 A  
HETATM   15  H   UNL     1     -12.990   8.287  72.296  1.00  0.00     0.000 HD 
HETATM   16  C   UNL     1     -13.339  10.355  71.977  1.00  0.00    -0.335 A  
HETATM   17  C   UNL     1     -12.692  11.283  71.181  1.00  0.00    -0.492 A  
BRANCH  17  18
HETATM   18  C   UNL     1     -13.019  12.751  71.091  1.00  0.00    -0.244 C  
BRANCH  18  19
HETATM   19  C   UNL     1     -13.658  13.285  72.393  1.00  0.00    -0.594 C  
BRANCH  19  20
HETATM   20  N   UNL     1     -13.568  14.746  72.601  1.00  0.00    -0.452 NA 
HETATM   21  C   UNL     1     -13.185  15.392  71.339  1.00  0.00    -0.500 C  
HETATM   22  C   UNL     1     -12.601  15.102  73.641  1.00  0.00    -0.569 C  
ENDBRANCH  19  20
ENDBRANCH  18  19
ENDBRANCH  17  18
ENDBRANCH   7   8
ENDBRANCH   4   7
ENDBRANCH   2   4
TORSDOF 6
ENDMDL
MODEL       79
REMARK 921   NORMALIZED FREE ENERGY PREDICTED BY IDOCK:   -4.90 KCAL/MOL
REMARK 922        TOTAL FREE ENERGY PREDICTED BY IDOCK:   -6.65 KCAL/MOL
REMARK 923 INTER-LIGAND FREE ENERGY PREDICTED BY IDOCK:   -5.98 KCAL/MOL
REMARK 924 INTRA-LIGAND FREE ENERGY PREDICTED BY IDOCK:   -0.67 KCAL/MOL
REMARK 927      BINDING AFFINITY PREDICTED BY RF-SCORE:    0.00 PKD
ROOT
HETATM    1  C   UNL     1     -10.056  15.577  70.059  1.00  0.00    -0.228 C  
HETATM    2  N   UNL     1      -9.265  16.102  68.939  1.00  0.00    -0.223 N  
HETATM    3  H   UNL     1      -8.251  16.192  68.997  1.00  0.00     0.000 HD 
ENDROOT
BRANCH   2   4
HETATM    4  S   UNL     1     -10.116  16.549  67.543  1.00  0.00    -0.273 S  
HETATM    5  O   UNL     1     -10.658  17.857  67.838  1.00  0.00    -0.389 OA 
HETATM    6  O   UNL     1      -9.195  16.345  66.445  1.00  0.00    -0.257 OA 
BRANCH   4   7
HETATM    7  C   UNL     1     -11.441  15.327  67.515  1.00  0.00    -0.265 C  
BRANCH   7   8
HETATM    8  C   UNL     1     -11.363  14.466  66.279  1.00  0.00    -0.350 A  
HETATM    9  C   UNL     1     -10.622  13.267  66.275  1.00  0.00    -0.294 A  
HETATM   10  C   UNL     1     -10.611  12.435  65.136  1.00  0.00    -0.324 A  
HETATM   11  C   UNL     1     -11.384  12.814  64.041  1.00  0.00    -0.413 A  
HETATM   12  C   UNL     1     -12.139  13.990  64.011  1.00  0.00    -0.413 A  
HETATM   13  N   UNL     1     -11.238  11.835  63.089  1.00  0.00    -0.725 NA 
HETATM   14  C   UNL     1     -12.112  14.809  65.146  1.00  0.00    -0.240 A  
HETATM   15  H   UNL     1     -11.693  11.838  62.176  1.00  0.00     0.000 HD 
HETATM   16  C   UNL     1     -10.396  10.855  63.536  1.00  0.00    -0.277 A  
HETATM   17  C   UNL     1      -9.955  11.205  64.800  1.00  0.00    -0.339 A  
BRANCH  17  18
HETATM   18  C   UNL     1      -8.979  10.426  65.642  1.00  0.00    -0.198 C  
BRANCH  18  19
HETATM   19  C   UNL     1      -9.671   9.305  66.448  1.00  0.00    -0.258 C  
BRANCH  19  20
HETATM   20  N   UNL     1      -9.793   9.541  67.904  1.00  0.00    -0.150 NA 
HETATM   21  C   UNL     1     -11.122  10.092  68.194  1.00  0.00    -0.230 C  
HETATM   22  C   UNL     1      -8.768  10.455  68.408  1.00  0.00    -0.129 C  
ENDBRANCH  19  20
ENDBRANCH  18  19
ENDBRANCH  17  18
ENDBRANCH   7   8
ENDBRANCH   4   7
ENDBRANCH   2   4
TORSDOF 6
ENDMDL
MODEL       80
REMARK 921   NORMALIZED FREE ENERGY PREDICTED BY IDOCK:   -4.89 KCAL/MOL
REMARK 922        TOTAL FREE ENERGY PREDICTED BY IDOCK:   -6.64 KCAL/MOL
REMARK 923 INTER-LIGAND FREE ENERGY PREDICTED BY IDOCK:   -6.05 KCAL/MOL
REMARK 924 INTRA-LIGAND FREE ENERGY PREDICTED BY IDOCK:   -0.59 KCAL/MOL
REMARK 927      BINDING AFFINITY PREDICTED BY RF-SCORE:    0.00 PKD
ROOT
HETATM    1  C   UNL     1     -10.049  19.801  68.256  1.00  0.00    -0.458 C  
HETATM    2  N   UNL     1      -9.190  19.015  67.363  1.00  0.00    -0.287 N  
HETATM    3  H   UNL     1      -8.473  19.455  66.786  1.00  0.00     0.000 HD 
ENDROOT
BRANCH   2   4
HETATM    4  S   UNL     1      -9.444  17.339  67.335  1.00  0.00    -0.249 S  
HETATM    5  O   UNL     1      -9.366  16.972  65.938  1.00  0.00    -0.498 OA 
HETATM    6  O   UNL     1      -8.526  16.792  68.311  1.00  0.00    -0.206 OA 
BRANCH   4   7
HETATM    7  C   UNL     1     -11.150  17.218  67.907  1.00  0.00    -0.053 C  
BRANCH   7   8
HETATM    8  C   UNL     1     -11.410  15.889  68.569  1.00  0.00    -0.374 A  
HETATM    9  C   UNL     1     -11.280  14.683  67.852  1.00  0.00    -0.318 A  
HETATM   10  C   UNL     1     -11.460  13.442  68.497  1.00  0.00    -0.345 A  
HETATM   11  C   UNL     1     -11.726  13.447  69.864  1.00  0.00    -0.267 A  
HETATM   12  C   UNL     1     -11.854  14.622  70.611  1.00  0.00    -0.367 A  
HETATM   13  N   UNL     1     -11.819  12.135  70.261  1.00  0.00    -0.515 NA 
HETATM   14  C   UNL     1     -11.695  15.839  69.940  1.00  0.00    -0.365 A  
HETATM   15  H   UNL     1     -12.004  11.827  71.215  1.00  0.00     0.000 HD 
HETATM   16  C   UNL     1     -11.630  11.300  69.195  1.00  0.00    -0.319 A  
HETATM   17  C   UNL     1     -11.433  12.074  68.065  1.00  0.00    -0.392 A  
BRANCH  17  18
HETATM   18  C   UNL     1     -11.228  11.557  66.666  1.00  0.00    -0.336 C  
BRANCH  18  19
HETATM   19  C   UNL     1      -9.876  12.010  66.071  1.00  0.00    -0.237 C  
BRANCH  19  20
HETATM   20  N   UNL     1      -8.680  11.712  66.890  1.00  0.00    -0.179 NA 
HETATM   21  C   UNL     1      -8.000  12.969  67.225  1.00  0.00    -0.138 C  
HETATM   22  C   UNL     1      -7.743  10.822  66.204  1.00  0.00    -0.149 C  
ENDBRANCH  19  20
ENDBRANCH  18  19
ENDBRANCH  17  18
ENDBRANCH   7   8
ENDBRANCH   4   7
ENDBRANCH   2   4
TORSDOF 6
ENDMDL
MODEL       81
REMARK 921   NORMALIZED FREE ENERGY PREDICTED BY IDOCK:   -4.89 KCAL/MOL
REMARK 922        TOTAL FREE ENERGY PREDICTED BY IDOCK:   -6.64 KCAL/MOL
REMARK 923 INTER-LIGAND FREE ENERGY PREDICTED BY IDOCK:   -6.31 KCAL/MOL
REMARK 924 INTRA-LIGAND FREE ENERGY PREDICTED BY IDOCK:   -0.33 KCAL/MOL
REMARK 927      BINDING AFFINITY PREDICTED BY RF-SCORE:    0.00 PKD
ROOT
HETATM    1  C   UNL     1     -10.479   7.879  67.186  1.00  0.00    -0.344 C  
HETATM    2  N   UNL     1     -10.070   8.608  65.978  1.00  0.00    -0.421 N  
HETATM    3  H   UNL     1     -10.746   8.886  65.268  1.00  0.00     0.000 HD 
ENDROOT
BRANCH   2   4
HETATM    4  S   UNL     1      -8.420   8.965  65.822  1.00  0.00    -0.154 S  
HETATM    5  O   UNL     1      -8.031   9.505  67.105  1.00  0.00    -0.102 OA 
HETATM    6  O   UNL     1      -7.812   7.761  65.295  1.00  0.00    -0.101 OA 
BRANCH   4   7
HETATM    7  C   UNL     1      -8.446  10.276  64.584  1.00  0.00    -0.175 C  
BRANCH   7   8
HETATM    8  C   UNL     1      -9.686  11.123  64.713  1.00  0.00    -0.303 A  
HETATM    9  C   UNL     1      -9.879  11.964  65.827  1.00  0.00    -0.262 A  
HETATM   10  C   UNL     1     -11.010  12.802  65.905  1.00  0.00    -0.303 A  
HETATM   11  C   UNL     1     -11.900  12.804  64.833  1.00  0.00    -0.379 A  
HETATM   12  C   UNL     1     -11.738  11.990  63.707  1.00  0.00    -0.575 A  
HETATM   13  N   UNL     1     -12.882  13.718  65.127  1.00  0.00    -0.748 NA 
HETATM   14  C   UNL     1     -10.620  11.150  63.668  1.00  0.00    -0.414 A  
HETATM   15  H   UNL     1     -13.672  13.939  64.520  1.00  0.00     0.000 HD 
HETATM   16  C   UNL     1     -12.652  14.290  66.346  1.00  0.00    -0.124 A  
HETATM   17  C   UNL     1     -11.509  13.725  66.883  1.00  0.00    -0.368 A  
BRANCH  17  18
HETATM   18  C   UNL     1     -10.920  14.038  68.234  1.00  0.00    -0.272 C  
BRANCH  18  19
HETATM   19  C   UNL     1     -11.745  13.421  69.385  1.00  0.00    -0.325 C  
BRANCH  19  20
HETATM   20  N   UNL     1     -11.996  14.307  70.543  1.00  0.00    -0.318 NA 
HETATM   21  C   UNL     1     -12.979  13.673  71.431  1.00  0.00    -0.347 C  
HETATM   22  C   UNL     1     -12.487  15.626  70.140  1.00  0.00    -0.278 C  
ENDBRANCH  19  20
ENDBRANCH  18  19
ENDBRANCH  17  18
ENDBRANCH   7   8
ENDBRANCH   4   7
ENDBRANCH   2   4
TORSDOF 6
ENDMDL
MODEL       82
REMARK 921   NORMALIZED FREE ENERGY PREDICTED BY IDOCK:   -4.86 KCAL/MOL
REMARK 922        TOTAL FREE ENERGY PREDICTED BY IDOCK:   -6.59 KCAL/MOL
REMARK 923 INTER-LIGAND FREE ENERGY PREDICTED BY IDOCK:   -6.23 KCAL/MOL
REMARK 924 INTRA-LIGAND FREE ENERGY PREDICTED BY IDOCK:   -0.37 KCAL/MOL
REMARK 927      BINDING AFFINITY PREDICTED BY RF-SCORE:    0.00 PKD
ROOT
HETATM    1  C   UNL     1     -11.891  15.055  69.084  1.00  0.00    -0.308 C  
HETATM    2  N   UNL     1     -12.176  13.885  68.243  1.00  0.00    -0.494 N  
HETATM    3  H   UNL     1     -12.749  13.958  67.402  1.00  0.00     0.000 HD 
ENDROOT
BRANCH   2   4
HETATM    4  S   UNL     1     -11.508  12.407  68.735  1.00  0.00    -0.327 S  
HETATM    5  O   UNL     1     -12.237  11.402  67.993  1.00  0.00    -0.607 OA 
HETATM    6  O   UNL     1     -10.077  12.561  68.588  1.00  0.00    -0.210 OA 
BRANCH   4   7
HETATM    7  C   UNL     1     -11.981  12.352  70.473  1.00  0.00    -0.195 C  
BRANCH   7   8
HETATM    8  C   UNL     1     -12.205  10.934  70.934  1.00  0.00    -0.485 A  
HETATM    9  C   UNL     1     -11.231   9.939  70.717  1.00  0.00    -0.427 A  
HETATM   10  C   UNL     1     -11.421   8.631  71.211  1.00  0.00    -0.341 A  
HETATM   11  C   UNL     1     -12.572   8.371  71.951  1.00  0.00    -0.349 A  
HETATM   12  C   UNL     1     -13.556   9.334  72.194  1.00  0.00    -0.536 A  
HETATM   13  N   UNL     1     -12.507   7.057  72.347  1.00  0.00    -0.509 NA 
HETATM   14  C   UNL     1     -13.353  10.616  71.671  1.00  0.00    -0.407 A  
HETATM   15  H   UNL     1     -13.212   6.584  72.910  1.00  0.00     0.000 HD 
HETATM   16  C   UNL     1     -11.362   6.475  71.881  1.00  0.00    -0.285 A  
HETATM   17  C   UNL     1     -10.667   7.413  71.138  1.00  0.00    -0.246 A  
BRANCH  17  18
HETATM   18  C   UNL     1      -9.371   7.178  70.408  1.00  0.00    -0.159 C  
BRANCH  18  19
HETATM   19  C   UNL     1      -8.238   6.738  71.362  1.00  0.00    -0.111 C  
BRANCH  19  20
HETATM   20  N   UNL     1      -7.902   5.298  71.341  1.00  0.00    -0.106 NA 
HETATM   21  C   UNL     1      -8.078   4.741  72.688  1.00  0.00    -0.100 C  
HETATM   22  C   UNL     1      -6.531   5.052  70.891  1.00  0.00    -0.027 C  
ENDBRANCH  19  20
ENDBRANCH  18  19
ENDBRANCH  17  18
ENDBRANCH   7   8
ENDBRANCH   4   7
ENDBRANCH   2   4
TORSDOF 6
ENDMDL
MODEL       83
REMARK 921   NORMALIZED FREE ENERGY PREDICTED BY IDOCK:   -4.86 KCAL/MOL
REMARK 922        TOTAL FREE ENERGY PREDICTED BY IDOCK:   -6.59 KCAL/MOL
REMARK 923 INTER-LIGAND FREE ENERGY PREDICTED BY IDOCK:   -6.25 KCAL/MOL
REMARK 924 INTRA-LIGAND FREE ENERGY PREDICTED BY IDOCK:   -0.34 KCAL/MOL
REMARK 927      BINDING AFFINITY PREDICTED BY RF-SCORE:    0.00 PKD
ROOT
HETATM    1  C   UNL     1     -10.289  17.491  65.863  1.00  0.00    -0.259 C  
HETATM    2  N   UNL     1     -10.761  16.121  65.629  1.00  0.00    -0.336 N  
HETATM    3  H   UNL     1     -11.024  15.798  64.698  1.00  0.00     0.000 HD 
ENDROOT
BRANCH   2   4
HETATM    4  S   UNL     1     -10.849  15.099  66.979  1.00  0.00    -0.315 S  
HETATM    5  O   UNL     1      -9.527  14.525  67.100  1.00  0.00    -0.216 OA 
HETATM    6  O   UNL     1     -11.421  15.904  68.037  1.00  0.00    -0.328 OA 
BRANCH   4   7
HETATM    7  C   UNL     1     -12.014  13.845  66.414  1.00  0.00    -0.438 C  
BRANCH   7   8
HETATM    8  C   UNL     1     -11.329  12.519  66.201  1.00  0.00    -0.388 A  
HETATM    9  C   UNL     1     -11.135  11.622  67.270  1.00  0.00    -0.346 A  
HETATM   10  C   UNL     1     -10.553  10.357  67.048  1.00  0.00    -0.305 A  
HETATM   11  C   UNL     1     -10.219  10.010  65.741  1.00  0.00    -0.200 A  
HETATM   12  C   UNL     1     -10.405  10.869  64.653  1.00  0.00    -0.407 A  
HETATM   13  N   UNL     1      -9.714   8.733  65.780  1.00  0.00    -0.461 NA 
HETATM   14  C   UNL     1     -10.961  12.128  64.907  1.00  0.00    -0.355 A  
HETATM   15  H   UNL     1      -9.389   8.211  64.967  1.00  0.00     0.000 HD 
HETATM   16  C   UNL     1      -9.708   8.262  67.063  1.00  0.00    -0.211 A  
HETATM   17  C   UNL     1     -10.195   9.256  67.894  1.00  0.00    -0.263 A  
BRANCH  17  18
HETATM   18  C   UNL     1     -10.320   9.171  69.393  1.00  0.00    -0.220 C  
BRANCH  18  19
HETATM   19  C   UNL     1     -10.649   7.738  69.869  1.00  0.00    -0.239 C  
BRANCH  19  20
HETATM   20  N   UNL     1     -11.041   7.607  71.289  1.00  0.00    -0.243 NA 
HETATM   21  C   UNL     1     -12.152   6.652  71.396  1.00  0.00    -0.347 C  
HETATM   22  C   UNL     1     -11.442   8.885  71.878  1.00  0.00    -0.372 C  
ENDBRANCH  19  20
ENDBRANCH  18  19
ENDBRANCH  17  18
ENDBRANCH   7   8
ENDBRANCH   4   7
ENDBRANCH   2   4
TORSDOF 6
ENDMDL
MODEL       84
REMARK 921   NORMALIZED FREE ENERGY PREDICTED BY IDOCK:   -4.85 KCAL/MOL
REMARK 922        TOTAL FREE ENERGY PREDICTED BY IDOCK:   -6.58 KCAL/MOL
REMARK 923 INTER-LIGAND FREE ENERGY PREDICTED BY IDOCK:   -6.26 KCAL/MOL
REMARK 924 INTRA-LIGAND FREE ENERGY PREDICTED BY IDOCK:   -0.32 KCAL/MOL
REMARK 927      BINDING AFFINITY PREDICTED BY RF-SCORE:    0.00 PKD
ROOT
HETATM    1  C   UNL     1      -7.567   5.513  67.350  1.00  0.00    -0.089 C  
HETATM    2  N   UNL     1      -8.895   5.250  67.919  1.00  0.00    -0.106 N  
HETATM    3  H   UNL     1      -9.234   4.300  68.071  1.00  0.00     0.000 HD 
ENDROOT
BRANCH   2   4
HETATM    4  S   UNL     1      -9.841   6.601  68.311  1.00  0.00    -0.141 S  
HETATM    5  O   UNL     1      -9.335   7.668  67.475  1.00  0.00    -0.136 OA 
HETATM    6  O   UNL     1     -11.214   6.154  68.213  1.00  0.00    -0.323 OA 
BRANCH   4   7
HETATM    7  C   UNL     1      -9.372   6.890  70.028  1.00  0.00    -0.158 C  
BRANCH   7   8
HETATM    8  C   UNL     1     -10.345   7.818  70.710  1.00  0.00    -0.206 A  
HETATM    9  C   UNL     1     -10.622   9.095  70.182  1.00  0.00    -0.258 A  
HETATM   10  C   UNL     1     -11.583   9.929  70.791  1.00  0.00    -0.430 A  
HETATM   11  C   UNL     1     -12.275   9.435  71.895  1.00  0.00    -0.368 A  
HETATM   12  C   UNL     1     -12.034   8.171  72.441  1.00  0.00    -0.431 A  
HETATM   13  N   UNL     1     -13.169  10.405  72.275  1.00  0.00    -0.569 NA 
HETATM   14  C   UNL     1     -11.058   7.375  71.832  1.00  0.00    -0.276 A  
HETATM   15  H   UNL     1     -13.820  10.323  73.057  1.00  0.00     0.000 HD 
HETATM   16  C   UNL     1     -13.066  11.497  71.460  1.00  0.00    -0.326 A  
HETATM   17  C   UNL     1     -12.064  11.256  70.536  1.00  0.00    -0.481 A  
BRANCH  17  18
HETATM   18  C   UNL     1     -11.592  12.216  69.475  1.00  0.00    -0.382 C  
BRANCH  18  19
HETATM   19  C   UNL     1     -11.659  11.598  68.061  1.00  0.00    -0.313 C  
BRANCH  19  20
HETATM   20  N   UNL     1     -12.012  12.530  66.968  1.00  0.00    -0.531 NA 
HETATM   21  C   UNL     1     -11.169  12.245  65.799  1.00  0.00    -0.337 C  
HETATM   22  C   UNL     1     -11.845  13.932  67.354  1.00  0.00    -0.402 C  
ENDBRANCH  19  20
ENDBRANCH  18  19
ENDBRANCH  17  18
ENDBRANCH   7   8
ENDBRANCH   4   7
ENDBRANCH   2   4
TORSDOF 6
ENDMDL
MODEL       85
REMARK 921   NORMALIZED FREE ENERGY PREDICTED BY IDOCK:   -4.85 KCAL/MOL
REMARK 922        TOTAL FREE ENERGY PREDICTED BY IDOCK:   -6.58 KCAL/MOL
REMARK 923 INTER-LIGAND FREE ENERGY PREDICTED BY IDOCK:   -6.28 KCAL/MOL
REMARK 924 INTRA-LIGAND FREE ENERGY PREDICTED BY IDOCK:   -0.31 KCAL/MOL
REMARK 927      BINDING AFFINITY PREDICTED BY RF-SCORE:    0.00 PKD
ROOT
HETATM    1  C   UNL     1     -11.507  16.136  69.105  1.00  0.00    -0.311 C  
HETATM    2  N   UNL     1     -10.071  16.430  69.015  1.00  0.00    -0.248 N  
HETATM    3  H   UNL     1      -9.382  15.901  69.550  1.00  0.00     0.000 HD 
ENDROOT
BRANCH   2   4
HETATM    4  S   UNL     1      -9.611  17.691  67.979  1.00  0.00    -0.301 S  
HETATM    5  O   UNL     1     -10.854  18.277  67.527  1.00  0.00    -0.399 OA 
HETATM    6  O   UNL     1      -8.637  18.465  68.719  1.00  0.00    -0.302 OA 
BRANCH   4   7
HETATM    7  C   UNL     1      -8.831  16.787  66.627  1.00  0.00    -0.255 C  
BRANCH   7   8
HETATM    8  C   UNL     1      -9.838  15.956  65.874  1.00  0.00    -0.383 A  
HETATM    9  C   UNL     1     -10.011  14.587  66.163  1.00  0.00    -0.330 A  
HETATM   10  C   UNL     1     -11.002  13.835  65.499  1.00  0.00    -0.299 A  
HETATM   11  C   UNL     1     -11.826  14.493  64.589  1.00  0.00    -0.453 A  
HETATM   12  C   UNL     1     -11.691  15.851  64.283  1.00  0.00    -0.132 A  
HETATM   13  N   UNL     1     -12.722  13.567  64.114  1.00  0.00    -0.651 NA 
HETATM   14  C   UNL     1     -10.683  16.567  64.938  1.00  0.00    -0.168 A  
HETATM   15  H   UNL     1     -13.455  13.763  63.432  1.00  0.00     0.000 HD 
HETATM   16  C   UNL     1     -12.492  12.346  64.683  1.00  0.00    -0.420 A  
HETATM   17  C   UNL     1     -11.406  12.459  65.532  1.00  0.00    -0.387 A  
BRANCH  17  18
HETATM   18  C   UNL     1     -10.789  11.340  66.330  1.00  0.00    -0.296 C  
BRANCH  18  19
HETATM   19  C   UNL     1     -11.490  11.140  67.691  1.00  0.00    -0.250 C  
BRANCH  19  20
HETATM   20  N   UNL     1     -10.643  11.340  68.888  1.00  0.00    -0.201 NA 
HETATM   21  C   UNL     1      -9.235  11.148  68.519  1.00  0.00    -0.183 C  
HETATM   22  C   UNL     1     -10.989  10.423  69.975  1.00  0.00    -0.308 C  
ENDBRANCH  19  20
ENDBRANCH  18  19
ENDBRANCH  17  18
ENDBRANCH   7   8
ENDBRANCH   4   7
ENDBRANCH   2   4
TORSDOF 6
ENDMDL
MODEL       86
REMARK 921   NORMALIZED FREE ENERGY PREDICTED BY IDOCK:   -4.83 KCAL/MOL
REMARK 922        TOTAL FREE ENERGY PREDICTED BY IDOCK:   -6.55 KCAL/MOL
REMARK 923 INTER-LIGAND FREE ENERGY PREDICTED BY IDOCK:   -6.62 KCAL/MOL
REMARK 924 INTRA-LIGAND FREE ENERGY PREDICTED BY IDOCK:    0.07 KCAL/MOL
REMARK 927      BINDING AFFINITY PREDICTED BY RF-SCORE:    0.00 PKD
ROOT
HETATM    1  C   UNL     1     -14.408  15.370  71.960  1.00  0.00    -0.550 C  
HETATM    2  N   UNL     1     -13.741  15.442  70.653  1.00  0.00    -0.841 N  
HETATM    3  H   UNL     1     -14.243  15.724  69.812  1.00  0.00     0.000 HD 
ENDROOT
BRANCH   2   4
HETATM    4  S   UNL     1     -12.097  15.033  70.609  1.00  0.00    -0.353 S  
HETATM    5  O   UNL     1     -11.436  16.197  70.060  1.00  0.00    -0.330 OA 
HETATM    6  O   UNL     1     -11.784  14.544  71.935  1.00  0.00    -0.223 OA 
BRANCH   4   7
HETATM    7  C   UNL     1     -12.085  13.693  69.403  1.00  0.00    -0.314 C  
BRANCH   7   8
HETATM    8  C   UNL     1     -12.132  12.347  70.082  1.00  0.00    -0.366 A  
HETATM    9  C   UNL     1     -11.216  11.331  69.743  1.00  0.00    -0.294 A  
HETATM   10  C   UNL     1     -11.225  10.100  70.431  1.00  0.00    -0.402 A  
HETATM   11  C   UNL     1     -12.132   9.939  71.476  1.00  0.00    -0.410 A  
HETATM   12  C   UNL     1     -13.049  10.928  71.847  1.00  0.00    -0.537 A  
HETATM   13  N   UNL     1     -11.920   8.689  72.004  1.00  0.00    -0.346 NA 
HETATM   14  C   UNL     1     -13.034  12.129  71.131  1.00  0.00    -0.240 A  
HETATM   15  H   UNL     1     -12.436   8.294  72.789  1.00  0.00     0.000 HD 
HETATM   16  C   UNL     1     -10.918   8.050  71.328  1.00  0.00    -0.236 A  
HETATM   17  C   UNL     1     -10.476   8.882  70.316  1.00  0.00    -0.239 A  
BRANCH  17  18
HETATM   18  C   UNL     1      -9.409   8.553  69.304  1.00  0.00    -0.154 C  
BRANCH  18  19
HETATM   19  C   UNL     1      -9.998   8.300  67.899  1.00  0.00    -0.183 C  
BRANCH  19  20
HETATM   20  N   UNL     1      -9.623   7.018  67.264  1.00  0.00    -0.135 NA 
HETATM   21  C   UNL     1     -10.841   6.315  66.840  1.00  0.00    -0.354 C  
HETATM   22  C   UNL     1      -8.854   6.156  68.162  1.00  0.00    -0.112 C  
ENDBRANCH  19  20
ENDBRANCH  18  19
ENDBRANCH  17  18
ENDBRANCH   7   8
ENDBRANCH   4   7
ENDBRANCH   2   4
TORSDOF 6
ENDMDL
MODEL       87
REMARK 921   NORMALIZED FREE ENERGY PREDICTED BY IDOCK:   -4.82 KCAL/MOL
REMARK 922        TOTAL FREE ENERGY PREDICTED BY IDOCK:   -6.55 KCAL/MOL
REMARK 923 INTER-LIGAND FREE ENERGY PREDICTED BY IDOCK:   -6.11 KCAL/MOL
REMARK 924 INTRA-LIGAND FREE ENERGY PREDICTED BY IDOCK:   -0.43 KCAL/MOL
REMARK 927      BINDING AFFINITY PREDICTED BY RF-SCORE:    0.00 PKD
ROOT
HETATM    1  C   UNL     1     -10.315   6.087  73.894  1.00  0.00    -0.284 C  
HETATM    2  N   UNL     1     -10.591   7.492  73.566  1.00  0.00    -0.354 N  
HETATM    3  H   UNL     1     -10.418   8.241  74.236  1.00  0.00     0.000 HD 
ENDROOT
BRANCH   2   4
HETATM    4  S   UNL     1     -11.211   7.810  72.021  1.00  0.00    -0.299 S  
HETATM    5  O   UNL     1     -11.189   6.535  71.339  1.00  0.00    -0.259 OA 
HETATM    6  O   UNL     1     -12.449   8.527  72.240  1.00  0.00    -0.359 OA 
BRANCH   4   7
HETATM    7  C   UNL     1      -9.945   8.895  71.335  1.00  0.00    -0.308 C  
BRANCH   7   8
HETATM    8  C   UNL     1     -10.430   9.574  70.079  1.00  0.00    -0.283 A  
HETATM    9  C   UNL     1     -10.918  10.896  70.110  1.00  0.00    -0.153 A  
HETATM   10  C   UNL     1     -11.306  11.545  68.920  1.00  0.00    -0.331 A  
HETATM   11  C   UNL     1     -11.151  10.857  67.718  1.00  0.00    -0.309 A  
HETATM   12  C   UNL     1     -10.662   9.549  67.646  1.00  0.00    -0.314 A  
HETATM   13  N   UNL     1     -11.556  11.704  66.716  1.00  0.00    -0.526 NA 
HETATM   14  C   UNL     1     -10.309   8.921  68.846  1.00  0.00    -0.229 A  
HETATM   15  H   UNL     1     -11.550  11.474  65.722  1.00  0.00     0.000 HD 
HETATM   16  C   UNL     1     -11.968  12.898  67.237  1.00  0.00    -0.309 A  
HETATM   17  C   UNL     1     -11.859  12.832  68.615  1.00  0.00    -0.341 A  
BRANCH  17  18
HETATM   18  C   UNL     1     -12.248  13.918  69.584  1.00  0.00    -0.374 C  
BRANCH  18  19
HETATM   19  C   UNL     1     -11.059  14.842  69.929  1.00  0.00    -0.259 C  
BRANCH  19  20
HETATM   20  N   UNL     1     -10.342  15.426  68.775  1.00  0.00    -0.222 NA 
HETATM   21  C   UNL     1      -8.942  15.668  69.149  1.00  0.00    -0.257 C  
HETATM   22  C   UNL     1     -10.945  16.678  68.318  1.00  0.00    -0.341 C  
ENDBRANCH  19  20
ENDBRANCH  18  19
ENDBRANCH  17  18
ENDBRANCH   7   8
ENDBRANCH   4   7
ENDBRANCH   2   4
TORSDOF 6
ENDMDL
MODEL       88
REMARK 921   NORMALIZED FREE ENERGY PREDICTED BY IDOCK:   -4.82 KCAL/MOL
REMARK 922        TOTAL FREE ENERGY PREDICTED BY IDOCK:   -6.54 KCAL/MOL
REMARK 923 INTER-LIGAND FREE ENERGY PREDICTED BY IDOCK:   -6.12 KCAL/MOL
REMARK 924 INTRA-LIGAND FREE ENERGY PREDICTED BY IDOCK:   -0.42 KCAL/MOL
REMARK 927      BINDING AFFINITY PREDICTED BY RF-SCORE:    0.00 PKD
ROOT
HETATM    1  C   UNL     1      -9.206   8.249  66.120  1.00  0.00    -0.192 C  
HETATM    2  N   UNL     1     -10.251   9.232  65.804  1.00  0.00    -0.288 N  
HETATM    3  H   UNL     1     -11.241   8.997  65.863  1.00  0.00     0.000 HD 
ENDROOT
BRANCH   2   4
HETATM    4  S   UNL     1      -9.733  10.777  65.336  1.00  0.00    -0.266 S  
HETATM    5  O   UNL     1      -8.723  11.142  66.304  1.00  0.00    -0.174 OA 
HETATM    6  O   UNL     1      -9.421  10.670  63.926  1.00  0.00    -0.232 OA 
BRANCH   4   7
HETATM    7  C   UNL     1     -11.222  11.758  65.600  1.00  0.00    -0.267 C  
BRANCH   7   8
HETATM    8  C   UNL     1     -11.214  12.405  66.962  1.00  0.00    -0.358 A  
HETATM    9  C   UNL     1     -10.756  13.726  67.135  1.00  0.00    -0.283 A  
HETATM   10  C   UNL     1     -10.816  14.345  68.401  1.00  0.00    -0.256 A  
HETATM   11  C   UNL     1     -11.379  13.629  69.455  1.00  0.00    -0.245 A  
HETATM   12  C   UNL     1     -11.852  12.320  69.319  1.00  0.00    -0.363 A  
HETATM   13  N   UNL     1     -11.359  14.450  70.555  1.00  0.00    -0.496 NA 
HETATM   14  C   UNL     1     -11.757  11.722  68.058  1.00  0.00    -0.363 A  
HETATM   15  H   UNL     1     -11.712  14.196  71.477  1.00  0.00     0.000 HD 
HETATM   16  C   UNL     1     -10.798  15.656  70.240  1.00  0.00    -0.350 A  
HETATM   17  C   UNL     1     -10.415  15.624  68.911  1.00  0.00    -0.220 A  
BRANCH  17  18
HETATM   18  C   UNL     1      -9.719  16.733  68.166  1.00  0.00    -0.247 C  
BRANCH  18  19
HETATM   19  C   UNL     1     -10.405  18.100  68.383  1.00  0.00    -0.356 C  
BRANCH  19  20
HETATM   20  N   UNL     1     -10.607  18.919  67.167  1.00  0.00    -0.444 NA 
HETATM   21  C   UNL     1     -10.466  18.065  65.981  1.00  0.00    -0.313 C  
HETATM   22  C   UNL     1      -9.659  20.030  67.080  1.00  0.00    -0.411 C  
ENDBRANCH  19  20
ENDBRANCH  18  19
ENDBRANCH  17  18
ENDBRANCH   7   8
ENDBRANCH   4   7
ENDBRANCH   2   4
TORSDOF 6
ENDMDL
MODEL       89
REMARK 921   NORMALIZED FREE ENERGY PREDICTED BY IDOCK:   -4.81 KCAL/MOL
REMARK 922        TOTAL FREE ENERGY PREDICTED BY IDOCK:   -6.54 KCAL/MOL
REMARK 923 INTER-LIGAND FREE ENERGY PREDICTED BY IDOCK:   -6.14 KCAL/MOL
REMARK 924 INTRA-LIGAND FREE ENERGY PREDICTED BY IDOCK:   -0.39 KCAL/MOL
REMARK 927      BINDING AFFINITY PREDICTED BY RF-SCORE:    0.00 PKD
ROOT
HETATM    1  C   UNL     1     -11.770  12.594  69.717  1.00  0.00    -0.284 C  
HETATM    2  N   UNL     1     -10.758  13.545  69.242  1.00  0.00    -0.441 N  
HETATM    3  H   UNL     1      -9.830  13.593  69.662  1.00  0.00     0.000 HD 
ENDROOT
BRANCH   2   4
HETATM    4  S   UNL     1     -11.205  14.563  67.962  1.00  0.00    -0.306 S  
HETATM    5  O   UNL     1     -11.880  15.678  68.588  1.00  0.00    -0.372 OA 
HETATM    6  O   UNL     1     -10.001  14.753  67.180  1.00  0.00    -0.233 OA 
BRANCH   4   7
HETATM    7  C   UNL     1     -12.398  13.538  67.080  1.00  0.00    -0.211 C  
BRANCH   7   8
HETATM    8  C   UNL     1     -11.770  12.885  65.874  1.00  0.00    -0.449 A  
HETATM    9  C   UNL     1     -10.858  11.820  66.019  1.00  0.00    -0.343 A  
HETATM   10  C   UNL     1     -10.328  11.172  64.884  1.00  0.00    -0.375 A  
HETATM   11  C   UNL     1     -10.766  11.586  63.628  1.00  0.00    -0.424 A  
HETATM   12  C   UNL     1     -11.676  12.632  63.445  1.00  0.00    -0.571 A  
HETATM   13  N   UNL     1     -10.144  10.786  62.701  1.00  0.00    -0.760 NA 
HETATM   14  C   UNL     1     -12.166  13.274  64.588  1.00  0.00    -0.460 A  
HETATM   15  H   UNL     1     -10.275  10.854  61.692  1.00  0.00     0.000 HD 
HETATM   16  C   UNL     1      -9.324   9.886  63.321  1.00  0.00    -0.178 A  
HETATM   17  C   UNL     1      -9.383  10.112  64.685  1.00  0.00    -0.334 A  
BRANCH  17  18
HETATM   18  C   UNL     1      -8.601   9.370  65.737  1.00  0.00    -0.161 C  
BRANCH  18  19
HETATM   19  C   UNL     1      -7.281   8.792  65.181  1.00  0.00    -0.087 C  
BRANCH  19  20
HETATM   20  N   UNL     1      -6.982   7.392  65.557  1.00  0.00    -0.059 NA 
HETATM   21  C   UNL     1      -6.658   7.335  66.988  1.00  0.00    -0.060 C  
HETATM   22  C   UNL     1      -5.871   6.833  64.786  1.00  0.00    -0.035 C  
ENDBRANCH  19  20
ENDBRANCH  18  19
ENDBRANCH  17  18
ENDBRANCH   7   8
ENDBRANCH   4   7
ENDBRANCH   2   4
TORSDOF 6
ENDMDL
MODEL       90
REMARK 921   NORMALIZED FREE ENERGY PREDICTED BY IDOCK:   -4.80 KCAL/MOL
REMARK 922        TOTAL FREE ENERGY PREDICTED BY IDOCK:   -6.51 KCAL/MOL
REMARK 923 INTER-LIGAND FREE ENERGY PREDICTED BY IDOCK:   -6.13 KCAL/MOL
REMARK 924 INTRA-LIGAND FREE ENERGY PREDICTED BY IDOCK:   -0.38 KCAL/MOL
REMARK 927      BINDING AFFINITY PREDICTED BY RF-SCORE:    0.00 PKD
ROOT
HETATM    1  C   UNL     1      -9.622   4.198  65.701  1.00  0.00    -0.188 C  
HETATM    2  N   UNL     1      -9.369   5.642  65.786  1.00  0.00    -0.308 N  
HETATM    3  H   UNL     1      -8.861   6.140  65.055  1.00  0.00     0.000 HD 
ENDROOT
BRANCH   2   4
HETATM    4  S   UNL     1      -9.964   6.444  67.156  1.00  0.00    -0.171 S  
HETATM    5  O   UNL     1     -11.357   6.702  66.865  1.00  0.00    -0.333 OA 
HETATM    6  O   UNL     1      -9.568   5.628  68.284  1.00  0.00    -0.114 OA 
BRANCH   4   7
HETATM    7  C   UNL     1      -9.031   7.986  67.111  1.00  0.00    -0.135 C  
BRANCH   7   8
HETATM    8  C   UNL     1      -9.653   9.027  68.008  1.00  0.00    -0.166 A  
HETATM    9  C   UNL     1     -10.134  10.243  67.483  1.00  0.00    -0.239 A  
HETATM   10  C   UNL     1     -10.775  11.181  68.319  1.00  0.00    -0.234 A  
HETATM   11  C   UNL     1     -10.953  10.849  69.660  1.00  0.00    -0.252 A  
HETATM   12  C   UNL     1     -10.498   9.649  70.215  1.00  0.00    -0.338 A  
HETATM   13  N   UNL     1     -11.627  11.892  70.246  1.00  0.00    -0.531 NA 
HETATM   14  C   UNL     1      -9.843   8.748  69.367  1.00  0.00    -0.186 A  
HETATM   15  H   UNL     1     -11.903  11.929  71.227  1.00  0.00     0.000 HD 
HETATM   16  C   UNL     1     -11.875  12.875  69.329  1.00  0.00    -0.309 A  
HETATM   17  C   UNL     1     -11.332  12.487  68.117  1.00  0.00    -0.343 A  
BRANCH  17  18
HETATM   18  C   UNL     1     -11.342  13.295  66.846  1.00  0.00    -0.351 C  
BRANCH  18  19
HETATM   19  C   UNL     1     -12.278  12.687  65.778  1.00  0.00    -0.361 C  
BRANCH  19  20
HETATM   20  N   UNL     1     -12.521  13.525  64.583  1.00  0.00    -0.598 NA 
HETATM   21  C   UNL     1     -12.084  12.796  63.385  1.00  0.00    -0.534 C  
HETATM   22  C   UNL     1     -11.822  14.809  64.651  1.00  0.00    -0.436 C  
ENDBRANCH  19  20
ENDBRANCH  18  19
ENDBRANCH  17  18
ENDBRANCH   7   8
ENDBRANCH   4   7
ENDBRANCH   2   4
TORSDOF 6
ENDMDL
MODEL       91
REMARK 921   NORMALIZED FREE ENERGY PREDICTED BY IDOCK:   -4.79 KCAL/MOL
REMARK 922        TOTAL FREE ENERGY PREDICTED BY IDOCK:   -6.50 KCAL/MOL
REMARK 923 INTER-LIGAND FREE ENERGY PREDICTED BY IDOCK:   -6.05 KCAL/MOL
REMARK 924 INTRA-LIGAND FREE ENERGY PREDICTED BY IDOCK:   -0.45 KCAL/MOL
REMARK 927      BINDING AFFINITY PREDICTED BY RF-SCORE:    0.00 PKD
ROOT
HETATM    1  C   UNL     1     -12.129  12.173  63.494  1.00  0.00    -0.550 C  
HETATM    2  N   UNL     1     -11.146  13.175  63.925  1.00  0.00    -0.541 N  
HETATM    3  H   UNL     1     -10.143  13.006  63.851  1.00  0.00     0.000 HD 
ENDROOT
BRANCH   2   4
HETATM    4  S   UNL     1     -11.757  14.626  64.553  1.00  0.00    -0.370 S  
HETATM    5  O   UNL     1     -10.612  15.505  64.646  1.00  0.00    -0.365 OA 
HETATM    6  O   UNL     1     -12.897  14.957  63.724  1.00  0.00    -0.662 OA 
BRANCH   4   7
HETATM    7  C   UNL     1     -12.279  14.120  66.203  1.00  0.00    -0.442 C  
BRANCH   7   8
HETATM    8  C   UNL     1     -11.220  13.284  66.878  1.00  0.00    -0.332 A  
HETATM    9  C   UNL     1      -9.975  13.839  67.233  1.00  0.00    -0.239 A  
HETATM   10  C   UNL     1      -9.017  13.068  67.924  1.00  0.00    -0.200 A  
HETATM   11  C   UNL     1      -9.358  11.764  68.278  1.00  0.00    -0.193 A  
HETATM   12  C   UNL     1     -10.587  11.182  67.951  1.00  0.00    -0.235 A  
HETATM   13  N   UNL     1      -8.290  11.243  68.966  1.00  0.00    -0.355 NA 
HETATM   14  C   UNL     1     -11.507  11.963  67.243  1.00  0.00    -0.385 A  
HETATM   15  H   UNL     1      -8.253  10.301  69.356  1.00  0.00     0.000 HD 
HETATM   16  C   UNL     1      -7.284  12.163  69.055  1.00  0.00    -0.037 A  
HETATM   17  C   UNL     1      -7.682  13.309  68.390  1.00  0.00    -0.138 A  
BRANCH  17  18
HETATM   18  C   UNL     1      -6.858  14.556  68.208  1.00  0.00    -0.113 C  
BRANCH  18  19
HETATM   19  C   UNL     1      -7.361  15.720  69.091  1.00  0.00    -0.194 C  
BRANCH  19  20
HETATM   20  N   UNL     1      -7.688  16.974  68.379  1.00  0.00    -0.219 NA 
HETATM   21  C   UNL     1      -7.486  16.778  66.938  1.00  0.00    -0.222 C  
HETATM   22  C   UNL     1      -6.873  18.102  68.833  1.00  0.00    -0.258 C  
ENDBRANCH  19  20
ENDBRANCH  18  19
ENDBRANCH  17  18
ENDBRANCH   7   8
ENDBRANCH   4   7
ENDBRANCH   2   4
TORSDOF 6
ENDMDL
MODEL       92
REMARK 921   NORMALIZED FREE ENERGY PREDICTED BY IDOCK:   -4.77 KCAL/MOL
REMARK 922        TOTAL FREE ENERGY PREDICTED BY IDOCK:   -6.48 KCAL/MOL
REMARK 923 INTER-LIGAND FREE ENERGY PREDICTED BY IDOCK:   -6.27 KCAL/MOL
REMARK 924 INTRA-LIGAND FREE ENERGY PREDICTED BY IDOCK:   -0.21 KCAL/MOL
REMARK 927      BINDING AFFINITY PREDICTED BY RF-SCORE:    0.00 PKD
ROOT
HETATM    1  C   UNL     1      -7.342   8.836  63.644  1.00  0.00    -0.103 C  
HETATM    2  N   UNL     1      -8.798   8.957  63.797  1.00  0.00    -0.431 N  
HETATM    3  H   UNL     1      -9.442   8.406  63.231  1.00  0.00     0.000 HD 
ENDROOT
BRANCH   2   4
HETATM    4  S   UNL     1      -9.357  10.055  64.961  1.00  0.00    -0.277 S  
HETATM    5  O   UNL     1      -8.169  10.717  65.453  1.00  0.00    -0.160 OA 
HETATM    6  O   UNL     1     -10.420  10.796  64.316  1.00  0.00    -0.367 OA 
BRANCH   4   7
HETATM    7  C   UNL     1     -10.011   8.948  66.225  1.00  0.00    -0.266 C  
BRANCH   7   8
HETATM    8  C   UNL     1     -10.413   9.709  67.463  1.00  0.00    -0.321 A  
HETATM    9  C   UNL     1     -10.804  11.061  67.388  1.00  0.00    -0.327 A  
HETATM   10  C   UNL     1     -11.242  11.745  68.541  1.00  0.00    -0.306 A  
HETATM   11  C   UNL     1     -11.317  11.033  69.737  1.00  0.00    -0.292 A  
HETATM   12  C   UNL     1     -10.947   9.689  69.847  1.00  0.00    -0.281 A  
HETATM   13  N   UNL     1     -11.802  11.896  70.689  1.00  0.00    -0.471 NA 
HETATM   14  C   UNL     1     -10.492   9.043  68.693  1.00  0.00    -0.229 A  
HETATM   15  H   UNL     1     -11.968  11.652  71.665  1.00  0.00     0.000 HD 
HETATM   16  C   UNL     1     -12.030  13.128  70.144  1.00  0.00    -0.310 A  
HETATM   17  C   UNL     1     -11.664  13.089  68.810  1.00  0.00    -0.363 A  
BRANCH  17  18
HETATM   18  C   UNL     1     -11.713  14.245  67.846  1.00  0.00    -0.394 C  
BRANCH  18  19
HETATM   19  C   UNL     1     -12.468  13.888  66.547  1.00  0.00    -0.321 C  
BRANCH  19  20
HETATM   20  N   UNL     1     -11.662  13.910  65.307  1.00  0.00    -0.327 NA 
HETATM   21  C   UNL     1     -10.296  14.345  65.626  1.00  0.00    -0.342 C  
HETATM   22  C   UNL     1     -12.228  14.798  64.290  1.00  0.00    -0.379 C  
ENDBRANCH  19  20
ENDBRANCH  18  19
ENDBRANCH  17  18
ENDBRANCH   7   8
ENDBRANCH   4   7
ENDBRANCH   2   4
TORSDOF 6
ENDMDL
MODEL       93
REMARK 921   NORMALIZED FREE ENERGY PREDICTED BY IDOCK:   -4.77 KCAL/MOL
REMARK 922        TOTAL FREE ENERGY PREDICTED BY IDOCK:   -6.48 KCAL/MOL
REMARK 923 INTER-LIGAND FREE ENERGY PREDICTED BY IDOCK:   -6.32 KCAL/MOL
REMARK 924 INTRA-LIGAND FREE ENERGY PREDICTED BY IDOCK:   -0.16 KCAL/MOL
REMARK 927      BINDING AFFINITY PREDICTED BY RF-SCORE:    0.00 PKD
ROOT
HETATM    1  C   UNL     1     -12.021  15.691  70.766  1.00  0.00    -0.398 C  
HETATM    2  N   UNL     1     -12.501  15.479  69.395  1.00  0.00    -0.597 N  
HETATM    3  H   UNL     1     -13.490  15.554  69.157  1.00  0.00     0.000 HD 
ENDROOT
BRANCH   2   4
HETATM    4  S   UNL     1     -11.334  15.103  68.225  1.00  0.00    -0.338 S  
HETATM    5  O   UNL     1     -11.023  16.364  67.587  1.00  0.00    -0.308 OA 
HETATM    6  O   UNL     1     -10.319  14.340  68.920  1.00  0.00    -0.235 OA 
BRANCH   4   7
HETATM    7  C   UNL     1     -12.272  14.058  67.094  1.00  0.00    -0.321 C  
BRANCH   7   8
HETATM    8  C   UNL     1     -11.582  12.735  66.875  1.00  0.00    -0.428 A  
HETATM    9  C   UNL     1     -11.571  11.747  67.880  1.00  0.00    -0.377 A  
HETATM   10  C   UNL     1     -10.982  10.488  67.641  1.00  0.00    -0.375 A  
HETATM   11  C   UNL     1     -10.455  10.241  66.375  1.00  0.00    -0.163 A  
HETATM   12  C   UNL     1     -10.456  11.192  65.350  1.00  0.00    -0.321 A  
HETATM   13  N   UNL     1      -9.982   8.951  66.381  1.00  0.00    -0.283 NA 
HETATM   14  C   UNL     1     -11.025  12.441  65.624  1.00  0.00    -0.321 A  
HETATM   15  H   UNL     1      -9.543   8.489  65.585  1.00  0.00     0.000 HD 
HETATM   16  C   UNL     1     -10.183   8.375  67.604  1.00  0.00    -0.236 A  
HETATM   17  C   UNL     1     -10.776   9.310  68.433  1.00  0.00    -0.192 A  
BRANCH  17  18
HETATM   18  C   UNL     1     -11.133   9.106  69.882  1.00  0.00    -0.175 C  
BRANCH  18  19
HETATM   19  C   UNL     1     -11.155   7.610  70.270  1.00  0.00    -0.244 C  
BRANCH  19  20
HETATM   20  N   UNL     1     -11.874   7.280  71.520  1.00  0.00    -0.288 NA 
HETATM   21  C   UNL     1     -13.303   7.573  71.346  1.00  0.00    -0.311 C  
HETATM   22  C   UNL     1     -11.363   8.025  72.671  1.00  0.00    -0.405 C  
ENDBRANCH  19  20
ENDBRANCH  18  19
ENDBRANCH  17  18
ENDBRANCH   7   8
ENDBRANCH   4   7
ENDBRANCH   2   4
TORSDOF 6
ENDMDL
MODEL       94
REMARK 921   NORMALIZED FREE ENERGY PREDICTED BY IDOCK:   -4.74 KCAL/MOL
REMARK 922        TOTAL FREE ENERGY PREDICTED BY IDOCK:   -6.43 KCAL/MOL
REMARK 923 INTER-LIGAND FREE ENERGY PREDICTED BY IDOCK:   -5.98 KCAL/MOL
REMARK 924 INTRA-LIGAND FREE ENERGY PREDICTED BY IDOCK:   -0.45 KCAL/MOL
REMARK 927      BINDING AFFINITY PREDICTED BY RF-SCORE:    0.00 PKD
ROOT
HETATM    1  C   UNL     1      -7.574   8.894  67.239  1.00  0.00    -0.089 C  
HETATM    2  N   UNL     1      -8.010   9.492  68.507  1.00  0.00    -0.092 N  
HETATM    3  H   UNL     1      -7.954  10.497  68.671  1.00  0.00     0.000 HD 
ENDROOT
BRANCH   2   4
HETATM    4  S   UNL     1      -8.611   8.433  69.686  1.00  0.00    -0.133 S  
HETATM    5  O   UNL     1      -8.003   7.155  69.388  1.00  0.00    -0.120 OA 
HETATM    6  O   UNL     1      -8.388   9.097  70.953  1.00  0.00    -0.178 OA 
BRANCH   4   7
HETATM    7  C   UNL     1     -10.367   8.389  69.277  1.00  0.00    -0.214 C  
BRANCH   7   8
HETATM    8  C   UNL     1     -11.153   9.340  70.143  1.00  0.00    -0.260 A  
HETATM    9  C   UNL     1     -11.228  10.712  69.830  1.00  0.00    -0.378 A  
HETATM   10  C   UNL     1     -12.020  11.582  70.608  1.00  0.00    -0.391 A  
HETATM   11  C   UNL     1     -12.755  11.037  71.658  1.00  0.00    -0.378 A  
HETATM   12  C   UNL     1     -12.714   9.679  71.992  1.00  0.00    -0.470 A  
HETATM   13  N   UNL     1     -13.466  12.065  72.228  1.00  0.00    -0.551 NA 
HETATM   14  C   UNL     1     -11.900   8.844  71.219  1.00  0.00    -0.371 A  
HETATM   15  H   UNL     1     -14.100  11.964  73.020  1.00  0.00     0.000 HD 
HETATM   16  C   UNL     1     -13.203  13.241  71.583  1.00  0.00    -0.359 A  
HETATM   17  C   UNL     1     -12.280  12.993  70.583  1.00  0.00    -0.390 A  
BRANCH  17  18
HETATM   18  C   UNL     1     -11.683  14.020  69.658  1.00  0.00    -0.368 C  
BRANCH  18  19
HETATM   19  C   UNL     1     -12.053  13.757  68.181  1.00  0.00    -0.281 C  
BRANCH  19  20
HETATM   20  N   UNL     1     -11.187  14.410  67.175  1.00  0.00    -0.316 NA 
HETATM   21  C   UNL     1     -10.822  15.751  67.649  1.00  0.00    -0.310 C  
HETATM   22  C   UNL     1     -11.836  14.519  65.867  1.00  0.00    -0.331 C  
ENDBRANCH  19  20
ENDBRANCH  18  19
ENDBRANCH  17  18
ENDBRANCH   7   8
ENDBRANCH   4   7
ENDBRANCH   2   4
TORSDOF 6
ENDMDL
MODEL       95
REMARK 921   NORMALIZED FREE ENERGY PREDICTED BY IDOCK:   -4.73 KCAL/MOL
REMARK 922        TOTAL FREE ENERGY PREDICTED BY IDOCK:   -6.42 KCAL/MOL
REMARK 923 INTER-LIGAND FREE ENERGY PREDICTED BY IDOCK:   -6.14 KCAL/MOL
REMARK 924 INTRA-LIGAND FREE ENERGY PREDICTED BY IDOCK:   -0.29 KCAL/MOL
REMARK 927      BINDING AFFINITY PREDICTED BY RF-SCORE:    0.00 PKD
ROOT
HETATM    1  C   UNL     1     -12.912  16.244  73.587  1.00  0.00    -0.416 C  
HETATM    2  N   UNL     1     -12.182  15.107  73.013  1.00  0.00    -0.381 N  
HETATM    3  H   UNL     1     -11.698  14.430  73.602  1.00  0.00     0.000 HD 
ENDROOT
BRANCH   2   4
HETATM    4  S   UNL     1     -12.183  14.970  71.323  1.00  0.00    -0.353 S  
HETATM    5  O   UNL     1     -13.304  15.773  70.883  1.00  0.00    -0.576 OA 
HETATM    6  O   UNL     1     -10.830  15.275  70.909  1.00  0.00    -0.301 OA 
BRANCH   4   7
HETATM    7  C   UNL     1     -12.554  13.220  71.098  1.00  0.00    -0.325 C  
BRANCH   7   8
HETATM    8  C   UNL     1     -11.985  12.705  69.800  1.00  0.00    -0.365 A  
HETATM    9  C   UNL     1     -11.409  11.421  69.720  1.00  0.00    -0.332 A  
HETATM   10  C   UNL     1     -10.940  10.922  68.487  1.00  0.00    -0.278 A  
HETATM   11  C   UNL     1     -11.103  11.715  67.354  1.00  0.00    -0.281 A  
HETATM   12  C   UNL     1     -11.678  12.990  67.393  1.00  0.00    -0.427 A  
HETATM   13  N   UNL     1     -10.610  11.002  66.289  1.00  0.00    -0.254 NA 
HETATM   14  C   UNL     1     -12.111  13.470  68.633  1.00  0.00    -0.303 A  
HETATM   15  H   UNL     1     -10.600  11.330  65.323  1.00  0.00     0.000 HD 
HETATM   16  C   UNL     1     -10.134   9.790  66.706  1.00  0.00    -0.231 A  
HETATM   17  C   UNL     1     -10.291   9.710  68.078  1.00  0.00    -0.262 A  
BRANCH  17  18
HETATM   18  C   UNL     1      -9.861   8.560  68.950  1.00  0.00    -0.181 C  
BRANCH  18  19
HETATM   19  C   UNL     1      -9.131   7.461  68.145  1.00  0.00    -0.131 C  
BRANCH  19  20
HETATM   20  N   UNL     1      -9.849   6.175  68.015  1.00  0.00    -0.123 NA 
HETATM   21  C   UNL     1     -10.561   6.147  66.730  1.00  0.00    -0.283 C  
HETATM   22  C   UNL     1     -10.804   5.956  69.102  1.00  0.00    -0.336 C  
ENDBRANCH  19  20
ENDBRANCH  18  19
ENDBRANCH  17  18
ENDBRANCH   7   8
ENDBRANCH   4   7
ENDBRANCH   2   4
TORSDOF 6
ENDMDL
MODEL       96
REMARK 921   NORMALIZED FREE ENERGY PREDICTED BY IDOCK:   -4.73 KCAL/MOL
REMARK 922        TOTAL FREE ENERGY PREDICTED BY IDOCK:   -6.42 KCAL/MOL
REMARK 923 INTER-LIGAND FREE ENERGY PREDICTED BY IDOCK:   -5.91 KCAL/MOL
REMARK 924 INTRA-LIGAND FREE ENERGY PREDICTED BY IDOCK:   -0.51 KCAL/MOL
REMARK 927      BINDING AFFINITY PREDICTED BY RF-SCORE:    0.00 PKD
ROOT
HETATM    1  C   UNL     1      -9.708   7.686  66.903  1.00  0.00    -0.213 C  
HETATM    2  N   UNL     1      -8.622   8.511  66.356  1.00  0.00    -0.119 N  
HETATM    3  H   UNL     1      -7.840   8.098  65.849  1.00  0.00     0.000 HD 
ENDROOT
BRANCH   2   4
HETATM    4  S   UNL     1      -8.731  10.184  66.608  1.00  0.00    -0.126 S  
HETATM    5  O   UNL     1      -8.359  10.380  67.992  1.00  0.00    -0.116 OA 
HETATM    6  O   UNL     1      -7.974  10.787  65.531  1.00  0.00    -0.145 OA 
BRANCH   4   7
HETATM    7  C   UNL     1     -10.498  10.471  66.400  1.00  0.00    -0.192 C  
BRANCH   7   8
HETATM    8  C   UNL     1     -11.041  11.353  67.496  1.00  0.00    -0.339 A  
HETATM    9  C   UNL     1     -11.588  10.798  68.670  1.00  0.00    -0.342 A  
HETATM   10  C   UNL     1     -12.031  11.632  69.718  1.00  0.00    -0.402 A  
HETATM   11  C   UNL     1     -11.870  13.008  69.573  1.00  0.00    -0.323 A  
HETATM   12  C   UNL     1     -11.324  13.595  68.427  1.00  0.00    -0.329 A  
HETATM   13  N   UNL     1     -12.335  13.591  70.727  1.00  0.00    -0.362 NA 
HETATM   14  C   UNL     1     -10.916  12.745  67.393  1.00  0.00    -0.285 A  
HETATM   15  H   UNL     1     -12.340  14.594  70.911  1.00  0.00     0.000 HD 
HETATM   16  C   UNL     1     -12.790  12.637  71.593  1.00  0.00    -0.264 A  
HETATM   17  C   UNL     1     -12.648  11.399  70.991  1.00  0.00    -0.487 A  
BRANCH  17  18
HETATM   18  C   UNL     1     -13.065  10.078  71.582  1.00  0.00    -0.547 C  
BRANCH  18  19
HETATM   19  C   UNL     1     -11.852   9.240  72.047  1.00  0.00    -0.300 C  
BRANCH  19  20
HETATM   20  N   UNL     1     -12.118   7.807  72.299  1.00  0.00    -0.306 NA 
HETATM   21  C   UNL     1     -11.027   7.249  73.108  1.00  0.00    -0.340 C  
HETATM   22  C   UNL     1     -12.247   7.038  71.061  1.00  0.00    -0.374 C  
ENDBRANCH  19  20
ENDBRANCH  18  19
ENDBRANCH  17  18
ENDBRANCH   7   8
ENDBRANCH   4   7
ENDBRANCH   2   4
TORSDOF 6
ENDMDL
MODEL       97
REMARK 921   NORMALIZED FREE ENERGY PREDICTED BY IDOCK:   -4.73 KCAL/MOL
REMARK 922        TOTAL FREE ENERGY PREDICTED BY IDOCK:   -6.42 KCAL/MOL
REMARK 923 INTER-LIGAND FREE ENERGY PREDICTED BY IDOCK:   -5.83 KCAL/MOL
REMARK 924 INTRA-LIGAND FREE ENERGY PREDICTED BY IDOCK:   -0.58 KCAL/MOL
REMARK 927      BINDING AFFINITY PREDICTED BY RF-SCORE:    0.00 PKD
ROOT
HETATM    1  C   UNL     1     -11.896  14.278  67.421  1.00  0.00    -0.409 C  
HETATM    2  N   UNL     1     -12.001  12.854  67.079  1.00  0.00    -0.369 N  
HETATM    3  H   UNL     1     -12.532  12.537  66.268  1.00  0.00     0.000 HD 
ENDROOT
BRANCH   2   4
HETATM    4  S   UNL     1     -11.199  11.761  68.097  1.00  0.00    -0.286 S  
HETATM    5  O   UNL     1     -11.503  10.454  67.556  1.00  0.00    -0.386 OA 
HETATM    6  O   UNL     1      -9.837  12.242  68.184  1.00  0.00    -0.201 OA 
BRANCH   4   7
HETATM    7  C   UNL     1     -12.074  12.000  69.654  1.00  0.00    -0.230 C  
BRANCH   7   8
HETATM    8  C   UNL     1     -12.114  10.726  70.459  1.00  0.00    -0.459 A  
HETATM    9  C   UNL     1     -10.929  10.136  70.943  1.00  0.00    -0.241 A  
HETATM   10  C   UNL     1     -10.982   8.981  71.752  1.00  0.00    -0.443 A  
HETATM   11  C   UNL     1     -12.235   8.474  72.089  1.00  0.00    -0.382 A  
HETATM   12  C   UNL     1     -13.432   9.037  71.635  1.00  0.00    -0.442 A  
HETATM   13  N   UNL     1     -12.024   7.388  72.903  1.00  0.00    -0.549 NA 
HETATM   14  C   UNL     1     -13.349  10.166  70.814  1.00  0.00    -0.189 A  
HETATM   15  H   UNL     1     -12.761   6.814  73.311  1.00  0.00     0.000 HD 
HETATM   16  C   UNL     1     -10.685   7.184  73.088  1.00  0.00    -0.346 A  
HETATM   17  C   UNL     1      -9.995   8.138  72.361  1.00  0.00    -0.345 A  
BRANCH  17  18
HETATM   18  C   UNL     1      -8.497   8.251  72.251  1.00  0.00    -0.248 C  
BRANCH  18  19
HETATM   19  C   UNL     1      -7.992   7.934  70.826  1.00  0.00    -0.100 C  
BRANCH  19  20
HETATM   20  N   UNL     1      -6.976   8.861  70.281  1.00  0.00    -0.042 NA 
HETATM   21  C   UNL     1      -6.212   9.446  71.391  1.00  0.00    -0.042 C  
HETATM   22  C   UNL     1      -7.571   9.934  69.484  1.00  0.00    -0.125 C  
ENDBRANCH  19  20
ENDBRANCH  18  19
ENDBRANCH  17  18
ENDBRANCH   7   8
ENDBRANCH   4   7
ENDBRANCH   2   4
TORSDOF 6
ENDMDL
MODEL       98
REMARK 921   NORMALIZED FREE ENERGY PREDICTED BY IDOCK:   -4.70 KCAL/MOL
REMARK 922        TOTAL FREE ENERGY PREDICTED BY IDOCK:   -6.38 KCAL/MOL
REMARK 923 INTER-LIGAND FREE ENERGY PREDICTED BY IDOCK:   -6.07 KCAL/MOL
REMARK 924 INTRA-LIGAND FREE ENERGY PREDICTED BY IDOCK:   -0.31 KCAL/MOL
REMARK 927      BINDING AFFINITY PREDICTED BY RF-SCORE:    0.00 PKD
ROOT
HETATM    1  C   UNL     1      -8.591  15.839  69.263  1.00  0.00    -0.259 C  
HETATM    2  N   UNL     1      -9.701  15.020  69.766  1.00  0.00    -0.455 N  
HETATM    3  H   UNL     1      -9.559  14.060  70.078  1.00  0.00     0.000 HD 
ENDROOT
BRANCH   2   4
HETATM    4  S   UNL     1     -11.232  15.747  69.804  1.00  0.00    -0.363 S  
HETATM    5  O   UNL     1     -11.338  16.327  71.125  1.00  0.00    -0.381 OA 
HETATM    6  O   UNL     1     -11.302  16.566  68.613  1.00  0.00    -0.344 OA 
BRANCH   4   7
HETATM    7  C   UNL     1     -12.320  14.315  69.672  1.00  0.00    -0.266 C  
BRANCH   7   8
HETATM    8  C   UNL     1     -11.776  13.305  68.694  1.00  0.00    -0.376 A  
HETATM    9  C   UNL     1     -11.299  12.053  69.133  1.00  0.00    -0.338 A  
HETATM   10  C   UNL     1     -10.855  11.089  68.205  1.00  0.00    -0.274 A  
HETATM   11  C   UNL     1     -10.943  11.397  66.849  1.00  0.00    -0.299 A  
HETATM   12  C   UNL     1     -11.419  12.623  66.375  1.00  0.00    -0.409 A  
HETATM   13  N   UNL     1     -10.493  10.298  66.158  1.00  0.00    -0.176 NA 
HETATM   14  C   UNL     1     -11.829  13.570  67.320  1.00  0.00    -0.427 A  
HETATM   15  H   UNL     1     -10.446  10.229  65.141  1.00  0.00     0.000 HD 
HETATM   16  C   UNL     1     -10.117   9.311  67.024  1.00  0.00    -0.247 A  
HETATM   17  C   UNL     1     -10.296   9.773  68.316  1.00  0.00    -0.231 A  
BRANCH  17  18
HETATM   18  C   UNL     1      -9.965   9.020  69.577  1.00  0.00    -0.193 C  
BRANCH  18  19
HETATM   19  C   UNL     1     -11.234   8.561  70.330  1.00  0.00    -0.211 C  
BRANCH  19  20
HETATM   20  N   UNL     1     -11.270   7.135  70.722  1.00  0.00    -0.268 NA 
HETATM   21  C   UNL     1     -12.383   6.919  71.656  1.00  0.00    -0.371 C  
HETATM   22  C   UNL     1     -10.021   6.697  71.346  1.00  0.00    -0.183 C  
ENDBRANCH  19  20
ENDBRANCH  18  19
ENDBRANCH  17  18
ENDBRANCH   7   8
ENDBRANCH   4   7
ENDBRANCH   2   4
TORSDOF 6
ENDMDL
MODEL       99
REMARK 921   NORMALIZED FREE ENERGY PREDICTED BY IDOCK:   -4.70 KCAL/MOL
REMARK 922        TOTAL FREE ENERGY PREDICTED BY IDOCK:   -6.37 KCAL/MOL
REMARK 923 INTER-LIGAND FREE ENERGY PREDICTED BY IDOCK:   -6.10 KCAL/MOL
REMARK 924 INTRA-LIGAND FREE ENERGY PREDICTED BY IDOCK:   -0.27 KCAL/MOL
REMARK 927      BINDING AFFINITY PREDICTED BY RF-SCORE:    0.00 PKD
ROOT
HETATM    1  C   UNL     1     -12.962  14.145  65.211  1.00  0.00    -0.237 C  
HETATM    2  N   UNL     1     -12.645  12.717  65.078  1.00  0.00    -0.586 N  
HETATM    3  H   UNL     1     -13.332  11.995  65.293  1.00  0.00     0.000 HD 
ENDROOT
BRANCH   2   4
HETATM    4  S   UNL     1     -11.083  12.325  64.551  1.00  0.00    -0.342 S  
HETATM    5  O   UNL     1     -11.279  11.415  63.444  1.00  0.00    -0.357 OA 
HETATM    6  O   UNL     1     -10.404  13.592  64.374  1.00  0.00    -0.433 OA 
BRANCH   4   7
HETATM    7  C   UNL     1     -10.430  11.431  65.974  1.00  0.00    -0.255 C  
BRANCH   7   8
HETATM    8  C   UNL     1     -10.723  12.162  67.259  1.00  0.00    -0.264 A  
HETATM    9  C   UNL     1     -10.173  13.434  67.513  1.00  0.00    -0.226 A  
HETATM   10  C   UNL     1     -10.507  14.139  68.688  1.00  0.00    -0.250 A  
HETATM   11  C   UNL     1     -11.426  13.559  69.561  1.00  0.00    -0.255 A  
HETATM   12  C   UNL     1     -11.999  12.303  69.339  1.00  0.00    -0.318 A  
HETATM   13  N   UNL     1     -11.612  14.444  70.594  1.00  0.00    -0.464 NA 
HETATM   14  C   UNL     1     -11.630  11.616  68.177  1.00  0.00    -0.389 A  
HETATM   15  H   UNL     1     -12.237  14.291  71.385  1.00  0.00     0.000 HD 
HETATM   16  C   UNL     1     -10.842  15.559  70.413  1.00  0.00    -0.335 A  
HETATM   17  C   UNL     1     -10.111  15.397  69.250  1.00  0.00    -0.253 A  
BRANCH  17  18
HETATM   18  C   UNL     1      -9.103  16.372  68.698  1.00  0.00    -0.233 C  
BRANCH  18  19
HETATM   19  C   UNL     1      -7.672  16.076  69.201  1.00  0.00    -0.231 C  
BRANCH  19  20
HETATM   20  N   UNL     1      -6.777  17.248  69.321  1.00  0.00    -0.245 NA 
HETATM   21  C   UNL     1      -7.423  18.414  68.704  1.00  0.00    -0.296 C  
HETATM   22  C   UNL     1      -5.477  17.023  68.690  1.00  0.00    -0.133 C  
ENDBRANCH  19  20
ENDBRANCH  18  19
ENDBRANCH  17  18
ENDBRANCH   7   8
ENDBRANCH   4   7
ENDBRANCH   2   4
TORSDOF 6
ENDMDL
MODEL      100
REMARK 921   NORMALIZED FREE ENERGY PREDICTED BY IDOCK:   -4.68 KCAL/MOL
REMARK 922        TOTAL FREE ENERGY PREDICTED BY IDOCK:   -6.36 KCAL/MOL
REMARK 923 INTER-LIGAND FREE ENERGY PREDICTED BY IDOCK:   -5.91 KCAL/MOL
REMARK 924 INTRA-LIGAND FREE ENERGY PREDICTED BY IDOCK:   -0.45 KCAL/MOL
REMARK 927      BINDING AFFINITY PREDICTED BY RF-SCORE:    0.00 PKD
ROOT
HETATM    1  C   UNL     1      -7.595  20.772  67.306  1.00  0.00    -0.305 C  
HETATM    2  N   UNL     1      -6.855  19.506  67.393  1.00  0.00    -0.199 N  
HETATM    3  H   UNL     1      -5.924  19.458  67.806  1.00  0.00     0.000 HD 
ENDROOT
BRANCH   2   4
HETATM    4  S   UNL     1      -7.622  18.127  66.773  1.00  0.00    -0.234 S  
HETATM    5  O   UNL     1      -7.304  18.124  65.362  1.00  0.00    -0.520 OA 
HETATM    6  O   UNL     1      -7.220  17.039  67.638  1.00  0.00    -0.147 OA 
BRANCH   4   7
HETATM    7  C   UNL     1      -9.361  18.537  67.010  1.00  0.00    -0.288 C  
BRANCH   7   8
HETATM    8  C   UNL     1     -10.118  17.380  67.613  1.00  0.00    -0.327 A  
HETATM    9  C   UNL     1     -10.400  16.225  66.856  1.00  0.00    -0.299 A  
HETATM   10  C   UNL     1     -11.049  15.122  67.448  1.00  0.00    -0.325 A  
HETATM   11  C   UNL     1     -11.359  15.194  68.805  1.00  0.00    -0.300 A  
HETATM   12  C   UNL     1     -11.086  16.319  69.589  1.00  0.00    -0.333 A  
HETATM   13  N   UNL     1     -11.940  13.998  69.148  1.00  0.00    -0.348 NA 
HETATM   14  C   UNL     1     -10.465  17.408  68.970  1.00  0.00    -0.285 A  
HETATM   15  H   UNL     1     -12.269  13.758  70.083  1.00  0.00     0.000 HD 
HETATM   16  C   UNL     1     -12.017  13.175  68.060  1.00  0.00    -0.304 A  
HETATM   17  C   UNL     1     -11.500  13.848  66.967  1.00  0.00    -0.367 A  
BRANCH  17  18
HETATM   18  C   UNL     1     -11.431  13.322  65.558  1.00  0.00    -0.335 C  
BRANCH  18  19
HETATM   19  C   UNL     1     -11.490  11.779  65.509  1.00  0.00    -0.179 C  
BRANCH  19  20
HETATM   20  N   UNL     1     -10.317  11.109  64.906  1.00  0.00    -0.296 NA 
HETATM   21  C   UNL     1      -9.109  11.486  65.652  1.00  0.00    -0.126 C  
HETATM   22  C   UNL     1     -10.142  11.453  63.495  1.00  0.00    -0.395 C  
ENDBRANCH  19  20
ENDBRANCH  18  19
ENDBRANCH  17  18
ENDBRANCH   7   8
ENDBRANCH   4   7
ENDBRANCH   2   4
TORSDOF 6
ENDMDL
MODEL      101
REMARK 921   NORMALIZED FREE ENERGY PREDICTED BY IDOCK:   -4.68 KCAL/MOL
REMARK 922        TOTAL FREE ENERGY PREDICTED BY IDOCK:   -6.35 KCAL/MOL
REMARK 923 INTER-LIGAND FREE ENERGY PREDICTED BY IDOCK:   -6.85 KCAL/MOL
REMARK 924 INTRA-LIGAND FREE ENERGY PREDICTED BY IDOCK:    0.50 KCAL/MOL
REMARK 927      BINDING AFFINITY PREDICTED BY RF-SCORE:    0.00 PKD
ROOT
HETATM    1  C   UNL     1      -8.850   8.858  71.498  1.00  0.00    -0.183 C  
HETATM    2  N   UNL     1      -9.432   9.775  70.509  1.00  0.00    -0.354 N  
HETATM    3  H   UNL     1      -9.029  10.694  70.330  1.00  0.00     0.000 HD 
ENDROOT
BRANCH   2   4
HETATM    4  S   UNL     1     -10.806   9.232  69.678  1.00  0.00    -0.176 S  
HETATM    5  O   UNL     1     -10.898  10.082  68.511  1.00  0.00    -0.224 OA 
HETATM    6  O   UNL     1     -10.644   7.799  69.556  1.00  0.00    -0.227 OA 
BRANCH   4   7
HETATM    7  C   UNL     1     -12.122   9.640  70.841  1.00  0.00    -0.300 C  
BRANCH   7   8
HETATM    8  C   UNL     1     -12.308  11.132  70.953  1.00  0.00    -0.500 A  
HETATM    9  C   UNL     1     -11.729  12.008  70.013  1.00  0.00    -0.346 A  
HETATM   10  C   UNL     1     -11.964  13.397  70.087  1.00  0.00    -0.396 A  
HETATM   11  C   UNL     1     -12.817  13.864  71.085  1.00  0.00    -0.351 A  
HETATM   12  C   UNL     1     -13.417  13.025  72.029  1.00  0.00    -0.584 A  
HETATM   13  N   UNL     1     -12.915  15.225  70.925  1.00  0.00    -0.462 NA 
HETATM   14  C   UNL     1     -13.145  11.655  71.947  1.00  0.00    -0.490 A  
HETATM   15  H   UNL     1     -13.477  15.841  71.512  1.00  0.00     0.000 HD 
HETATM   16  C   UNL     1     -12.152  15.637  69.869  1.00  0.00    -0.341 A  
HETATM   17  C   UNL     1     -11.514  14.532  69.335  1.00  0.00    -0.323 A  
BRANCH  17  18
HETATM   18  C   UNL     1     -10.545  14.543  68.182  1.00  0.00    -0.238 C  
BRANCH  18  19
HETATM   19  C   UNL     1     -11.226  14.936  66.852  1.00  0.00    -0.343 C  
BRANCH  19  20
HETATM   20  N   UNL     1     -11.195  13.911  65.786  1.00  0.00    -0.300 NA 
HETATM   21  C   UNL     1     -11.420  14.559  64.487  1.00  0.00    -0.343 C  
HETATM   22  C   UNL     1     -12.199  12.866  65.987  1.00  0.00    -0.366 C  
ENDBRANCH  19  20
ENDBRANCH  18  19
ENDBRANCH  17  18
ENDBRANCH   7   8
ENDBRANCH   4   7
ENDBRANCH   2   4
TORSDOF 6
ENDMDL
MODEL      102
REMARK 921   NORMALIZED FREE ENERGY PREDICTED BY IDOCK:   -4.67 KCAL/MOL
REMARK 922        TOTAL FREE ENERGY PREDICTED BY IDOCK:   -6.34 KCAL/MOL
REMARK 923 INTER-LIGAND FREE ENERGY PREDICTED BY IDOCK:   -6.15 KCAL/MOL
REMARK 924 INTRA-LIGAND FREE ENERGY PREDICTED BY IDOCK:   -0.19 KCAL/MOL
REMARK 927      BINDING AFFINITY PREDICTED BY RF-SCORE:    0.00 PKD
ROOT
HETATM    1  C   UNL     1      -6.970  10.612  66.228  1.00  0.00    -0.133 C  
HETATM    2  N   UNL     1      -8.308  10.944  66.731  1.00  0.00    -0.133 N  
HETATM    3  H   UNL     1      -9.147  10.760  66.181  1.00  0.00     0.000 HD 
ENDROOT
BRANCH   2   4
HETATM    4  S   UNL     1      -8.395  11.648  68.271  1.00  0.00    -0.162 S  
HETATM    5  O   UNL     1      -7.950  10.614  69.180  1.00  0.00    -0.129 OA 
HETATM    6  O   UNL     1      -7.692  12.908  68.160  1.00  0.00    -0.117 OA 
BRANCH   4   7
HETATM    7  C   UNL     1     -10.169  11.907  68.455  1.00  0.00    -0.215 C  
BRANCH   7   8
HETATM    8  C   UNL     1     -10.725  12.714  67.309  1.00  0.00    -0.259 A  
HETATM    9  C   UNL     1     -10.312  14.043  67.090  1.00  0.00    -0.265 A  
HETATM   10  C   UNL     1     -10.787  14.767  65.976  1.00  0.00    -0.318 A  
HETATM   11  C   UNL     1     -11.636  14.115  65.085  1.00  0.00    -0.344 A  
HETATM   12  C   UNL     1     -12.061  12.795  65.265  1.00  0.00    -0.505 A  
HETATM   13  N   UNL     1     -11.923  15.005  64.079  1.00  0.00    -0.890 NA 
HETATM   14  C   UNL     1     -11.594  12.109  66.391  1.00  0.00    -0.429 A  
HETATM   15  H   UNL     1     -12.522  14.805  63.278  1.00  0.00     0.000 HD 
HETATM   16  C   UNL     1     -11.294  16.197  64.304  1.00  0.00    -0.088 A  
HETATM   17  C   UNL     1     -10.597  16.104  65.495  1.00  0.00    -0.394 A  
BRANCH  17  18
HETATM   18  C   UNL     1      -9.798  17.207  66.139  1.00  0.00    -0.280 C  
BRANCH  18  19
HETATM   19  C   UNL     1     -10.610  17.964  67.212  1.00  0.00    -0.332 C  
BRANCH  19  20
HETATM   20  N   UNL     1     -10.153  19.338  67.515  1.00  0.00    -0.365 NA 
HETATM   21  C   UNL     1      -9.117  19.726  66.549  1.00  0.00    -0.376 C  
HETATM   22  C   UNL     1      -9.621  19.463  68.873  1.00  0.00    -0.415 C  
ENDBRANCH  19  20
ENDBRANCH  18  19
ENDBRANCH  17  18
ENDBRANCH   7   8
ENDBRANCH   4   7
ENDBRANCH   2   4
TORSDOF 6
ENDMDL
MODEL      103
REMARK 921   NORMALIZED FREE ENERGY PREDICTED BY IDOCK:   -4.67 KCAL/MOL
REMARK 922        TOTAL FREE ENERGY PREDICTED BY IDOCK:   -6.34 KCAL/MOL
REMARK 923 INTER-LIGAND FREE ENERGY PREDICTED BY IDOCK:   -5.85 KCAL/MOL
REMARK 924 INTRA-LIGAND FREE ENERGY PREDICTED BY IDOCK:   -0.49 KCAL/MOL
REMARK 927      BINDING AFFINITY PREDICTED BY RF-SCORE:    0.00 PKD
ROOT
HETATM    1  C   UNL     1     -12.192   6.859  70.941  1.00  0.00    -0.353 C  
HETATM    2  N   UNL     1     -11.636   6.854  69.582  1.00  0.00    -0.592 N  
HETATM    3  H   UNL     1     -12.187   6.546  68.781  1.00  0.00     0.000 HD 
ENDROOT
BRANCH   2   4
HETATM    4  S   UNL     1     -10.035   7.384  69.407  1.00  0.00    -0.180 S  
HETATM    5  O   UNL     1      -9.241   6.425  70.144  1.00  0.00    -0.155 OA 
HETATM    6  O   UNL     1      -9.847   7.585  67.986  1.00  0.00    -0.143 OA 
BRANCH   4   7
HETATM    7  C   UNL     1     -10.072   8.957  70.287  1.00  0.00    -0.189 C  
BRANCH   7   8
HETATM    8  C   UNL     1      -9.449  10.057  69.465  1.00  0.00    -0.245 A  
HETATM    9  C   UNL     1     -10.248  11.022  68.820  1.00  0.00    -0.211 A  
HETATM   10  C   UNL     1      -9.654  12.085  68.109  1.00  0.00    -0.200 A  
HETATM   11  C   UNL     1      -8.264  12.173  68.103  1.00  0.00    -0.164 A  
HETATM   12  C   UNL     1      -7.438  11.240  68.739  1.00  0.00    -0.123 A  
HETATM   13  N   UNL     1      -7.935  13.299  67.388  1.00  0.00    -0.223 NA 
HETATM   14  C   UNL     1      -8.055  10.182  69.416  1.00  0.00    -0.163 A  
HETATM   15  H   UNL     1      -6.983  13.624  67.219  1.00  0.00     0.000 HD 
HETATM   16  C   UNL     1      -9.064  13.923  66.935  1.00  0.00    -0.245 A  
HETATM   17  C   UNL     1     -10.161  13.181  67.335  1.00  0.00    -0.232 A  
BRANCH  17  18
HETATM   18  C   UNL     1     -11.600  13.489  67.013  1.00  0.00    -0.394 C  
BRANCH  18  19
HETATM   19  C   UNL     1     -12.150  12.585  65.887  1.00  0.00    -0.352 C  
BRANCH  19  20
HETATM   20  N   UNL     1     -12.662  13.288  64.690  1.00  0.00    -0.683 NA 
HETATM   21  C   UNL     1     -12.318  12.512  63.491  1.00  0.00    -0.525 C  
HETATM   22  C   UNL     1     -12.121  14.641  64.564  1.00  0.00    -0.475 C  
ENDBRANCH  19  20
ENDBRANCH  18  19
ENDBRANCH  17  18
ENDBRANCH   7   8
ENDBRANCH   4   7
ENDBRANCH   2   4
TORSDOF 6
ENDMDL
MODEL      104
REMARK 921   NORMALIZED FREE ENERGY PREDICTED BY IDOCK:   -4.67 KCAL/MOL
REMARK 922        TOTAL FREE ENERGY PREDICTED BY IDOCK:   -6.34 KCAL/MOL
REMARK 923 INTER-LIGAND FREE ENERGY PREDICTED BY IDOCK:   -6.14 KCAL/MOL
REMARK 924 INTRA-LIGAND FREE ENERGY PREDICTED BY IDOCK:   -0.19 KCAL/MOL
REMARK 927      BINDING AFFINITY PREDICTED BY RF-SCORE:    0.00 PKD
ROOT
HETATM    1  C   UNL     1      -7.701  15.894  66.598  1.00  0.00    -0.164 C  
HETATM    2  N   UNL     1      -8.866  15.895  67.491  1.00  0.00    -0.187 N  
HETATM    3  H   UNL     1      -8.797  15.586  68.460  1.00  0.00     0.000 HD 
ENDROOT
BRANCH   2   4
HETATM    4  S   UNL     1     -10.333  16.436  66.835  1.00  0.00    -0.290 S  
HETATM    5  O   UNL     1     -10.781  17.480  67.731  1.00  0.00    -0.380 OA 
HETATM    6  O   UNL     1     -10.058  16.706  65.440  1.00  0.00    -0.578 OA 
BRANCH   4   7
HETATM    7  C   UNL     1     -11.377  14.978  67.021  1.00  0.00    -0.318 C  
BRANCH   7   8
HETATM    8  C   UNL     1     -11.218  14.040  65.851  1.00  0.00    -0.308 A  
HETATM    9  C   UNL     1     -10.234  13.032  65.856  1.00  0.00    -0.298 A  
HETATM   10  C   UNL     1     -10.138  12.118  64.786  1.00  0.00    -0.276 A  
HETATM   11  C   UNL     1     -11.068  12.218  63.754  1.00  0.00    -0.442 A  
HETATM   12  C   UNL     1     -12.064  13.199  63.718  1.00  0.00    -0.563 A  
HETATM   13  N   UNL     1     -10.793  11.207  62.865  1.00  0.00    -0.806 NA 
HETATM   14  C   UNL     1     -12.119  14.108  64.780  1.00  0.00    -0.454 A  
HETATM   15  H   UNL     1     -11.315  11.028  62.008  1.00  0.00     0.000 HD 
HETATM   16  C   UNL     1      -9.720  10.476  63.292  1.00  0.00    -0.312 A  
HETATM   17  C   UNL     1      -9.258  11.029  64.474  1.00  0.00    -0.185 A  
BRANCH  17  18
HETATM   18  C   UNL     1      -8.065  10.558  65.262  1.00  0.00    -0.131 C  
BRANCH  18  19
HETATM   19  C   UNL     1      -8.152  10.966  66.750  1.00  0.00    -0.142 C  
BRANCH  19  20
HETATM   20  N   UNL     1      -7.097  11.886  67.228  1.00  0.00    -0.132 NA 
HETATM   21  C   UNL     1      -5.883  11.115  67.526  1.00  0.00    -0.048 C  
HETATM   22  C   UNL     1      -7.504  12.628  68.422  1.00  0.00    -0.127 C  
ENDBRANCH  19  20
ENDBRANCH  18  19
ENDBRANCH  17  18
ENDBRANCH   7   8
ENDBRANCH   4   7
ENDBRANCH   2   4
TORSDOF 6
ENDMDL
MODEL      105
REMARK 921   NORMALIZED FREE ENERGY PREDICTED BY IDOCK:   -4.66 KCAL/MOL
REMARK 922        TOTAL FREE ENERGY PREDICTED BY IDOCK:   -6.33 KCAL/MOL
REMARK 923 INTER-LIGAND FREE ENERGY PREDICTED BY IDOCK:   -6.01 KCAL/MOL
REMARK 924 INTRA-LIGAND FREE ENERGY PREDICTED BY IDOCK:   -0.32 KCAL/MOL
REMARK 927      BINDING AFFINITY PREDICTED BY RF-SCORE:    0.00 PKD
ROOT
HETATM    1  C   UNL     1      -9.187  12.336  68.549  1.00  0.00    -0.087 C  
HETATM    2  N   UNL     1      -9.140  11.044  69.246  1.00  0.00    -0.399 N  
HETATM    3  H   UNL     1      -8.262  10.647  69.577  1.00  0.00     0.000 HD 
ENDROOT
BRANCH   2   4
HETATM    4  S   UNL     1     -10.617  10.244  69.475  1.00  0.00    -0.260 S  
HETATM    5  O   UNL     1     -10.570   9.753  70.835  1.00  0.00    -0.313 OA 
HETATM    6  O   UNL     1     -11.635  11.179  69.047  1.00  0.00    -0.267 OA 
BRANCH   4   7
HETATM    7  C   UNL     1     -10.471   8.867  68.320  1.00  0.00    -0.195 C  
BRANCH   7   8
HETATM    8  C   UNL     1      -9.892   9.320  67.003  1.00  0.00    -0.257 A  
HETATM    9  C   UNL     1     -10.643  10.116  66.116  1.00  0.00    -0.099 A  
HETATM   10  C   UNL     1     -10.070  10.590  64.917  1.00  0.00    -0.403 A  
HETATM   11  C   UNL     1      -8.734  10.284  64.664  1.00  0.00    -0.190 A  
HETATM   12  C   UNL     1      -7.955   9.504  65.524  1.00  0.00    -0.112 A  
HETATM   13  N   UNL     1      -8.403  10.883  63.473  1.00  0.00    -0.374 NA 
HETATM   14  C   UNL     1      -8.558   9.027  66.693  1.00  0.00    -0.134 A  
HETATM   15  H   UNL     1      -7.484  10.836  63.034  1.00  0.00     0.000 HD 
HETATM   16  C   UNL     1      -9.480  11.551  62.960  1.00  0.00    -0.320 A  
HETATM   17  C   UNL     1     -10.553  11.369  63.814  1.00  0.00    -0.464 A  
BRANCH  17  18
HETATM   18  C   UNL     1     -11.947  11.900  63.606  1.00  0.00    -0.578 C  
BRANCH  18  19
HETATM   19  C   UNL     1     -12.149  13.279  64.273  1.00  0.00    -0.416 C  
BRANCH  19  20
HETATM   20  N   UNL     1     -11.221  13.602  65.379  1.00  0.00    -0.295 NA 
HETATM   21  C   UNL     1     -11.998  13.982  66.566  1.00  0.00    -0.444 C  
HETATM   22  C   UNL     1     -10.300  14.686  65.035  1.00  0.00    -0.402 C  
ENDBRANCH  19  20
ENDBRANCH  18  19
ENDBRANCH  17  18
ENDBRANCH   7   8
ENDBRANCH   4   7
ENDBRANCH   2   4
TORSDOF 6
ENDMDL
MODEL      106
REMARK 921   NORMALIZED FREE ENERGY PREDICTED BY IDOCK:   -4.62 KCAL/MOL
REMARK 922        TOTAL FREE ENERGY PREDICTED BY IDOCK:   -6.27 KCAL/MOL
REMARK 923 INTER-LIGAND FREE ENERGY PREDICTED BY IDOCK:   -5.78 KCAL/MOL
REMARK 924 INTRA-LIGAND FREE ENERGY PREDICTED BY IDOCK:   -0.49 KCAL/MOL
REMARK 927      BINDING AFFINITY PREDICTED BY RF-SCORE:    0.00 PKD
ROOT
HETATM    1  C   UNL     1      -6.450  19.472  67.110  1.00  0.00    -0.193 C  
HETATM    2  N   UNL     1      -7.804  18.936  66.922  1.00  0.00    -0.240 N  
HETATM    3  H   UNL     1      -8.532  19.474  66.453  1.00  0.00     0.000 HD 
ENDROOT
BRANCH   2   4
HETATM    4  S   UNL     1      -8.100  17.377  67.520  1.00  0.00    -0.198 S  
HETATM    5  O   UNL     1      -7.640  16.484  66.480  1.00  0.00    -0.258 OA 
HETATM    6  O   UNL     1      -7.519  17.355  68.845  1.00  0.00    -0.254 OA 
BRANCH   4   7
HETATM    7  C   UNL     1      -9.901  17.352  67.600  1.00  0.00    -0.282 C  
BRANCH   7   8
HETATM    8  C   UNL     1     -10.479  16.395  66.588  1.00  0.00    -0.274 A  
HETATM    9  C   UNL     1     -10.778  15.063  66.938  1.00  0.00    -0.308 A  
HETATM   10  C   UNL     1     -11.380  14.194  66.004  1.00  0.00    -0.330 A  
HETATM   11  C   UNL     1     -11.706  14.706  64.749  1.00  0.00    -0.428 A  
HETATM   12  C   UNL     1     -11.433  16.023  64.369  1.00  0.00    -0.246 A  
HETATM   13  N   UNL     1     -12.308  13.691  64.046  1.00  0.00    -0.671 NA 
HETATM   14  C   UNL     1     -10.813  16.855  65.308  1.00  0.00    -0.113 A  
HETATM   15  H   UNL     1     -12.660  13.773  63.093  1.00  0.00     0.000 HD 
HETATM   16  C   UNL     1     -12.369  12.556  64.804  1.00  0.00    -0.474 A  
HETATM   17  C   UNL     1     -11.772  12.815  66.025  1.00  0.00    -0.470 A  
BRANCH  17  18
HETATM   18  C   UNL     1     -11.586  11.825  67.145  1.00  0.00    -0.342 C  
BRANCH  18  19
HETATM   19  C   UNL     1     -10.697  10.632  66.726  1.00  0.00    -0.210 C  
BRANCH  19  20
HETATM   20  N   UNL     1      -9.374  10.554  67.382  1.00  0.00    -0.143 NA 
HETATM   21  C   UNL     1      -9.491  11.032  68.765  1.00  0.00    -0.183 C  
HETATM   22  C   UNL     1      -8.357  11.339  66.682  1.00  0.00    -0.163 C  
ENDBRANCH  19  20
ENDBRANCH  18  19
ENDBRANCH  17  18
ENDBRANCH   7   8
ENDBRANCH   4   7
ENDBRANCH   2   4
TORSDOF 6
ENDMDL
MODEL      107
REMARK 921   NORMALIZED FREE ENERGY PREDICTED BY IDOCK:   -4.62 KCAL/MOL
REMARK 922        TOTAL FREE ENERGY PREDICTED BY IDOCK:   -6.27 KCAL/MOL
REMARK 923 INTER-LIGAND FREE ENERGY PREDICTED BY IDOCK:   -5.99 KCAL/MOL
REMARK 924 INTRA-LIGAND FREE ENERGY PREDICTED BY IDOCK:   -0.28 KCAL/MOL
REMARK 927      BINDING AFFINITY PREDICTED BY RF-SCORE:    0.00 PKD
ROOT
HETATM    1  C   UNL     1     -10.638  18.785  65.771  1.00  0.00    -0.271 C  
HETATM    2  N   UNL     1     -10.030  18.290  67.012  1.00  0.00    -0.325 N  
HETATM    3  H   UNL     1      -9.953  18.878  67.842  1.00  0.00     0.000 HD 
ENDROOT
BRANCH   2   4
HETATM    4  S   UNL     1      -9.461  16.693  67.003  1.00  0.00    -0.237 S  
HETATM    5  O   UNL     1      -8.264  16.727  66.192  1.00  0.00    -0.332 OA 
HETATM    6  O   UNL     1      -9.420  16.288  68.392  1.00  0.00    -0.206 OA 
BRANCH   4   7
HETATM    7  C   UNL     1     -10.780  15.840  66.116  1.00  0.00    -0.290 C  
BRANCH   7   8
HETATM    8  C   UNL     1     -10.588  14.345  66.159  1.00  0.00    -0.298 A  
HETATM    9  C   UNL     1     -10.881  13.610  67.325  1.00  0.00    -0.292 A  
HETATM   10  C   UNL     1     -10.762  12.204  67.335  1.00  0.00    -0.268 A  
HETATM   11  C   UNL     1     -10.393  11.570  66.151  1.00  0.00    -0.245 A  
HETATM   12  C   UNL     1     -10.104  12.265  64.972  1.00  0.00    -0.277 A  
HETATM   13  N   UNL     1     -10.386  10.220  66.403  1.00  0.00    -0.218 NA 
HETATM   14  C   UNL     1     -10.205  13.660  64.999  1.00  0.00    -0.356 A  
HETATM   15  H   UNL     1     -10.157   9.501  65.717  1.00  0.00     0.000 HD 
HETATM   16  C   UNL     1     -10.731   9.976  67.703  1.00  0.00    -0.284 A  
HETATM   17  C   UNL     1     -10.944  11.190  68.332  1.00  0.00    -0.277 A  
BRANCH  17  18
HETATM   18  C   UNL     1     -11.301  11.382  69.782  1.00  0.00    -0.332 C  
BRANCH  18  19
HETATM   19  C   UNL     1     -11.538  10.038  70.506  1.00  0.00    -0.323 C  
BRANCH  19  20
HETATM   20  N   UNL     1     -12.826   9.909  71.221  1.00  0.00    -0.363 NA 
HETATM   21  C   UNL     1     -13.169  11.199  71.835  1.00  0.00    -0.382 C  
HETATM   22  C   UNL     1     -12.790   8.874  72.255  1.00  0.00    -0.411 C  
ENDBRANCH  19  20
ENDBRANCH  18  19
ENDBRANCH  17  18
ENDBRANCH   7   8
ENDBRANCH   4   7
ENDBRANCH   2   4
TORSDOF 6
ENDMDL
MODEL      108
REMARK 921   NORMALIZED FREE ENERGY PREDICTED BY IDOCK:   -4.60 KCAL/MOL
REMARK 922        TOTAL FREE ENERGY PREDICTED BY IDOCK:   -6.24 KCAL/MOL
REMARK 923 INTER-LIGAND FREE ENERGY PREDICTED BY IDOCK:   -5.98 KCAL/MOL
REMARK 924 INTRA-LIGAND FREE ENERGY PREDICTED BY IDOCK:   -0.26 KCAL/MOL
REMARK 927      BINDING AFFINITY PREDICTED BY RF-SCORE:    0.00 PKD
ROOT
HETATM    1  C   UNL     1      -6.026  10.356  63.575  1.00  0.00    -0.122 C  
HETATM    2  N   UNL     1      -7.393  10.440  64.104  1.00  0.00    -0.321 N  
HETATM    3  H   UNL     1      -8.082  11.078  63.706  1.00  0.00     0.000 HD 
ENDROOT
BRANCH   2   4
HETATM    4  S   UNL     1      -7.774   9.426  65.408  1.00  0.00    -0.106 S  
HETATM    5  O   UNL     1      -7.308   8.115  65.011  1.00  0.00    -0.077 OA 
HETATM    6  O   UNL     1      -7.247  10.090  66.581  1.00  0.00    -0.095 OA 
BRANCH   4   7
HETATM    7  C   UNL     1      -9.576   9.468  65.391  1.00  0.00    -0.272 C  
BRANCH   7   8
HETATM    8  C   UNL     1     -10.086  10.854  65.083  1.00  0.00    -0.352 A  
HETATM    9  C   UNL     1      -9.825  11.933  65.951  1.00  0.00    -0.261 A  
HETATM   10  C   UNL     1     -10.249  13.237  65.621  1.00  0.00    -0.295 A  
HETATM   11  C   UNL     1     -10.890  13.428  64.398  1.00  0.00    -0.406 A  
HETATM   12  C   UNL     1     -11.158  12.384  63.508  1.00  0.00    -0.521 A  
HETATM   13  N   UNL     1     -11.164  14.769  64.294  1.00  0.00    -0.619 NA 
HETATM   14  C   UNL     1     -10.749  11.097  63.873  1.00  0.00    -0.407 A  
HETATM   15  H   UNL     1     -11.627  15.208  63.499  1.00  0.00     0.000 HD 
HETATM   16  C   UNL     1     -10.727  15.434  65.406  1.00  0.00    -0.400 A  
HETATM   17  C   UNL     1     -10.177  14.510  66.276  1.00  0.00    -0.306 A  
BRANCH  17  18
HETATM   18  C   UNL     1      -9.614  14.810  67.641  1.00  0.00    -0.208 C  
BRANCH  18  19
HETATM   19  C   UNL     1     -10.452  14.171  68.770  1.00  0.00    -0.247 C  
BRANCH  19  20
HETATM   20  N   UNL     1     -11.563  14.996  69.293  1.00  0.00    -0.297 NA 
HETATM   21  C   UNL     1     -11.043  16.314  69.682  1.00  0.00    -0.333 C  
HETATM   22  C   UNL     1     -12.224  14.378  70.442  1.00  0.00    -0.338 C  
ENDBRANCH  19  20
ENDBRANCH  18  19
ENDBRANCH  17  18
ENDBRANCH   7   8
ENDBRANCH   4   7
ENDBRANCH   2   4
TORSDOF 6
ENDMDL
MODEL      109
REMARK 921   NORMALIZED FREE ENERGY PREDICTED BY IDOCK:   -4.58 KCAL/MOL
REMARK 922        TOTAL FREE ENERGY PREDICTED BY IDOCK:   -6.22 KCAL/MOL
REMARK 923 INTER-LIGAND FREE ENERGY PREDICTED BY IDOCK:   -6.40 KCAL/MOL
REMARK 924 INTRA-LIGAND FREE ENERGY PREDICTED BY IDOCK:    0.18 KCAL/MOL
REMARK 927      BINDING AFFINITY PREDICTED BY RF-SCORE:    0.00 PKD
ROOT
HETATM    1  C   UNL     1     -14.299  15.704  72.137  1.00  0.00    -0.401 C  
HETATM    2  N   UNL     1     -13.663  15.611  70.816  1.00  0.00    -0.799 N  
HETATM    3  H   UNL     1     -14.180  15.809  69.960  1.00  0.00     0.000 HD 
ENDROOT
BRANCH   2   4
HETATM    4  S   UNL     1     -12.029  15.161  70.783  1.00  0.00    -0.363 S  
HETATM    5  O   UNL     1     -11.352  16.257  70.125  1.00  0.00    -0.349 OA 
HETATM    6  O   UNL     1     -11.704  14.781  72.141  1.00  0.00    -0.310 OA 
BRANCH   4   7
HETATM    7  C   UNL     1     -12.069  13.722  69.697  1.00  0.00    -0.336 C  
BRANCH   7   8
HETATM    8  C   UNL     1     -12.402  12.468  70.464  1.00  0.00    -0.345 A  
HETATM    9  C   UNL     1     -11.678  11.277  70.257  1.00  0.00    -0.415 A  
HETATM   10  C   UNL     1     -11.952  10.128  71.028  1.00  0.00    -0.474 A  
HETATM   11  C   UNL     1     -12.924  10.223  72.022  1.00  0.00    -0.402 A  
HETATM   12  C   UNL     1     -13.657  11.389  72.263  1.00  0.00     0.052 A  
HETATM   13  N   UNL     1     -12.978   9.002  72.649  1.00  0.00    -0.468 NA 
HETATM   14  C   UNL     1     -13.380  12.506  71.466  1.00  0.00    -0.180 A  
HETATM   15  H   UNL     1     -13.598   8.774  73.426  1.00  0.00     0.000 HD 
HETATM   16  C   UNL     1     -12.082   8.137  72.086  1.00  0.00    -0.357 A  
HETATM   17  C   UNL     1     -11.441   8.788  71.048  1.00  0.00    -0.337 A  
BRANCH  17  18
HETATM   18  C   UNL     1     -10.406   8.187  70.133  1.00  0.00    -0.215 C  
BRANCH  18  19
HETATM   19  C   UNL     1      -9.143   7.737  70.900  1.00  0.00    -0.148 C  
BRANCH  19  20
HETATM   20  N   UNL     1      -8.552   8.740  71.812  1.00  0.00    -0.315 NA 
HETATM   21  C   UNL     1      -7.276   9.207  71.255  1.00  0.00    -0.035 C  
HETATM   22  C   UNL     1      -8.328   8.207  73.157  1.00  0.00    -0.204 C  
ENDBRANCH  19  20
ENDBRANCH  18  19
ENDBRANCH  17  18
ENDBRANCH   7   8
ENDBRANCH   4   7
ENDBRANCH   2   4
TORSDOF 6
ENDMDL
MODEL      110
REMARK 921   NORMALIZED FREE ENERGY PREDICTED BY IDOCK:   -4.58 KCAL/MOL
REMARK 922        TOTAL FREE ENERGY PREDICTED BY IDOCK:   -6.21 KCAL/MOL
REMARK 923 INTER-LIGAND FREE ENERGY PREDICTED BY IDOCK:   -6.49 KCAL/MOL
REMARK 924 INTRA-LIGAND FREE ENERGY PREDICTED BY IDOCK:    0.27 KCAL/MOL
REMARK 927      BINDING AFFINITY PREDICTED BY RF-SCORE:    0.00 PKD
ROOT
HETATM    1  C   UNL     1      -9.141  15.890  69.503  1.00  0.00    -0.158 C  
HETATM    2  N   UNL     1      -9.961  14.753  69.940  1.00  0.00    -0.437 N  
HETATM    3  H   UNL     1      -9.655  13.790  69.803  1.00  0.00     0.000 HD 
ENDROOT
BRANCH   2   4
HETATM    4  S   UNL     1     -11.441  15.116  70.683  1.00  0.00    -0.318 S  
HETATM    5  O   UNL     1     -11.169  15.065  72.103  1.00  0.00    -0.315 OA 
HETATM    6  O   UNL     1     -11.904  16.332  70.048  1.00  0.00    -0.192 OA 
BRANCH   4   7
HETATM    7  C   UNL     1     -12.450  13.704  70.198  1.00  0.00    -0.239 C  
BRANCH   7   8
HETATM    8  C   UNL     1     -11.992  13.132  68.880  1.00  0.00    -0.317 A  
HETATM    9  C   UNL     1     -11.746  13.967  67.773  1.00  0.00    -0.403 A  
HETATM   10  C   UNL     1     -11.253  13.431  66.565  1.00  0.00    -0.327 A  
HETATM   11  C   UNL     1     -10.978  12.066  66.519  1.00  0.00    -0.295 A  
HETATM   12  C   UNL     1     -11.200  11.207  67.600  1.00  0.00    -0.364 A  
HETATM   13  N   UNL     1     -10.479  11.799  65.268  1.00  0.00    -0.263 NA 
HETATM   14  C   UNL     1     -11.713  11.763  68.777  1.00  0.00    -0.389 A  
HETATM   15  H   UNL     1     -10.183  10.878  64.943  1.00  0.00     0.000 HD 
HETATM   16  C   UNL     1     -10.434  12.941  64.518  1.00  0.00    -0.377 A  
HETATM   17  C   UNL     1     -10.939  13.980  65.278  1.00  0.00    -0.335 A  
BRANCH  17  18
HETATM   18  C   UNL     1     -11.109  15.406  64.823  1.00  0.00    -0.416 C  
BRANCH  18  19
HETATM   19  C   UNL     1     -10.781  16.418  65.942  1.00  0.00    -0.214 C  
BRANCH  19  20
HETATM   20  N   UNL     1      -9.717  17.399  65.632  1.00  0.00    -0.509 NA 
HETATM   21  C   UNL     1      -8.426  16.874  66.096  1.00  0.00    -0.246 C  
HETATM   22  C   UNL     1      -9.962  18.701  66.253  1.00  0.00    -0.372 C  
ENDBRANCH  19  20
ENDBRANCH  18  19
ENDBRANCH  17  18
ENDBRANCH   7   8
ENDBRANCH   4   7
ENDBRANCH   2   4
TORSDOF 6
ENDMDL
MODEL      111
REMARK 921   NORMALIZED FREE ENERGY PREDICTED BY IDOCK:   -4.57 KCAL/MOL
REMARK 922        TOTAL FREE ENERGY PREDICTED BY IDOCK:   -6.20 KCAL/MOL
REMARK 923 INTER-LIGAND FREE ENERGY PREDICTED BY IDOCK:   -5.82 KCAL/MOL
REMARK 924 INTRA-LIGAND FREE ENERGY PREDICTED BY IDOCK:   -0.38 KCAL/MOL
REMARK 927      BINDING AFFINITY PREDICTED BY RF-SCORE:    0.00 PKD
ROOT
HETATM    1  C   UNL     1     -11.199   9.110  71.156  1.00  0.00    -0.325 C  
HETATM    2  N   UNL     1     -10.808  10.411  70.599  1.00  0.00    -0.406 N  
HETATM    3  H   UNL     1     -10.475  11.169  71.195  1.00  0.00     0.000 HD 
ENDROOT
BRANCH   2   4
HETATM    4  S   UNL     1     -10.934  10.595  68.919  1.00  0.00    -0.269 S  
HETATM    5  O   UNL     1     -10.086   9.562  68.365  1.00  0.00    -0.163 OA 
HETATM    6  O   UNL     1     -12.354  10.635  68.639  1.00  0.00    -0.336 OA 
BRANCH   4   7
HETATM    7  C   UNL     1     -10.176  12.211  68.669  1.00  0.00    -0.174 C  
BRANCH   7   8
HETATM    8  C   UNL     1     -10.746  12.900  67.455  1.00  0.00    -0.252 A  
HETATM    9  C   UNL     1     -10.708  12.284  66.187  1.00  0.00    -0.296 A  
HETATM   10  C   UNL     1     -11.304  12.906  65.070  1.00  0.00    -0.338 A  
HETATM   11  C   UNL     1     -11.962  14.118  65.269  1.00  0.00    -0.381 A  
HETATM   12  C   UNL     1     -12.028  14.755  66.512  1.00  0.00    -0.193 A  
HETATM   13  N   UNL     1     -12.484  14.495  64.056  1.00  0.00    -0.959 NA 
HETATM   14  C   UNL     1     -11.407  14.127  67.597  1.00  0.00    -0.342 A  
HETATM   15  H   UNL     1     -13.025  15.344  63.894  1.00  0.00     0.000 HD 
HETATM   16  C   UNL     1     -12.175  13.573  63.096  1.00  0.00     0.047 A  
HETATM   17  C   UNL     1     -11.411  12.577  63.679  1.00  0.00    -0.555 A  
BRANCH  17  18
HETATM   18  C   UNL     1     -10.822  11.387  62.969  1.00  0.00    -0.048 C  
BRANCH  18  19
HETATM   19  C   UNL     1      -9.279  11.362  63.055  1.00  0.00    -0.257 C  
BRANCH  19  20
HETATM   20  N   UNL     1      -8.682  10.100  63.544  1.00  0.00    -0.196 NA 
HETATM   21  C   UNL     1      -8.730   9.097  62.473  1.00  0.00    -0.211 C  
HETATM   22  C   UNL     1      -9.369   9.580  64.727  1.00  0.00    -0.169 C  
ENDBRANCH  19  20
ENDBRANCH  18  19
ENDBRANCH  17  18
ENDBRANCH   7   8
ENDBRANCH   4   7
ENDBRANCH   2   4
TORSDOF 6
ENDMDL
MODEL      112
REMARK 921   NORMALIZED FREE ENERGY PREDICTED BY IDOCK:   -4.55 KCAL/MOL
REMARK 922        TOTAL FREE ENERGY PREDICTED BY IDOCK:   -6.18 KCAL/MOL
REMARK 923 INTER-LIGAND FREE ENERGY PREDICTED BY IDOCK:   -5.60 KCAL/MOL
REMARK 924 INTRA-LIGAND FREE ENERGY PREDICTED BY IDOCK:   -0.58 KCAL/MOL
REMARK 927      BINDING AFFINITY PREDICTED BY RF-SCORE:    0.00 PKD
ROOT
HETATM    1  C   UNL     1      -9.212   4.124  68.327  1.00  0.00    -0.144 C  
HETATM    2  N   UNL     1      -9.724   5.494  68.451  1.00  0.00    -0.124 N  
HETATM    3  H   UNL     1      -9.919   5.912  69.360  1.00  0.00     0.000 HD 
ENDROOT
BRANCH   2   4
HETATM    4  S   UNL     1      -9.976   6.351  67.010  1.00  0.00    -0.179 S  
HETATM    5  O   UNL     1      -9.353   5.546  65.982  1.00  0.00    -0.159 OA 
HETATM    6  O   UNL     1     -11.392   6.649  66.979  1.00  0.00    -0.348 OA 
BRANCH   4   7
HETATM    7  C   UNL     1      -9.005   7.842  67.296  1.00  0.00    -0.127 C  
BRANCH   7   8
HETATM    8  C   UNL     1      -9.158   8.820  66.158  1.00  0.00    -0.251 A  
HETATM    9  C   UNL     1     -10.090   9.875  66.228  1.00  0.00    -0.311 A  
HETATM   10  C   UNL     1     -10.178  10.823  65.188  1.00  0.00    -0.365 A  
HETATM   11  C   UNL     1      -9.292  10.708  64.120  1.00  0.00    -0.258 A  
HETATM   12  C   UNL     1      -8.348   9.681  64.019  1.00  0.00    -0.171 A  
HETATM   13  N   UNL     1      -9.548  11.757  63.270  1.00  0.00    -0.553 NA 
HETATM   14  C   UNL     1      -8.299   8.740  65.054  1.00  0.00    -0.180 A  
HETATM   15  H   UNL     1      -9.048  11.936  62.400  1.00  0.00     0.000 HD 
HETATM   16  C   UNL     1     -10.567  12.527  63.757  1.00  0.00    -0.436 A  
HETATM   17  C   UNL     1     -11.013  11.962  64.938  1.00  0.00    -0.367 A  
BRANCH  17  18
HETATM   18  C   UNL     1     -12.153  12.467  65.783  1.00  0.00    -0.443 C  
BRANCH  18  19
HETATM   19  C   UNL     1     -11.685  13.495  66.838  1.00  0.00    -0.384 C  
BRANCH  19  20
HETATM   20  N   UNL     1     -11.138  12.929  68.090  1.00  0.00    -0.239 NA 
HETATM   21  C   UNL     1     -11.903  13.451  69.230  1.00  0.00    -0.334 C  
HETATM   22  C   UNL     1      -9.721  13.244  68.272  1.00  0.00    -0.225 C  
ENDBRANCH  19  20
ENDBRANCH  18  19
ENDBRANCH  17  18
ENDBRANCH   7   8
ENDBRANCH   4   7
ENDBRANCH   2   4
TORSDOF 6
ENDMDL
MODEL      113
REMARK 921   NORMALIZED FREE ENERGY PREDICTED BY IDOCK:   -4.52 KCAL/MOL
REMARK 922        TOTAL FREE ENERGY PREDICTED BY IDOCK:   -6.13 KCAL/MOL
REMARK 923 INTER-LIGAND FREE ENERGY PREDICTED BY IDOCK:   -5.52 KCAL/MOL
REMARK 924 INTRA-LIGAND FREE ENERGY PREDICTED BY IDOCK:   -0.61 KCAL/MOL
REMARK 927      BINDING AFFINITY PREDICTED BY RF-SCORE:    0.00 PKD
ROOT
HETATM    1  C   UNL     1     -10.426  19.738  67.684  1.00  0.00    -0.424 C  
HETATM    2  N   UNL     1      -9.267  19.407  66.845  1.00  0.00    -0.309 N  
HETATM    3  H   UNL     1      -8.599  20.119  66.551  1.00  0.00     0.000 HD 
ENDROOT
BRANCH   2   4
HETATM    4  S   UNL     1      -9.089  17.783  66.391  1.00  0.00    -0.193 S  
HETATM    5  O   UNL     1     -10.327  17.444  65.723  1.00  0.00    -0.543 OA 
HETATM    6  O   UNL     1      -7.817  17.711  65.703  1.00  0.00    -0.533 OA 
BRANCH   4   7
HETATM    7  C   UNL     1      -9.010  16.961  67.993  1.00  0.00    -0.224 C  
BRANCH   7   8
HETATM    8  C   UNL     1      -8.356  15.607  67.880  1.00  0.00    -0.150 A  
HETATM    9  C   UNL     1      -9.065  14.499  67.375  1.00  0.00    -0.201 A  
HETATM   10  C   UNL     1      -8.425  13.253  67.210  1.00  0.00    -0.203 A  
HETATM   11  C   UNL     1      -7.070  13.167  67.519  1.00  0.00    -0.150 A  
HETATM   12  C   UNL     1      -6.331  14.246  68.014  1.00  0.00    -0.159 A  
HETATM   13  N   UNL     1      -6.675  11.881  67.241  1.00  0.00    -0.125 NA 
HETATM   14  C   UNL     1      -6.998  15.463  68.191  1.00  0.00    -0.131 A  
HETATM   15  H   UNL     1      -5.728  11.523  67.365  1.00  0.00     0.000 HD 
HETATM   16  C   UNL     1      -7.730  11.148  66.774  1.00  0.00    -0.153 A  
HETATM   17  C   UNL     1      -8.853  11.957  66.768  1.00  0.00    -0.193 A  
BRANCH  17  18
HETATM   18  C   UNL     1     -10.242  11.537  66.366  1.00  0.00    -0.261 C  
BRANCH  18  19
HETATM   19  C   UNL     1     -10.522  11.809  64.871  1.00  0.00    -0.287 C  
BRANCH  19  20
HETATM   20  N   UNL     1     -11.375  12.982  64.579  1.00  0.00    -0.324 NA 
HETATM   21  C   UNL     1     -12.247  13.244  65.731  1.00  0.00    -0.456 C  
HETATM   22  C   UNL     1     -12.196  12.791  63.383  1.00  0.00    -0.504 C  
ENDBRANCH  19  20
ENDBRANCH  18  19
ENDBRANCH  17  18
ENDBRANCH   7   8
ENDBRANCH   4   7
ENDBRANCH   2   4
TORSDOF 6
ENDMDL
MODEL      114
REMARK 921   NORMALIZED FREE ENERGY PREDICTED BY IDOCK:   -4.51 KCAL/MOL
REMARK 922        TOTAL FREE ENERGY PREDICTED BY IDOCK:   -6.12 KCAL/MOL
REMARK 923 INTER-LIGAND FREE ENERGY PREDICTED BY IDOCK:   -5.68 KCAL/MOL
REMARK 924 INTRA-LIGAND FREE ENERGY PREDICTED BY IDOCK:   -0.45 KCAL/MOL
REMARK 927      BINDING AFFINITY PREDICTED BY RF-SCORE:    0.00 PKD
ROOT
HETATM    1  C   UNL     1      -8.077   8.604  67.006  1.00  0.00    -0.100 C  
HETATM    2  N   UNL     1      -9.293   8.055  66.392  1.00  0.00    -0.197 N  
HETATM    3  H   UNL     1      -9.824   8.578  65.696  1.00  0.00     0.000 HD 
ENDROOT
BRANCH   2   4
HETATM    4  S   UNL     1      -9.775   6.509  66.896  1.00  0.00    -0.165 S  
HETATM    5  O   UNL     1     -11.217   6.577  66.985  1.00  0.00    -0.397 OA 
HETATM    6  O   UNL     1      -9.117   5.586  65.996  1.00  0.00    -0.151 OA 
BRANCH   4   7
HETATM    7  C   UNL     1      -9.060   6.425  68.550  1.00  0.00    -0.126 C  
BRANCH   7   8
HETATM    8  C   UNL     1     -10.067   6.822  69.600  1.00  0.00    -0.197 A  
HETATM    9  C   UNL     1     -10.499   8.158  69.723  1.00  0.00    -0.227 A  
HETATM   10  C   UNL     1     -11.490   8.507  70.663  1.00  0.00    -0.249 A  
HETATM   11  C   UNL     1     -12.054   7.489  71.430  1.00  0.00    -0.327 A  
HETATM   12  C   UNL     1     -11.658   6.151  71.330  1.00  0.00    -0.271 A  
HETATM   13  N   UNL     1     -13.008   8.069  72.230  1.00  0.00    -0.526 NA 
HETATM   14  C   UNL     1     -10.655   5.838  70.406  1.00  0.00    -0.365 A  
HETATM   15  H   UNL     1     -13.591   7.566  72.898  1.00  0.00     0.000 HD 
HETATM   16  C   UNL     1     -13.064   9.416  72.004  1.00  0.00    -0.433 A  
HETATM   17  C   UNL     1     -12.111   9.739  71.055  1.00  0.00    -0.434 A  
BRANCH  17  18
HETATM   18  C   UNL     1     -11.806  11.123  70.545  1.00  0.00    -0.448 C  
BRANCH  18  19
HETATM   19  C   UNL     1     -12.080  11.258  69.031  1.00  0.00    -0.257 C  
BRANCH  19  20
HETATM   20  N   UNL     1     -11.238  12.237  68.309  1.00  0.00    -0.245 NA 
HETATM   21  C   UNL     1     -11.659  12.292  66.903  1.00  0.00    -0.361 C  
HETATM   22  C   UNL     1      -9.815  11.906  68.377  1.00  0.00    -0.201 C  
ENDBRANCH  19  20
ENDBRANCH  18  19
ENDBRANCH  17  18
ENDBRANCH   7   8
ENDBRANCH   4   7
ENDBRANCH   2   4
TORSDOF 6
ENDMDL
MODEL      115
REMARK 921   NORMALIZED FREE ENERGY PREDICTED BY IDOCK:   -4.51 KCAL/MOL
REMARK 922        TOTAL FREE ENERGY PREDICTED BY IDOCK:   -6.12 KCAL/MOL
REMARK 923 INTER-LIGAND FREE ENERGY PREDICTED BY IDOCK:   -5.76 KCAL/MOL
REMARK 924 INTRA-LIGAND FREE ENERGY PREDICTED BY IDOCK:   -0.36 KCAL/MOL
REMARK 927      BINDING AFFINITY PREDICTED BY RF-SCORE:    0.00 PKD
ROOT
HETATM    1  C   UNL     1      -8.283   7.480  68.731  1.00  0.00    -0.129 C  
HETATM    2  N   UNL     1      -9.483   8.314  68.586  1.00  0.00    -0.147 N  
HETATM    3  H   UNL     1     -10.271   8.021  68.009  1.00  0.00     0.000 HD 
ENDROOT
BRANCH   2   4
HETATM    4  S   UNL     1      -9.498   9.787  69.425  1.00  0.00    -0.214 S  
HETATM    5  O   UNL     1      -9.540   9.422  70.823  1.00  0.00    -0.261 OA 
HETATM    6  O   UNL     1      -8.399  10.554  68.879  1.00  0.00    -0.129 OA 
BRANCH   4   7
HETATM    7  C   UNL     1     -11.086  10.478  68.922  1.00  0.00    -0.261 C  
BRANCH   7   8
HETATM    8  C   UNL     1     -10.943  11.333  67.688  1.00  0.00    -0.312 A  
HETATM    9  C   UNL     1     -10.872  12.737  67.782  1.00  0.00    -0.248 A  
HETATM   10  C   UNL     1     -10.670  13.524  66.629  1.00  0.00    -0.282 A  
HETATM   11  C   UNL     1     -10.502  12.870  65.411  1.00  0.00    -0.292 A  
HETATM   12  C   UNL     1     -10.556  11.479  65.279  1.00  0.00    -0.339 A  
HETATM   13  N   UNL     1     -10.285  13.838  64.461  1.00  0.00    -0.675 NA 
HETATM   14  C   UNL     1     -10.783  10.725  66.436  1.00  0.00    -0.228 A  
HETATM   15  H   UNL     1     -10.123  13.656  63.471  1.00  0.00     0.000 HD 
HETATM   16  C   UNL     1     -10.317  15.080  65.030  1.00  0.00    -0.357 A  
HETATM   17  C   UNL     1     -10.587  14.934  66.379  1.00  0.00    -0.307 A  
BRANCH  17  18
HETATM   18  C   UNL     1     -10.752  16.053  67.374  1.00  0.00    -0.306 C  
BRANCH  18  19
HETATM   19  C   UNL     1     -10.319  17.417  66.791  1.00  0.00    -0.305 C  
BRANCH  19  20
HETATM   20  N   UNL     1      -9.407  18.219  67.636  1.00  0.00    -0.265 NA 
HETATM   21  C   UNL     1      -8.754  17.337  68.612  1.00  0.00    -0.268 C  
HETATM   22  C   UNL     1     -10.104  19.293  68.344  1.00  0.00    -0.431 C  
ENDBRANCH  19  20
ENDBRANCH  18  19
ENDBRANCH  17  18
ENDBRANCH   7   8
ENDBRANCH   4   7
ENDBRANCH   2   4
TORSDOF 6
ENDMDL
MODEL      116
REMARK 921   NORMALIZED FREE ENERGY PREDICTED BY IDOCK:   -4.50 KCAL/MOL
REMARK 922        TOTAL FREE ENERGY PREDICTED BY IDOCK:   -6.12 KCAL/MOL
REMARK 923 INTER-LIGAND FREE ENERGY PREDICTED BY IDOCK:   -5.70 KCAL/MOL
REMARK 924 INTRA-LIGAND FREE ENERGY PREDICTED BY IDOCK:   -0.41 KCAL/MOL
REMARK 927      BINDING AFFINITY PREDICTED BY RF-SCORE:    0.00 PKD
ROOT
HETATM    1  C   UNL     1      -6.819  10.001  63.356  1.00  0.00    -0.132 C  
HETATM    2  N   UNL     1      -8.006  10.737  63.811  1.00  0.00    -0.363 N  
HETATM    3  H   UNL     1      -8.452  11.444  63.228  1.00  0.00     0.000 HD 
ENDROOT
BRANCH   2   4
HETATM    4  S   UNL     1      -8.600  10.354  65.352  1.00  0.00    -0.178 S  
HETATM    5  O   UNL     1      -8.588   8.909  65.409  1.00  0.00    -0.156 OA 
HETATM    6  O   UNL     1      -7.823  11.152  66.276  1.00  0.00    -0.158 OA 
BRANCH   4   7
HETATM    7  C   UNL     1     -10.298  10.950  65.248  1.00  0.00    -0.268 C  
BRANCH   7   8
HETATM    8  C   UNL     1     -10.884  11.172  66.619  1.00  0.00    -0.308 A  
HETATM    9  C   UNL     1     -10.840  10.160  67.599  1.00  0.00    -0.346 A  
HETATM   10  C   UNL     1     -11.330  10.400  68.900  1.00  0.00    -0.278 A  
HETATM   11  C   UNL     1     -11.815  11.672  69.193  1.00  0.00    -0.326 A  
HETATM   12  C   UNL     1     -11.867  12.704  68.250  1.00  0.00    -0.354 A  
HETATM   13  N   UNL     1     -12.191  11.665  70.514  1.00  0.00    -0.369 NA 
HETATM   14  C   UNL     1     -11.397  12.430  66.961  1.00  0.00    -0.388 A  
HETATM   15  H   UNL     1     -12.581  12.464  71.012  1.00  0.00     0.000 HD 
HETATM   16  C   UNL     1     -11.970  10.434  71.066  1.00  0.00    -0.382 A  
HETATM   17  C   UNL     1     -11.461   9.602  70.085  1.00  0.00    -0.238 A  
BRANCH  17  18
HETATM   18  C   UNL     1     -11.115   8.146  70.254  1.00  0.00    -0.221 C  
BRANCH  18  19
HETATM   19  C   UNL     1     -12.154   7.398  71.119  1.00  0.00    -0.325 C  
BRANCH  19  20
HETATM   20  N   UNL     1     -11.601   6.541  72.191  1.00  0.00    -0.295 NA 
HETATM   21  C   UNL     1     -10.885   7.382  73.160  1.00  0.00    -0.386 C  
HETATM   22  C   UNL     1     -10.693   5.517  71.674  1.00  0.00    -0.231 C  
ENDBRANCH  19  20
ENDBRANCH  18  19
ENDBRANCH  17  18
ENDBRANCH   7   8
ENDBRANCH   4   7
ENDBRANCH   2   4
TORSDOF 6
ENDMDL
MODEL      117
REMARK 921   NORMALIZED FREE ENERGY PREDICTED BY IDOCK:   -4.50 KCAL/MOL
REMARK 922        TOTAL FREE ENERGY PREDICTED BY IDOCK:   -6.11 KCAL/MOL
REMARK 923 INTER-LIGAND FREE ENERGY PREDICTED BY IDOCK:   -5.62 KCAL/MOL
REMARK 924 INTRA-LIGAND FREE ENERGY PREDICTED BY IDOCK:   -0.49 KCAL/MOL
REMARK 927      BINDING AFFINITY PREDICTED BY RF-SCORE:    0.00 PKD
ROOT
HETATM    1  C   UNL     1     -12.340  15.435  64.092  1.00  0.00     0.004 C  
HETATM    2  N   UNL     1     -11.019  15.331  64.724  1.00  0.00    -0.590 N  
HETATM    3  H   UNL     1     -10.198  15.785  64.324  1.00  0.00     0.000 HD 
ENDROOT
BRANCH   2   4
HETATM    4  S   UNL     1     -10.922  14.420  66.150  1.00  0.00    -0.327 S  
HETATM    5  O   UNL     1      -9.516  14.118  66.307  1.00  0.00    -0.283 OA 
HETATM    6  O   UNL     1     -11.644  15.182  67.146  1.00  0.00    -0.311 OA 
BRANCH   4   7
HETATM    7  C   UNL     1     -11.824  12.927  65.693  1.00  0.00    -0.417 C  
BRANCH   7   8
HETATM    8  C   UNL     1     -10.896  11.878  65.135  1.00  0.00    -0.350 A  
HETATM    9  C   UNL     1     -10.410  10.833  65.946  1.00  0.00    -0.302 A  
HETATM   10  C   UNL     1      -9.597   9.819  65.398  1.00  0.00    -0.359 A  
HETATM   11  C   UNL     1      -9.328   9.862  64.032  1.00  0.00    -0.223 A  
HETATM   12  C   UNL     1      -9.800  10.877  63.194  1.00  0.00    -0.392 A  
HETATM   13  N   UNL     1      -8.561   8.761  63.738  1.00  0.00    -0.398 NA 
HETATM   14  C   UNL     1     -10.583  11.883  63.769  1.00  0.00    -0.475 A  
HETATM   15  H   UNL     1      -8.215   8.524  62.809  1.00  0.00     0.000 HD 
HETATM   16  C   UNL     1      -8.328   8.027  64.868  1.00  0.00    -0.099 A  
HETATM   17  C   UNL     1      -8.930   8.669  65.936  1.00  0.00    -0.245 A  
BRANCH  17  18
HETATM   18  C   UNL     1      -8.884   8.223  67.374  1.00  0.00    -0.135 C  
BRANCH  18  19
HETATM   19  C   UNL     1     -10.215   7.582  67.827  1.00  0.00    -0.201 C  
BRANCH  19  20
HETATM   20  N   UNL     1     -10.283   7.178  69.248  1.00  0.00    -0.184 NA 
HETATM   21  C   UNL     1     -10.244   8.378  70.094  1.00  0.00    -0.195 C  
HETATM   22  C   UNL     1      -9.190   6.282  69.626  1.00  0.00    -0.141 C  
ENDBRANCH  19  20
ENDBRANCH  18  19
ENDBRANCH  17  18
ENDBRANCH   7   8
ENDBRANCH   4   7
ENDBRANCH   2   4
TORSDOF 6
ENDMDL
MODEL      118
REMARK 921   NORMALIZED FREE ENERGY PREDICTED BY IDOCK:   -4.50 KCAL/MOL
REMARK 922        TOTAL FREE ENERGY PREDICTED BY IDOCK:   -6.11 KCAL/MOL
REMARK 923 INTER-LIGAND FREE ENERGY PREDICTED BY IDOCK:   -5.71 KCAL/MOL
REMARK 924 INTRA-LIGAND FREE ENERGY PREDICTED BY IDOCK:   -0.40 KCAL/MOL
REMARK 927      BINDING AFFINITY PREDICTED BY RF-SCORE:    0.00 PKD
ROOT
HETATM    1  C   UNL     1     -11.194   6.298  69.140  1.00  0.00    -0.371 C  
HETATM    2  N   UNL     1     -11.204   6.519  67.689  1.00  0.00    -0.647 N  
HETATM    3  H   UNL     1     -11.896   7.122  67.245  1.00  0.00     0.000 HD 
ENDROOT
BRANCH   2   4
HETATM    4  S   UNL     1     -10.010   5.724  66.785  1.00  0.00    -0.192 S  
HETATM    5  O   UNL     1      -9.060   5.241  67.763  1.00  0.00    -0.109 OA 
HETATM    6  O   UNL     1     -10.724   4.815  65.915  1.00  0.00    -0.318 OA 
BRANCH   4   7
HETATM    7  C   UNL     1      -9.291   7.088  65.851  1.00  0.00     0.121 C  
BRANCH   7   8
HETATM    8  C   UNL     1      -9.259   8.354  66.670  1.00  0.00    -0.226 A  
HETATM    9  C   UNL     1     -10.126   9.426  66.382  1.00  0.00    -0.332 A  
HETATM   10  C   UNL     1     -10.135  10.579  67.195  1.00  0.00    -0.253 A  
HETATM   11  C   UNL     1      -9.297  10.603  68.307  1.00  0.00    -0.156 A  
HETATM   12  C   UNL     1      -8.429   9.554  68.630  1.00  0.00    -0.119 A  
HETATM   13  N   UNL     1      -9.515  11.797  68.950  1.00  0.00    -0.410 NA 
HETATM   14  C   UNL     1      -8.423   8.434  67.791  1.00  0.00    -0.131 A  
HETATM   15  H   UNL     1      -9.043  12.093  69.804  1.00  0.00     0.000 HD 
HETATM   16  C   UNL     1     -10.455  12.532  68.283  1.00  0.00    -0.234 A  
HETATM   17  C   UNL     1     -10.847  11.823  67.162  1.00  0.00    -0.303 A  
BRANCH  17  18
HETATM   18  C   UNL     1     -11.836  12.288  66.125  1.00  0.00    -0.398 C  
BRANCH  18  19
HETATM   19  C   UNL     1     -11.160  13.102  64.999  1.00  0.00    -0.301 C  
BRANCH  19  20
HETATM   20  N   UNL     1     -11.250  12.522  63.642  1.00  0.00    -0.454 NA 
HETATM   21  C   UNL     1     -12.561  11.880  63.477  1.00  0.00    -0.459 C  
HETATM   22  C   UNL     1     -10.195  11.542  63.383  1.00  0.00    -0.420 C  
ENDBRANCH  19  20
ENDBRANCH  18  19
ENDBRANCH  17  18
ENDBRANCH   7   8
ENDBRANCH   4   7
ENDBRANCH   2   4
TORSDOF 6
ENDMDL
MODEL      119
REMARK 921   NORMALIZED FREE ENERGY PREDICTED BY IDOCK:   -4.49 KCAL/MOL
REMARK 922        TOTAL FREE ENERGY PREDICTED BY IDOCK:   -6.10 KCAL/MOL
REMARK 923 INTER-LIGAND FREE ENERGY PREDICTED BY IDOCK:   -5.61 KCAL/MOL
REMARK 924 INTRA-LIGAND FREE ENERGY PREDICTED BY IDOCK:   -0.49 KCAL/MOL
REMARK 927      BINDING AFFINITY PREDICTED BY RF-SCORE:    0.00 PKD
ROOT
HETATM    1  C   UNL     1     -14.283   8.275  71.581  1.00  0.00    -0.447 C  
HETATM    2  N   UNL     1     -13.151   8.139  72.507  1.00  0.00    -0.566 N  
HETATM    3  H   UNL     1     -13.207   8.465  73.471  1.00  0.00     0.000 HD 
ENDROOT
BRANCH   2   4
HETATM    4  S   UNL     1     -11.746   7.414  71.895  1.00  0.00    -0.300 S  
HETATM    5  O   UNL     1     -11.400   6.395  72.862  1.00  0.00    -0.225 OA 
HETATM    6  O   UNL     1     -12.050   7.077  70.521  1.00  0.00    -0.313 OA 
BRANCH   4   7
HETATM    7  C   UNL     1     -10.564   8.773  71.985  1.00  0.00    -0.344 C  
BRANCH   7   8
HETATM    8  C   UNL     1     -10.139   9.218  70.609  1.00  0.00    -0.339 A  
HETATM    9  C   UNL     1     -10.754  10.319  69.980  1.00  0.00    -0.345 A  
HETATM   10  C   UNL     1     -10.304  10.769  68.722  1.00  0.00    -0.209 A  
HETATM   11  C   UNL     1      -9.213  10.122  68.146  1.00  0.00    -0.135 A  
HETATM   12  C   UNL     1      -8.571   9.033  68.744  1.00  0.00    -0.132 A  
HETATM   13  N   UNL     1      -8.946  10.762  66.960  1.00  0.00    -0.141 NA 
HETATM   14  C   UNL     1      -9.055   8.592  69.980  1.00  0.00    -0.157 A  
HETATM   15  H   UNL     1      -8.193  10.509  66.320  1.00  0.00     0.000 HD 
HETATM   16  C   UNL     1      -9.831  11.784  66.760  1.00  0.00    -0.198 A  
HETATM   17  C   UNL     1     -10.718  11.805  67.821  1.00  0.00    -0.244 A  
BRANCH  17  18
HETATM   18  C   UNL     1     -11.883  12.748  67.979  1.00  0.00    -0.386 C  
BRANCH  18  19
HETATM   19  C   UNL     1     -11.535  13.957  68.876  1.00  0.00    -0.301 C  
BRANCH  19  20
HETATM   20  N   UNL     1     -10.413  14.801  68.412  1.00  0.00    -0.238 NA 
HETATM   21  C   UNL     1      -9.836  15.511  69.560  1.00  0.00    -0.284 C  
HETATM   22  C   UNL     1     -10.828  15.773  67.400  1.00  0.00    -0.306 C  
ENDBRANCH  19  20
ENDBRANCH  18  19
ENDBRANCH  17  18
ENDBRANCH   7   8
ENDBRANCH   4   7
ENDBRANCH   2   4
TORSDOF 6
ENDMDL
MODEL      120
REMARK 921   NORMALIZED FREE ENERGY PREDICTED BY IDOCK:   -4.45 KCAL/MOL
REMARK 922        TOTAL FREE ENERGY PREDICTED BY IDOCK:   -6.05 KCAL/MOL
REMARK 923 INTER-LIGAND FREE ENERGY PREDICTED BY IDOCK:   -5.67 KCAL/MOL
REMARK 924 INTRA-LIGAND FREE ENERGY PREDICTED BY IDOCK:   -0.38 KCAL/MOL
REMARK 927      BINDING AFFINITY PREDICTED BY RF-SCORE:    0.00 PKD
ROOT
HETATM    1  C   UNL     1      -8.003   4.722  71.902  1.00  0.00    -0.105 C  
HETATM    2  N   UNL     1      -8.599   6.049  72.099  1.00  0.00    -0.128 N  
HETATM    3  H   UNL     1      -8.154   6.894  71.742  1.00  0.00     0.000 HD 
ENDROOT
BRANCH   2   4
HETATM    4  S   UNL     1     -10.065   6.111  72.949  1.00  0.00    -0.189 S  
HETATM    5  O   UNL     1     -10.238   4.782  73.494  1.00  0.00    -0.155 OA 
HETATM    6  O   UNL     1      -9.965   7.271  73.809  1.00  0.00    -0.301 OA 
BRANCH   4   7
HETATM    7  C   UNL     1     -11.248   6.388  71.618  1.00  0.00    -0.278 C  
BRANCH   7   8
HETATM    8  C   UNL     1     -11.621   7.845  71.514  1.00  0.00    -0.306 A  
HETATM    9  C   UNL     1     -11.048   8.672  70.527  1.00  0.00    -0.268 A  
HETATM   10  C   UNL     1     -11.453  10.017  70.395  1.00  0.00    -0.389 A  
HETATM   11  C   UNL     1     -12.461  10.483  71.236  1.00  0.00    -0.419 A  
HETATM   12  C   UNL     1     -13.060   9.690  72.220  1.00  0.00    -0.468 A  
HETATM   13  N   UNL     1     -12.701  11.790  70.890  1.00  0.00    -0.283 NA 
HETATM   14  C   UNL     1     -12.620   8.368  72.345  1.00  0.00    -0.372 A  
HETATM   15  H   UNL     1     -13.395  12.392  71.333  1.00  0.00     0.000 HD 
HETATM   16  C   UNL     1     -11.879  12.171  69.867  1.00  0.00    -0.319 A  
HETATM   17  C   UNL     1     -11.059  11.104  69.546  1.00  0.00    -0.311 A  
BRANCH  17  18
HETATM   18  C   UNL     1      -9.974  11.106  68.501  1.00  0.00    -0.204 C  
BRANCH  18  19
HETATM   19  C   UNL     1     -10.499  10.661  67.118  1.00  0.00    -0.245 C  
BRANCH  19  20
HETATM   20  N   UNL     1     -10.483  11.695  66.060  1.00  0.00    -0.243 NA 
HETATM   21  C   UNL     1     -11.798  12.346  66.001  1.00  0.00    -0.395 C  
HETATM   22  C   UNL     1     -10.155  11.143  64.745  1.00  0.00    -0.295 C  
ENDBRANCH  19  20
ENDBRANCH  18  19
ENDBRANCH  17  18
ENDBRANCH   7   8
ENDBRANCH   4   7
ENDBRANCH   2   4
TORSDOF 6
ENDMDL
MODEL      121
REMARK 921   NORMALIZED FREE ENERGY PREDICTED BY IDOCK:   -4.45 KCAL/MOL
REMARK 922        TOTAL FREE ENERGY PREDICTED BY IDOCK:   -6.04 KCAL/MOL
REMARK 923 INTER-LIGAND FREE ENERGY PREDICTED BY IDOCK:   -5.52 KCAL/MOL
REMARK 924 INTRA-LIGAND FREE ENERGY PREDICTED BY IDOCK:   -0.52 KCAL/MOL
REMARK 927      BINDING AFFINITY PREDICTED BY RF-SCORE:    0.00 PKD
ROOT
HETATM    1  C   UNL     1     -10.611  19.757  65.852  1.00  0.00    -0.453 C  
HETATM    2  N   UNL     1     -10.642  19.719  67.320  1.00  0.00    -0.450 N  
HETATM    3  H   UNL     1     -11.288  20.298  67.856  1.00  0.00     0.000 HD 
ENDROOT
BRANCH   2   4
HETATM    4  S   UNL     1      -9.554  18.665  68.081  1.00  0.00    -0.349 S  
HETATM    5  O   UNL     1      -8.608  19.527  68.755  1.00  0.00    -0.357 OA 
HETATM    6  O   UNL     1     -10.375  17.726  68.817  1.00  0.00    -0.367 OA 
BRANCH   4   7
HETATM    7  C   UNL     1      -8.764  17.871  66.669  1.00  0.00    -0.262 C  
BRANCH   7   8
HETATM    8  C   UNL     1      -8.135  16.558  67.062  1.00  0.00    -0.235 A  
HETATM    9  C   UNL     1      -8.769  15.334  66.771  1.00  0.00    -0.304 A  
HETATM   10  C   UNL     1      -8.141  14.110  67.083  1.00  0.00    -0.139 A  
HETATM   11  C   UNL     1      -6.866  14.152  67.643  1.00  0.00    -0.179 A  
HETATM   12  C   UNL     1      -6.202  15.347  67.938  1.00  0.00    -0.167 A  
HETATM   13  N   UNL     1      -6.459  12.851  67.815  1.00  0.00    -0.126 NA 
HETATM   14  C   UNL     1      -6.859  16.545  67.641  1.00  0.00    -0.161 A  
HETATM   15  H   UNL     1      -5.560  12.569  68.204  1.00  0.00     0.000 HD 
HETATM   16  C   UNL     1      -7.431  11.988  67.392  1.00  0.00    -0.152 A  
HETATM   17  C   UNL     1      -8.513  12.731  66.955  1.00  0.00    -0.154 A  
BRANCH  17  18
HETATM   18  C   UNL     1      -9.817  12.176  66.444  1.00  0.00    -0.242 C  
BRANCH  18  19
HETATM   19  C   UNL     1     -10.989  12.461  67.409  1.00  0.00    -0.254 C  
BRANCH  19  20
HETATM   20  N   UNL     1     -11.729  11.274  67.891  1.00  0.00    -0.592 NA 
HETATM   21  C   UNL     1     -11.974  11.411  69.333  1.00  0.00    -0.339 C  
HETATM   22  C   UNL     1     -11.008  10.027  67.638  1.00  0.00    -0.234 C  
ENDBRANCH  19  20
ENDBRANCH  18  19
ENDBRANCH  17  18
ENDBRANCH   7   8
ENDBRANCH   4   7
ENDBRANCH   2   4
TORSDOF 6
ENDMDL
MODEL      122
REMARK 921   NORMALIZED FREE ENERGY PREDICTED BY IDOCK:   -4.43 KCAL/MOL
REMARK 922        TOTAL FREE ENERGY PREDICTED BY IDOCK:   -6.02 KCAL/MOL
REMARK 923 INTER-LIGAND FREE ENERGY PREDICTED BY IDOCK:   -5.59 KCAL/MOL
REMARK 924 INTRA-LIGAND FREE ENERGY PREDICTED BY IDOCK:   -0.43 KCAL/MOL
REMARK 927      BINDING AFFINITY PREDICTED BY RF-SCORE:    0.00 PKD
ROOT
HETATM    1  C   UNL     1     -11.299  16.317  70.243  1.00  0.00    -0.287 C  
HETATM    2  N   UNL     1     -12.671  16.017  70.671  1.00  0.00    -0.534 N  
HETATM    3  H   UNL     1     -13.477  16.277  70.103  1.00  0.00     0.000 HD 
ENDROOT
BRANCH   2   4
HETATM    4  S   UNL     1     -12.853  15.216  72.154  1.00  0.00    -0.376 S  
HETATM    5  O   UNL     1     -11.540  14.691  72.459  1.00  0.00    -0.083 OA 
HETATM    6  O   UNL     1     -13.508  16.165  73.029  1.00  0.00    -0.514 OA 
BRANCH   4   7
HETATM    7  C   UNL     1     -13.965  13.868  71.708  1.00  0.00    -0.339 C  
BRANCH   7   8
HETATM    8  C   UNL     1     -13.196  12.649  71.268  1.00  0.00    -0.119 A  
HETATM    9  C   UNL     1     -12.398  12.673  70.106  1.00  0.00    -0.222 A  
HETATM   10  C   UNL     1     -11.629  11.549  69.740  1.00  0.00    -0.401 A  
HETATM   11  C   UNL     1     -11.651  10.439  70.581  1.00  0.00    -0.349 A  
HETATM   12  C   UNL     1     -12.423  10.380  71.746  1.00  0.00    -0.400 A  
HETATM   13  N   UNL     1     -10.804   9.505  70.036  1.00  0.00    -0.239 NA 
HETATM   14  C   UNL     1     -13.195  11.501  72.071  1.00  0.00    -0.443 A  
HETATM   15  H   UNL     1     -10.613   8.587  70.438  1.00  0.00     0.000 HD 
HETATM   16  C   UNL     1     -10.253   9.979  68.879  1.00  0.00    -0.193 A  
HETATM   17  C   UNL     1     -10.765  11.241  68.638  1.00  0.00    -0.241 A  
BRANCH  17  18
HETATM   18  C   UNL     1     -10.455  12.107  67.445  1.00  0.00    -0.233 C  
BRANCH  18  19
HETATM   19  C   UNL     1      -9.393  13.182  67.766  1.00  0.00    -0.206 C  
BRANCH  19  20
HETATM   20  N   UNL     1      -8.082  12.675  68.227  1.00  0.00    -0.158 NA 
HETATM   21  C   UNL     1      -7.267  13.802  68.698  1.00  0.00    -0.109 C  
HETATM   22  C   UNL     1      -7.360  11.960  67.174  1.00  0.00    -0.142 C  
ENDBRANCH  19  20
ENDBRANCH  18  19
ENDBRANCH  17  18
ENDBRANCH   7   8
ENDBRANCH   4   7
ENDBRANCH   2   4
TORSDOF 6
ENDMDL
MODEL      123
REMARK 921   NORMALIZED FREE ENERGY PREDICTED BY IDOCK:   -4.43 KCAL/MOL
REMARK 922        TOTAL FREE ENERGY PREDICTED BY IDOCK:   -6.01 KCAL/MOL
REMARK 923 INTER-LIGAND FREE ENERGY PREDICTED BY IDOCK:   -5.80 KCAL/MOL
REMARK 924 INTRA-LIGAND FREE ENERGY PREDICTED BY IDOCK:   -0.21 KCAL/MOL
REMARK 927      BINDING AFFINITY PREDICTED BY RF-SCORE:    0.00 PKD
ROOT
HETATM    1  C   UNL     1      -8.335   5.434  72.915  1.00  0.00    -0.112 C  
HETATM    2  N   UNL     1      -9.322   6.149  72.096  1.00  0.00    -0.152 N  
HETATM    3  H   UNL     1      -9.503   5.887  71.127  1.00  0.00     0.000 HD 
ENDROOT
BRANCH   2   4
HETATM    4  S   UNL     1     -10.148   7.431  72.837  1.00  0.00    -0.274 S  
HETATM    5  O   UNL     1     -10.452   6.960  74.170  1.00  0.00    -0.357 OA 
HETATM    6  O   UNL     1      -9.322   8.600  72.620  1.00  0.00    -0.264 OA 
BRANCH   4   7
HETATM    7  C   UNL     1     -11.657   7.510  71.854  1.00  0.00    -0.275 C  
BRANCH   7   8
HETATM    8  C   UNL     1     -11.349   7.492  70.378  1.00  0.00    -0.253 A  
HETATM    9  C   UNL     1     -10.944   8.663  69.706  1.00  0.00    -0.132 A  
HETATM   10  C   UNL     1     -10.593   8.622  68.341  1.00  0.00    -0.169 A  
HETATM   11  C   UNL     1     -10.617   7.387  67.695  1.00  0.00    -0.239 A  
HETATM   12  C   UNL     1     -11.005   6.203  68.330  1.00  0.00    -0.391 A  
HETATM   13  N   UNL     1     -10.203   7.601  66.404  1.00  0.00    -0.485 NA 
HETATM   14  C   UNL     1     -11.372   6.278  69.678  1.00  0.00    -0.492 A  
HETATM   15  H   UNL     1     -10.116   6.875  65.693  1.00  0.00     0.000 HD 
HETATM   16  C   UNL     1      -9.924   8.924  66.205  1.00  0.00    -0.220 A  
HETATM   17  C   UNL     1     -10.184   9.605  67.381  1.00  0.00    -0.283 A  
BRANCH  17  18
HETATM   18  C   UNL     1     -10.050  11.091  67.589  1.00  0.00    -0.208 C  
BRANCH  18  19
HETATM   19  C   UNL     1     -11.075  11.890  66.753  1.00  0.00    -0.308 C  
BRANCH  19  20
HETATM   20  N   UNL     1     -12.033  12.713  67.524  1.00  0.00    -0.429 NA 
HETATM   21  C   UNL     1     -11.953  14.105  67.063  1.00  0.00    -0.439 C  
HETATM   22  C   UNL     1     -11.777  12.664  68.964  1.00  0.00    -0.318 C  
ENDBRANCH  19  20
ENDBRANCH  18  19
ENDBRANCH  17  18
ENDBRANCH   7   8
ENDBRANCH   4   7
ENDBRANCH   2   4
TORSDOF 6
ENDMDL
MODEL      124
REMARK 921   NORMALIZED FREE ENERGY PREDICTED BY IDOCK:   -4.41 KCAL/MOL
REMARK 922        TOTAL FREE ENERGY PREDICTED BY IDOCK:   -5.98 KCAL/MOL
REMARK 923 INTER-LIGAND FREE ENERGY PREDICTED BY IDOCK:   -5.57 KCAL/MOL
REMARK 924 INTRA-LIGAND FREE ENERGY PREDICTED BY IDOCK:   -0.41 KCAL/MOL
REMARK 927      BINDING AFFINITY PREDICTED BY RF-SCORE:    0.00 PKD
ROOT
HETATM    1  C   UNL     1      -7.246  18.071  68.425  1.00  0.00    -0.254 C  
HETATM    2  N   UNL     1      -8.038  18.547  67.284  1.00  0.00    -0.238 N  
HETATM    3  H   UNL     1      -7.810  19.414  66.800  1.00  0.00     0.000 HD 
ENDROOT
BRANCH   2   4
HETATM    4  S   UNL     1      -9.351  17.585  66.809  1.00  0.00    -0.274 S  
HETATM    5  O   UNL     1     -10.455  18.507  66.658  1.00  0.00    -0.385 OA 
HETATM    6  O   UNL     1      -8.870  16.796  65.695  1.00  0.00    -0.461 OA 
BRANCH   4   7
HETATM    7  C   UNL     1      -9.602  16.560  68.272  1.00  0.00    -0.223 C  
BRANCH   7   8
HETATM    8  C   UNL     1     -10.230  15.238  67.910  1.00  0.00    -0.235 A  
HETATM    9  C   UNL     1      -9.606  14.021  68.250  1.00  0.00    -0.224 A  
HETATM   10  C   UNL     1     -10.234  12.790  67.967  1.00  0.00    -0.228 A  
HETATM   11  C   UNL     1     -11.500  12.819  67.386  1.00  0.00    -0.340 A  
HETATM   12  C   UNL     1     -12.154  14.006  67.043  1.00  0.00    -0.455 A  
HETATM   13  N   UNL     1     -11.909  11.515  67.249  1.00  0.00    -0.604 NA 
HETATM   14  C   UNL     1     -11.497  15.212  67.312  1.00  0.00    -0.284 A  
HETATM   15  H   UNL     1     -12.803  11.224  66.856  1.00  0.00     0.000 HD 
HETATM   16  C   UNL     1     -10.948  10.662  67.715  1.00  0.00    -0.306 A  
HETATM   17  C   UNL     1      -9.869  11.415  68.144  1.00  0.00    -0.195 A  
BRANCH  17  18
HETATM   18  C   UNL     1      -8.576  10.872  68.693  1.00  0.00    -0.153 C  
BRANCH  18  19
HETATM   19  C   UNL     1      -8.809   9.849  69.827  1.00  0.00    -0.211 C  
BRANCH  19  20
HETATM   20  N   UNL     1      -7.664   9.625  70.737  1.00  0.00    -0.311 NA 
HETATM   21  C   UNL     1      -6.519  10.420  70.277  1.00  0.00    -0.141 C  
HETATM   22  C   UNL     1      -7.278   8.216  70.811  1.00  0.00    -0.050 C  
ENDBRANCH  19  20
ENDBRANCH  18  19
ENDBRANCH  17  18
ENDBRANCH   7   8
ENDBRANCH   4   7
ENDBRANCH   2   4
TORSDOF 6
ENDMDL
MODEL      125
REMARK 921   NORMALIZED FREE ENERGY PREDICTED BY IDOCK:   -4.40 KCAL/MOL
REMARK 922        TOTAL FREE ENERGY PREDICTED BY IDOCK:   -5.98 KCAL/MOL
REMARK 923 INTER-LIGAND FREE ENERGY PREDICTED BY IDOCK:   -5.43 KCAL/MOL
REMARK 924 INTRA-LIGAND FREE ENERGY PREDICTED BY IDOCK:   -0.55 KCAL/MOL
REMARK 927      BINDING AFFINITY PREDICTED BY RF-SCORE:    0.00 PKD
ROOT
HETATM    1  C   UNL     1      -7.971   6.833  69.178  1.00  0.00    -0.112 C  
HETATM    2  N   UNL     1      -9.081   7.685  68.734  1.00  0.00    -0.140 N  
HETATM    3  H   UNL     1      -9.439   7.643  67.780  1.00  0.00     0.000 HD 
ENDROOT
BRANCH   2   4
HETATM    4  S   UNL     1      -9.740   8.744  69.882  1.00  0.00    -0.183 S  
HETATM    5  O   UNL     1     -10.210   7.890  70.951  1.00  0.00    -0.198 OA 
HETATM    6  O   UNL     1      -8.724   9.749  70.111  1.00  0.00    -0.207 OA 
BRANCH   4   7
HETATM    7  C   UNL     1     -11.143   9.431  68.982  1.00  0.00     0.016 C  
BRANCH   7   8
HETATM    8  C   UNL     1     -11.221  10.927  69.152  1.00  0.00    -0.318 A  
HETATM    9  C   UNL     1     -10.802  11.797  68.126  1.00  0.00    -0.258 A  
HETATM   10  C   UNL     1     -10.941  13.193  68.268  1.00  0.00    -0.278 A  
HETATM   11  C   UNL     1     -11.541  13.677  69.429  1.00  0.00    -0.312 A  
HETATM   12  C   UNL     1     -11.976  12.845  70.465  1.00  0.00    -0.282 A  
HETATM   13  N   UNL     1     -11.595  15.044  69.313  1.00  0.00    -0.297 NA 
HETATM   14  C   UNL     1     -11.803  11.466  70.307  1.00  0.00    -0.438 A  
HETATM   15  H   UNL     1     -11.989  15.672  70.013  1.00  0.00     0.000 HD 
HETATM   16  C   UNL     1     -11.047  15.445  68.127  1.00  0.00    -0.309 A  
HETATM   17  C   UNL     1     -10.596  14.323  67.455  1.00  0.00    -0.276 A  
BRANCH  17  18
HETATM   18  C   UNL     1      -9.888  14.315  66.125  1.00  0.00    -0.335 C  
BRANCH  18  19
HETATM   19  C   UNL     1     -10.851  14.018  64.955  1.00  0.00    -0.410 C  
BRANCH  19  20
HETATM   20  N   UNL     1     -11.140  12.589  64.704  1.00  0.00    -0.293 NA 
HETATM   21  C   UNL     1      -9.953  11.953  64.118  1.00  0.00    -0.262 C  
HETATM   22  C   UNL     1     -12.283  12.399  63.811  1.00  0.00    -0.533 C  
ENDBRANCH  19  20
ENDBRANCH  18  19
ENDBRANCH  17  18
ENDBRANCH   7   8
ENDBRANCH   4   7
ENDBRANCH   2   4
TORSDOF 6
ENDMDL
MODEL      126
REMARK 921   NORMALIZED FREE ENERGY PREDICTED BY IDOCK:   -4.38 KCAL/MOL
REMARK 922        TOTAL FREE ENERGY PREDICTED BY IDOCK:   -5.95 KCAL/MOL
REMARK 923 INTER-LIGAND FREE ENERGY PREDICTED BY IDOCK:   -5.56 KCAL/MOL
REMARK 924 INTRA-LIGAND FREE ENERGY PREDICTED BY IDOCK:   -0.40 KCAL/MOL
REMARK 927      BINDING AFFINITY PREDICTED BY RF-SCORE:    0.00 PKD
ROOT
HETATM    1  C   UNL     1      -8.573   6.127  65.359  1.00  0.00    -0.106 C  
HETATM    2  N   UNL     1      -7.892   7.185  66.116  1.00  0.00    -0.101 N  
HETATM    3  H   UNL     1      -7.032   7.003  66.632  1.00  0.00     0.000 HD 
ENDROOT
BRANCH   2   4
HETATM    4  S   UNL     1      -8.604   8.723  66.092  1.00  0.00    -0.155 S  
HETATM    5  O   UNL     1      -7.856   9.497  67.058  1.00  0.00    -0.098 OA 
HETATM    6  O   UNL     1      -8.655   9.105  64.697  1.00  0.00    -0.173 OA 
BRANCH   4   7
HETATM    7  C   UNL     1     -10.254   8.373  66.731  1.00  0.00    -0.306 C  
BRANCH   7   8
HETATM    8  C   UNL     1     -10.635   9.344  67.819  1.00  0.00    -0.317 A  
HETATM    9  C   UNL     1     -11.084  10.643  67.507  1.00  0.00    -0.367 A  
HETATM   10  C   UNL     1     -11.502  11.521  68.529  1.00  0.00    -0.354 A  
HETATM   11  C   UNL     1     -11.498  11.050  69.840  1.00  0.00    -0.320 A  
HETATM   12  C   UNL     1     -11.069   9.765  70.187  1.00  0.00    -0.335 A  
HETATM   13  N   UNL     1     -11.979  12.064  70.633  1.00  0.00    -0.485 NA 
HETATM   14  C   UNL     1     -10.636   8.925  69.156  1.00  0.00    -0.211 A  
HETATM   15  H   UNL     1     -12.095  12.006  71.644  1.00  0.00     0.000 HD 
HETATM   16  C   UNL     1     -12.280  13.160  69.874  1.00  0.00    -0.225 A  
HETATM   17  C   UNL     1     -11.968  12.877  68.557  1.00  0.00    -0.272 A  
BRANCH  17  18
HETATM   18  C   UNL     1     -12.104  13.825  67.394  1.00  0.00    -0.378 C  
BRANCH  18  19
HETATM   19  C   UNL     1     -10.753  14.083  66.691  1.00  0.00    -0.281 C  
BRANCH  19  20
HETATM   20  N   UNL     1     -10.524  15.468  66.225  1.00  0.00    -0.297 NA 
HETATM   21  C   UNL     1     -11.024  15.604  64.851  1.00  0.00    -0.431 C  
HETATM   22  C   UNL     1      -9.110  15.843  66.265  1.00  0.00    -0.344 C  
ENDBRANCH  19  20
ENDBRANCH  18  19
ENDBRANCH  17  18
ENDBRANCH   7   8
ENDBRANCH   4   7
ENDBRANCH   2   4
TORSDOF 6
ENDMDL
MODEL      127
REMARK 921   NORMALIZED FREE ENERGY PREDICTED BY IDOCK:   -4.38 KCAL/MOL
REMARK 922        TOTAL FREE ENERGY PREDICTED BY IDOCK:   -5.95 KCAL/MOL
REMARK 923 INTER-LIGAND FREE ENERGY PREDICTED BY IDOCK:   -5.32 KCAL/MOL
REMARK 924 INTRA-LIGAND FREE ENERGY PREDICTED BY IDOCK:   -0.63 KCAL/MOL
REMARK 927      BINDING AFFINITY PREDICTED BY RF-SCORE:    0.00 PKD
ROOT
HETATM    1  C   UNL     1      -9.499  10.671  63.936  1.00  0.00    -0.282 C  
HETATM    2  N   UNL     1     -10.790  11.190  64.404  1.00  0.00    -0.320 N  
HETATM    3  H   UNL     1     -11.664  10.950  63.935  1.00  0.00     0.000 HD 
ENDROOT
BRANCH   2   4
HETATM    4  S   UNL     1     -10.762  12.207  65.760  1.00  0.00    -0.277 S  
HETATM    5  O   UNL     1     -10.316  13.488  65.257  1.00  0.00    -0.310 OA 
HETATM    6  O   UNL     1     -12.057  12.053  66.386  1.00  0.00    -0.610 OA 
BRANCH   4   7
HETATM    7  C   UNL     1      -9.464  11.451  66.757  1.00  0.00    -0.182 C  
BRANCH   7   8
HETATM    8  C   UNL     1     -10.028  10.406  67.685  1.00  0.00    -0.205 A  
HETATM    9  C   UNL     1     -10.150   9.063  67.277  1.00  0.00    -0.297 A  
HETATM   10  C   UNL     1     -10.616   8.080  68.175  1.00  0.00    -0.174 A  
HETATM   11  C   UNL     1     -10.906   8.471  69.481  1.00  0.00    -0.125 A  
HETATM   12  C   UNL     1     -10.788   9.791  69.925  1.00  0.00    -0.306 A  
HETATM   13  N   UNL     1     -11.297   7.343  70.160  1.00  0.00    -0.427 NA 
HETATM   14  C   UNL     1     -10.348  10.749  69.005  1.00  0.00    -0.235 A  
HETATM   15  H   UNL     1     -11.567   7.320  71.143  1.00  0.00     0.000 HD 
HETATM   16  C   UNL     1     -11.272   6.255  69.333  1.00  0.00    -0.420 A  
HETATM   17  C   UNL     1     -10.882   6.675  68.074  1.00  0.00    -0.345 A  
BRANCH  17  18
HETATM   18  C   UNL     1     -10.763   5.804  66.851  1.00  0.00    -0.381 C  
BRANCH  18  19
HETATM   19  C   UNL     1      -9.298   5.651  66.386  1.00  0.00    -0.154 C  
BRANCH  19  20
HETATM   20  N   UNL     1      -8.351   5.137  67.400  1.00  0.00    -0.107 NA 
HETATM   21  C   UNL     1      -7.152   5.985  67.414  1.00  0.00    -0.074 C  
HETATM   22  C   UNL     1      -7.960   3.750  67.146  1.00  0.00    -0.091 C  
ENDBRANCH  19  20
ENDBRANCH  18  19
ENDBRANCH  17  18
ENDBRANCH   7   8
ENDBRANCH   4   7
ENDBRANCH   2   4
TORSDOF 6
ENDMDL
MODEL      128
REMARK 921   NORMALIZED FREE ENERGY PREDICTED BY IDOCK:   -4.36 KCAL/MOL
REMARK 922        TOTAL FREE ENERGY PREDICTED BY IDOCK:   -5.92 KCAL/MOL
REMARK 923 INTER-LIGAND FREE ENERGY PREDICTED BY IDOCK:   -5.74 KCAL/MOL
REMARK 924 INTRA-LIGAND FREE ENERGY PREDICTED BY IDOCK:   -0.18 KCAL/MOL
REMARK 927      BINDING AFFINITY PREDICTED BY RF-SCORE:    0.00 PKD
ROOT
HETATM    1  C   UNL     1      -5.929  11.597  66.510  1.00  0.00    -0.036 C  
HETATM    2  N   UNL     1      -7.018  10.872  65.842  1.00  0.00    -0.316 N  
HETATM    3  H   UNL     1      -7.833  11.357  65.468  1.00  0.00     0.000 HD 
ENDROOT
BRANCH   2   4
HETATM    4  S   UNL     1      -6.855   9.189  65.720  1.00  0.00    -0.077 S  
HETATM    5  O   UNL     1      -6.082   8.974  64.516  1.00  0.00    -0.068 OA 
HETATM    6  O   UNL     1      -6.373   8.752  67.013  1.00  0.00    -0.058 OA 
BRANCH   4   7
HETATM    7  C   UNL     1      -8.562   8.674  65.454  1.00  0.00    -0.181 C  
BRANCH   7   8
HETATM    8  C   UNL     1      -9.379   9.787  64.848  1.00  0.00    -0.327 A  
HETATM    9  C   UNL     1     -10.123  10.666  65.659  1.00  0.00    -0.335 A  
HETATM   10  C   UNL     1     -10.830  11.744  65.087  1.00  0.00    -0.351 A  
HETATM   11  C   UNL     1     -10.733  11.935  63.711  1.00  0.00    -0.418 A  
HETATM   12  C   UNL     1      -9.998  11.089  62.874  1.00  0.00    -0.272 A  
HETATM   13  N   UNL     1     -11.467  13.055  63.407  1.00  0.00    -0.670 NA 
HETATM   14  C   UNL     1      -9.327  10.013  63.466  1.00  0.00    -0.301 A  
HETATM   15  H   UNL     1     -11.577  13.443  62.471  1.00  0.00     0.000 HD 
HETATM   16  C   UNL     1     -12.031  13.577  64.538  1.00  0.00    -0.410 A  
HETATM   17  C   UNL     1     -11.686  12.771  65.608  1.00  0.00    -0.443 A  
BRANCH  17  18
HETATM   18  C   UNL     1     -12.130  12.960  67.035  1.00  0.00    -0.296 C  
BRANCH  18  19
HETATM   19  C   UNL     1     -12.140  14.448  67.449  1.00  0.00    -0.313 C  
BRANCH  19  20
HETATM   20  N   UNL     1     -11.099  14.854  68.418  1.00  0.00    -0.262 NA 
HETATM   21  C   UNL     1     -11.736  15.530  69.556  1.00  0.00    -0.365 C  
HETATM   22  C   UNL     1     -10.100  15.743  67.824  1.00  0.00    -0.238 C  
ENDBRANCH  19  20
ENDBRANCH  18  19
ENDBRANCH  17  18
ENDBRANCH   7   8
ENDBRANCH   4   7
ENDBRANCH   2   4
TORSDOF 6
ENDMDL
MODEL      129
REMARK 921   NORMALIZED FREE ENERGY PREDICTED BY IDOCK:   -4.36 KCAL/MOL
REMARK 922        TOTAL FREE ENERGY PREDICTED BY IDOCK:   -5.92 KCAL/MOL
REMARK 923 INTER-LIGAND FREE ENERGY PREDICTED BY IDOCK:   -5.45 KCAL/MOL
REMARK 924 INTRA-LIGAND FREE ENERGY PREDICTED BY IDOCK:   -0.46 KCAL/MOL
REMARK 927      BINDING AFFINITY PREDICTED BY RF-SCORE:    0.00 PKD
ROOT
HETATM    1  C   UNL     1      -8.733   5.451  65.737  1.00  0.00    -0.149 C  
HETATM    2  N   UNL     1      -9.514   4.923  66.862  1.00  0.00    -0.138 N  
HETATM    3  H   UNL     1      -9.553   3.924  67.064  1.00  0.00     0.000 HD 
ENDROOT
BRANCH   2   4
HETATM    4  S   UNL     1     -10.349   6.052  67.812  1.00  0.00    -0.232 S  
HETATM    5  O   UNL     1     -11.451   6.493  66.987  1.00  0.00    -0.223 OA 
HETATM    6  O   UNL     1     -10.573   5.398  69.084  1.00  0.00    -0.234 OA 
BRANCH   4   7
HETATM    7  C   UNL     1      -9.130   7.372  67.967  1.00  0.00    -0.130 C  
BRANCH   7   8
HETATM    8  C   UNL     1      -9.710   8.569  68.676  1.00  0.00    -0.171 A  
HETATM    9  C   UNL     1     -10.314   9.618  67.955  1.00  0.00    -0.271 A  
HETATM   10  C   UNL     1     -10.913  10.701  68.631  1.00  0.00    -0.291 A  
HETATM   11  C   UNL     1     -10.926  10.678  70.024  1.00  0.00    -0.259 A  
HETATM   12  C   UNL     1     -10.345   9.650  70.774  1.00  0.00    -0.356 A  
HETATM   13  N   UNL     1     -11.591  11.806  70.439  1.00  0.00    -0.506 NA 
HETATM   14  C   UNL     1      -9.736   8.601  70.077  1.00  0.00    -0.176 A  
HETATM   15  H   UNL     1     -11.760  12.056  71.413  1.00  0.00     0.000 HD 
HETATM   16  C   UNL     1     -11.993  12.546  69.363  1.00  0.00    -0.256 A  
HETATM   17  C   UNL     1     -11.563  11.909  68.212  1.00  0.00    -0.390 A  
BRANCH  17  18
HETATM   18  C   UNL     1     -11.757  12.406  66.803  1.00  0.00    -0.430 C  
BRANCH  18  19
HETATM   19  C   UNL     1     -10.594  13.313  66.341  1.00  0.00    -0.284 C  
BRANCH  19  20
HETATM   20  N   UNL     1     -10.804  14.767  66.516  1.00  0.00    -0.313 NA 
HETATM   21  C   UNL     1     -10.619  15.440  65.224  1.00  0.00    -0.428 C  
HETATM   22  C   UNL     1      -9.889  15.347  67.500  1.00  0.00    -0.217 C  
ENDBRANCH  19  20
ENDBRANCH  18  19
ENDBRANCH  17  18
ENDBRANCH   7   8
ENDBRANCH   4   7
ENDBRANCH   2   4
TORSDOF 6
ENDMDL
MODEL      130
REMARK 921   NORMALIZED FREE ENERGY PREDICTED BY IDOCK:   -4.35 KCAL/MOL
REMARK 922        TOTAL FREE ENERGY PREDICTED BY IDOCK:   -5.91 KCAL/MOL
REMARK 923 INTER-LIGAND FREE ENERGY PREDICTED BY IDOCK:   -5.34 KCAL/MOL
REMARK 924 INTRA-LIGAND FREE ENERGY PREDICTED BY IDOCK:   -0.57 KCAL/MOL
REMARK 927      BINDING AFFINITY PREDICTED BY RF-SCORE:    0.00 PKD
ROOT
HETATM    1  C   UNL     1     -12.082  15.022  64.414  1.00  0.00    -0.359 C  
HETATM    2  N   UNL     1     -10.798  14.786  65.086  1.00  0.00    -0.375 N  
HETATM    3  H   UNL     1     -10.032  15.456  65.027  1.00  0.00     0.000 HD 
ENDROOT
BRANCH   2   4
HETATM    4  S   UNL     1     -10.649  13.345  65.967  1.00  0.00    -0.291 S  
HETATM    5  O   UNL     1      -9.296  13.357  66.479  1.00  0.00    -0.256 OA 
HETATM    6  O   UNL     1     -11.791  13.314  66.856  1.00  0.00    -0.364 OA 
BRANCH   4   7
HETATM    7  C   UNL     1     -10.803  12.104  64.668  1.00  0.00    -0.306 C  
BRANCH   7   8
HETATM    8  C   UNL     1     -10.088  10.831  65.042  1.00  0.00    -0.377 A  
HETATM    9  C   UNL     1     -10.406  10.141  66.229  1.00  0.00    -0.245 A  
HETATM   10  C   UNL     1      -9.779   8.916  66.536  1.00  0.00    -0.322 A  
HETATM   11  C   UNL     1      -8.875   8.393  65.614  1.00  0.00    -0.156 A  
HETATM   12  C   UNL     1      -8.541   9.043  64.422  1.00  0.00    -0.174 A  
HETATM   13  N   UNL     1      -8.437   7.192  66.117  1.00  0.00    -0.136 NA 
HETATM   14  C   UNL     1      -9.159  10.269  64.155  1.00  0.00    -0.284 A  
HETATM   15  H   UNL     1      -7.769   6.577  65.654  1.00  0.00     0.000 HD 
HETATM   16  C   UNL     1      -9.024   6.938  67.325  1.00  0.00    -0.118 A  
HETATM   17  C   UNL     1      -9.847   8.004  67.641  1.00  0.00    -0.214 A  
BRANCH  17  18
HETATM   18  C   UNL     1     -10.652   8.153  68.905  1.00  0.00    -0.161 C  
BRANCH  18  19
HETATM   19  C   UNL     1     -10.033   9.188  69.871  1.00  0.00    -0.197 C  
BRANCH  19  20
HETATM   20  N   UNL     1     -10.988  10.105  70.531  1.00  0.00    -0.314 NA 
HETATM   21  C   UNL     1     -11.791   9.350  71.501  1.00  0.00    -0.385 C  
HETATM   22  C   UNL     1     -11.878  10.766  69.575  1.00  0.00    -0.308 C  
ENDBRANCH  19  20
ENDBRANCH  18  19
ENDBRANCH  17  18
ENDBRANCH   7   8
ENDBRANCH   4   7
ENDBRANCH   2   4
TORSDOF 6
ENDMDL
MODEL      131
REMARK 921   NORMALIZED FREE ENERGY PREDICTED BY IDOCK:   -4.35 KCAL/MOL
REMARK 922        TOTAL FREE ENERGY PREDICTED BY IDOCK:   -5.90 KCAL/MOL
REMARK 923 INTER-LIGAND FREE ENERGY PREDICTED BY IDOCK:   -5.64 KCAL/MOL
REMARK 924 INTRA-LIGAND FREE ENERGY PREDICTED BY IDOCK:   -0.26 KCAL/MOL
REMARK 927      BINDING AFFINITY PREDICTED BY RF-SCORE:    0.00 PKD
ROOT
HETATM    1  C   UNL     1      -8.509  15.040  68.369  1.00  0.00    -0.153 C  
HETATM    2  N   UNL     1      -9.733  14.231  68.323  1.00  0.00    -0.215 N  
HETATM    3  H   UNL     1      -9.750  13.269  68.661  1.00  0.00     0.000 HD 
ENDROOT
BRANCH   2   4
HETATM    4  S   UNL     1     -11.117  14.970  67.681  1.00  0.00    -0.324 S  
HETATM    5  O   UNL     1     -11.578  15.865  68.720  1.00  0.00    -0.373 OA 
HETATM    6  O   UNL     1     -10.723  15.466  66.380  1.00  0.00    -0.306 OA 
BRANCH   4   7
HETATM    7  C   UNL     1     -12.243  13.571  67.530  1.00  0.00    -0.206 C  
BRANCH   7   8
HETATM    8  C   UNL     1     -11.522  12.340  67.042  1.00  0.00    -0.419 A  
HETATM    9  C   UNL     1     -11.212  11.283  67.921  1.00  0.00    -0.353 A  
HETATM   10  C   UNL     1     -10.597  10.108  67.441  1.00  0.00    -0.329 A  
HETATM   11  C   UNL     1     -10.349  10.010  66.074  1.00  0.00    -0.152 A  
HETATM   12  C   UNL     1     -10.650  11.034  65.170  1.00  0.00    -0.295 A  
HETATM   13  N   UNL     1      -9.790   8.775  65.855  1.00  0.00    -0.460 NA 
HETATM   14  C   UNL     1     -11.236  12.198  65.678  1.00  0.00    -0.381 A  
HETATM   15  H   UNL     1      -9.506   8.419  64.942  1.00  0.00     0.000 HD 
HETATM   16  C   UNL     1      -9.669   8.090  67.031  1.00  0.00    -0.211 A  
HETATM   17  C   UNL     1     -10.132   8.898  68.054  1.00  0.00    -0.239 A  
BRANCH  17  18
HETATM   18  C   UNL     1     -10.141   8.549  69.520  1.00  0.00    -0.200 C  
BRANCH  18  19
HETATM   19  C   UNL     1     -11.139   7.415  69.842  1.00  0.00    -0.190 C  
BRANCH  19  20
HETATM   20  N   UNL     1     -10.797   6.568  71.006  1.00  0.00    -0.242 NA 
HETATM   21  C   UNL     1     -10.394   5.237  70.533  1.00  0.00    -0.266 C  
HETATM   22  C   UNL     1     -11.912   6.433  71.943  1.00  0.00    -0.329 C  
ENDBRANCH  19  20
ENDBRANCH  18  19
ENDBRANCH  17  18
ENDBRANCH   7   8
ENDBRANCH   4   7
ENDBRANCH   2   4
TORSDOF 6
ENDMDL
MODEL      132
REMARK 921   NORMALIZED FREE ENERGY PREDICTED BY IDOCK:   -4.34 KCAL/MOL
REMARK 922        TOTAL FREE ENERGY PREDICTED BY IDOCK:   -5.90 KCAL/MOL
REMARK 923 INTER-LIGAND FREE ENERGY PREDICTED BY IDOCK:   -5.52 KCAL/MOL
REMARK 924 INTRA-LIGAND FREE ENERGY PREDICTED BY IDOCK:   -0.37 KCAL/MOL
REMARK 927      BINDING AFFINITY PREDICTED BY RF-SCORE:    0.00 PKD
ROOT
HETATM    1  C   UNL     1      -9.250   9.281  70.761  1.00  0.00    -0.253 C  
HETATM    2  N   UNL     1      -9.393  10.404  69.825  1.00  0.00    -0.411 N  
HETATM    3  H   UNL     1      -8.583  10.909  69.468  1.00  0.00     0.000 HD 
ENDROOT
BRANCH   2   4
HETATM    4  S   UNL     1     -10.971  10.821  69.366  1.00  0.00    -0.269 S  
HETATM    5  O   UNL     1     -11.383   9.778  68.453  1.00  0.00    -0.087 OA 
HETATM    6  O   UNL     1     -11.683  11.065  70.602  1.00  0.00    -0.329 OA 
BRANCH   4   7
HETATM    7  C   UNL     1     -10.695  12.356  68.461  1.00  0.00    -0.238 C  
BRANCH   7   8
HETATM    8  C   UNL     1     -10.750  12.129  66.972  1.00  0.00    -0.272 A  
HETATM    9  C   UNL     1      -9.710  11.455  66.301  1.00  0.00    -0.239 A  
HETATM   10  C   UNL     1      -9.802  11.189  64.919  1.00  0.00    -0.316 A  
HETATM   11  C   UNL     1     -10.965  11.572  64.254  1.00  0.00    -0.341 A  
HETATM   12  C   UNL     1     -12.022  12.234  64.887  1.00  0.00    -0.420 A  
HETATM   13  N   UNL     1     -10.831  11.173  62.947  1.00  0.00    -0.806 NA 
HETATM   14  C   UNL     1     -11.892  12.507  66.253  1.00  0.00    -0.453 A  
HETATM   15  H   UNL     1     -11.532  11.315  62.220  1.00  0.00     0.000 HD 
HETATM   16  C   UNL     1      -9.625  10.558  62.757  1.00  0.00    -0.289 A  
HETATM   17  C   UNL     1      -8.935  10.574  63.956  1.00  0.00    -0.235 A  
BRANCH  17  18
HETATM   18  C   UNL     1      -7.546  10.038  64.183  1.00  0.00    -0.140 C  
BRANCH  18  19
HETATM   19  C   UNL     1      -7.528   8.882  65.207  1.00  0.00    -0.089 C  
BRANCH  19  20
HETATM   20  N   UNL     1      -7.964   7.564  64.698  1.00  0.00    -0.139 NA 
HETATM   21  C   UNL     1      -8.474   6.759  65.815  1.00  0.00    -0.147 C  
HETATM   22  C   UNL     1      -6.883   6.837  64.031  1.00  0.00    -0.050 C  
ENDBRANCH  19  20
ENDBRANCH  18  19
ENDBRANCH  17  18
ENDBRANCH   7   8
ENDBRANCH   4   7
ENDBRANCH   2   4
TORSDOF 6
ENDMDL
MODEL      133
REMARK 921   NORMALIZED FREE ENERGY PREDICTED BY IDOCK:   -4.34 KCAL/MOL
REMARK 922        TOTAL FREE ENERGY PREDICTED BY IDOCK:   -5.89 KCAL/MOL
REMARK 923 INTER-LIGAND FREE ENERGY PREDICTED BY IDOCK:   -5.44 KCAL/MOL
REMARK 924 INTRA-LIGAND FREE ENERGY PREDICTED BY IDOCK:   -0.45 KCAL/MOL
REMARK 927      BINDING AFFINITY PREDICTED BY RF-SCORE:    0.00 PKD
ROOT
HETATM    1  C   UNL     1      -7.359  18.502  68.405  1.00  0.00    -0.283 C  
HETATM    2  N   UNL     1      -8.371  18.867  67.406  1.00  0.00    -0.273 N  
HETATM    3  H   UNL     1      -8.277  19.705  66.832  1.00  0.00     0.000 HD 
ENDROOT
BRANCH   2   4
HETATM    4  S   UNL     1      -9.704  17.831  67.251  1.00  0.00    -0.295 S  
HETATM    5  O   UNL     1     -10.848  18.635  67.619  1.00  0.00    -0.418 OA 
HETATM    6  O   UNL     1      -9.587  17.245  65.933  1.00  0.00    -0.500 OA 
BRANCH   4   7
HETATM    7  C   UNL     1      -9.370  16.611  68.536  1.00  0.00    -0.236 C  
BRANCH   7   8
HETATM    8  C   UNL     1     -10.132  15.334  68.288  1.00  0.00    -0.225 A  
HETATM    9  C   UNL     1      -9.512  14.227  67.675  1.00  0.00    -0.211 A  
HETATM   10  C   UNL     1     -10.213  13.015  67.508  1.00  0.00    -0.221 A  
HETATM   11  C   UNL     1     -11.513  12.936  68.004  1.00  0.00    -0.319 A  
HETATM   12  C   UNL     1     -12.158  14.010  68.625  1.00  0.00    -0.332 A  
HETATM   13  N   UNL     1     -11.961  11.661  67.757  1.00  0.00    -0.623 NA 
HETATM   14  C   UNL     1     -11.447  15.208  68.755  1.00  0.00    -0.335 A  
HETATM   15  H   UNL     1     -12.882  11.308  68.015  1.00  0.00     0.000 HD 
HETATM   16  C   UNL     1     -10.997  10.932  67.118  1.00  0.00    -0.272 A  
HETATM   17  C   UNL     1      -9.899  11.748  66.913  1.00  0.00    -0.221 A  
BRANCH  17  18
HETATM   18  C   UNL     1      -8.628  11.357  66.205  1.00  0.00    -0.128 C  
BRANCH  18  19
HETATM   19  C   UNL     1      -8.285   9.864  66.407  1.00  0.00    -0.117 C  
BRANCH  19  20
HETATM   20  N   UNL     1      -7.929   9.114  65.183  1.00  0.00    -0.113 NA 
HETATM   21  C   UNL     1      -8.545   9.766  64.021  1.00  0.00    -0.197 C  
HETATM   22  C   UNL     1      -8.361   7.717  65.240  1.00  0.00    -0.122 C  
ENDBRANCH  19  20
ENDBRANCH  18  19
ENDBRANCH  17  18
ENDBRANCH   7   8
ENDBRANCH   4   7
ENDBRANCH   2   4
TORSDOF 6
ENDMDL
MODEL      134
REMARK 921   NORMALIZED FREE ENERGY PREDICTED BY IDOCK:   -4.33 KCAL/MOL
REMARK 922        TOTAL FREE ENERGY PREDICTED BY IDOCK:   -5.89 KCAL/MOL
REMARK 923 INTER-LIGAND FREE ENERGY PREDICTED BY IDOCK:   -5.49 KCAL/MOL
REMARK 924 INTRA-LIGAND FREE ENERGY PREDICTED BY IDOCK:   -0.39 KCAL/MOL
REMARK 927      BINDING AFFINITY PREDICTED BY RF-SCORE:    0.00 PKD
ROOT
HETATM    1  C   UNL     1      -7.483  11.433  68.232  1.00  0.00    -0.101 C  
HETATM    2  N   UNL     1      -8.017  10.218  67.603  1.00  0.00    -0.102 N  
HETATM    3  H   UNL     1      -7.719   9.923  66.673  1.00  0.00     0.000 HD 
ENDROOT
BRANCH   2   4
HETATM    4  S   UNL     1      -9.151   9.329  68.494  1.00  0.00    -0.132 S  
HETATM    5  O   UNL     1      -8.554   8.022  68.662  1.00  0.00    -0.127 OA 
HETATM    6  O   UNL     1      -9.484  10.157  69.633  1.00  0.00    -0.222 OA 
BRANCH   4   7
HETATM    7  C   UNL     1     -10.530   9.230  67.337  1.00  0.00    -0.273 C  
BRANCH   7   8
HETATM    8  C   UNL     1     -10.594  10.454  66.459  1.00  0.00    -0.220 A  
HETATM    9  C   UNL     1     -10.946  11.711  66.990  1.00  0.00    -0.338 A  
HETATM   10  C   UNL     1     -10.937  12.862  66.175  1.00  0.00    -0.304 A  
HETATM   11  C   UNL     1     -10.531  12.723  64.849  1.00  0.00    -0.321 A  
HETATM   12  C   UNL     1     -10.167  11.494  64.289  1.00  0.00    -0.361 A  
HETATM   13  N   UNL     1     -10.571  13.974  64.284  1.00  0.00    -0.547 NA 
HETATM   14  C   UNL     1     -10.209  10.366  65.115  1.00  0.00    -0.326 A  
HETATM   15  H   UNL     1     -10.320  14.183  63.318  1.00  0.00     0.000 HD 
HETATM   16  C   UNL     1     -10.993  14.898  65.198  1.00  0.00    -0.399 A  
HETATM   17  C   UNL     1     -11.264  14.242  66.386  1.00  0.00    -0.337 A  
BRANCH  17  18
HETATM   18  C   UNL     1     -11.794  14.878  67.644  1.00  0.00    -0.268 C  
BRANCH  18  19
HETATM   19  C   UNL     1     -10.733  14.919  68.766  1.00  0.00    -0.252 C  
BRANCH  19  20
HETATM   20  N   UNL     1     -11.200  14.512  70.109  1.00  0.00    -0.196 NA 
HETATM   21  C   UNL     1     -12.368  13.632  69.968  1.00  0.00    -0.278 C  
HETATM   22  C   UNL     1     -11.556  15.658  70.947  1.00  0.00    -0.389 C  
ENDBRANCH  19  20
ENDBRANCH  18  19
ENDBRANCH  17  18
ENDBRANCH   7   8
ENDBRANCH   4   7
ENDBRANCH   2   4
TORSDOF 6
ENDMDL
MODEL      135
REMARK 921   NORMALIZED FREE ENERGY PREDICTED BY IDOCK:   -4.33 KCAL/MOL
REMARK 922        TOTAL FREE ENERGY PREDICTED BY IDOCK:   -5.88 KCAL/MOL
REMARK 923 INTER-LIGAND FREE ENERGY PREDICTED BY IDOCK:   -5.95 KCAL/MOL
REMARK 924 INTRA-LIGAND FREE ENERGY PREDICTED BY IDOCK:    0.08 KCAL/MOL
REMARK 927      BINDING AFFINITY PREDICTED BY RF-SCORE:    0.00 PKD
ROOT
HETATM    1  C   UNL     1     -12.529  15.739  71.245  1.00  0.00    -0.448 C  
HETATM    2  N   UNL     1     -12.752  15.410  69.831  1.00  0.00    -0.630 N  
HETATM    3  H   UNL     1     -13.685  15.215  69.468  1.00  0.00     0.000 HD 
ENDROOT
BRANCH   2   4
HETATM    4  S   UNL     1     -11.385  15.369  68.829  1.00  0.00    -0.340 S  
HETATM    5  O   UNL     1     -11.344  16.670  68.199  1.00  0.00    -0.289 OA 
HETATM    6  O   UNL     1     -10.303  14.904  69.670  1.00  0.00    -0.205 OA 
BRANCH   4   7
HETATM    7  C   UNL     1     -11.854  14.115  67.621  1.00  0.00    -0.392 C  
BRANCH   7   8
HETATM    8  C   UNL     1     -11.748  12.729  68.204  1.00  0.00    -0.392 A  
HETATM    9  C   UNL     1     -11.142  11.682  67.481  1.00  0.00    -0.333 A  
HETATM   10  C   UNL     1     -10.987  10.406  68.061  1.00  0.00    -0.347 A  
HETATM   11  C   UNL     1     -11.410  10.229  69.377  1.00  0.00    -0.221 A  
HETATM   12  C   UNL     1     -12.007  11.245  70.129  1.00  0.00    -0.452 A  
HETATM   13  N   UNL     1     -11.119   8.931  69.721  1.00  0.00    -0.408 NA 
HETATM   14  C   UNL     1     -12.171  12.494  69.519  1.00  0.00    -0.139 A  
HETATM   15  H   UNL     1     -11.312   8.513  70.631  1.00  0.00     0.000 HD 
HETATM   16  C   UNL     1     -10.535   8.279  68.672  1.00  0.00    -0.168 A  
HETATM   17  C   UNL     1     -10.461   9.153  67.602  1.00  0.00    -0.323 A  
BRANCH  17  18
HETATM   18  C   UNL     1      -9.924   8.830  66.233  1.00  0.00    -0.315 C  
BRANCH  18  19
HETATM   19  C   UNL     1      -8.379   8.799  66.206  1.00  0.00    -0.118 C  
BRANCH  19  20
HETATM   20  N   UNL     1      -7.727   9.877  65.432  1.00  0.00    -0.124 NA 
HETATM   21  C   UNL     1      -7.376  10.978  66.338  1.00  0.00    -0.128 C  
HETATM   22  C   UNL     1      -8.579  10.386  64.357  1.00  0.00    -0.179 C  
ENDBRANCH  19  20
ENDBRANCH  18  19
ENDBRANCH  17  18
ENDBRANCH   7   8
ENDBRANCH   4   7
ENDBRANCH   2   4
TORSDOF 6
ENDMDL
MODEL      136
REMARK 921   NORMALIZED FREE ENERGY PREDICTED BY IDOCK:   -4.33 KCAL/MOL
REMARK 922        TOTAL FREE ENERGY PREDICTED BY IDOCK:   -5.87 KCAL/MOL
REMARK 923 INTER-LIGAND FREE ENERGY PREDICTED BY IDOCK:   -5.69 KCAL/MOL
REMARK 924 INTRA-LIGAND FREE ENERGY PREDICTED BY IDOCK:   -0.18 KCAL/MOL
REMARK 927      BINDING AFFINITY PREDICTED BY RF-SCORE:    0.00 PKD
ROOT
HETATM    1  C   UNL     1     -10.612   4.619  65.699  1.00  0.00    -0.203 C  
HETATM    2  N   UNL     1     -10.920   5.864  66.414  1.00  0.00    -0.734 N  
HETATM    3  H   UNL     1     -11.453   6.615  65.975  1.00  0.00     0.000 HD 
ENDROOT
BRANCH   2   4
HETATM    4  S   UNL     1     -10.348   5.996  68.004  1.00  0.00    -0.228 S  
HETATM    5  O   UNL     1     -11.488   6.437  68.777  1.00  0.00    -0.283 OA 
HETATM    6  O   UNL     1      -9.688   4.738  68.284  1.00  0.00    -0.143 OA 
BRANCH   4   7
HETATM    7  C   UNL     1      -9.152   7.337  67.854  1.00  0.00    -0.132 C  
BRANCH   7   8
HETATM    8  C   UNL     1      -9.777   8.556  67.222  1.00  0.00    -0.239 A  
HETATM    9  C   UNL     1     -10.414   9.535  68.010  1.00  0.00    -0.279 A  
HETATM   10  C   UNL     1     -10.936  10.704  67.418  1.00  0.00    -0.361 A  
HETATM   11  C   UNL     1     -10.762  10.877  66.046  1.00  0.00    -0.140 A  
HETATM   12  C   UNL     1     -10.127   9.932  65.234  1.00  0.00    -0.227 A  
HETATM   13  N   UNL     1     -11.314  12.092  65.721  1.00  0.00    -0.339 NA 
HETATM   14  C   UNL     1      -9.642   8.771  65.845  1.00  0.00    -0.255 A  
HETATM   15  H   UNL     1     -11.332  12.491  64.783  1.00  0.00     0.000 HD 
HETATM   16  C   UNL     1     -11.837  12.691  66.833  1.00  0.00    -0.355 A  
HETATM   17  C   UNL     1     -11.651  11.845  67.912  1.00  0.00    -0.393 A  
BRANCH  17  18
HETATM   18  C   UNL     1     -12.115  12.097  69.322  1.00  0.00    -0.234 C  
BRANCH  18  19
HETATM   19  C   UNL     1     -11.570  13.429  69.884  1.00  0.00    -0.200 C  
BRANCH  19  20
HETATM   20  N   UNL     1     -12.584  14.462  70.189  1.00  0.00    -0.332 NA 
HETATM   21  C   UNL     1     -11.905  15.720  70.529  1.00  0.00    -0.375 C  
HETATM   22  C   UNL     1     -13.463  14.072  71.292  1.00  0.00    -0.240 C  
ENDBRANCH  19  20
ENDBRANCH  18  19
ENDBRANCH  17  18
ENDBRANCH   7   8
ENDBRANCH   4   7
ENDBRANCH   2   4
TORSDOF 6
ENDMDL
MODEL      137
REMARK 921   NORMALIZED FREE ENERGY PREDICTED BY IDOCK:   -4.31 KCAL/MOL
REMARK 922        TOTAL FREE ENERGY PREDICTED BY IDOCK:   -5.85 KCAL/MOL
REMARK 923 INTER-LIGAND FREE ENERGY PREDICTED BY IDOCK:   -5.51 KCAL/MOL
REMARK 924 INTRA-LIGAND FREE ENERGY PREDICTED BY IDOCK:   -0.34 KCAL/MOL
REMARK 927      BINDING AFFINITY PREDICTED BY RF-SCORE:    0.00 PKD
ROOT
HETATM    1  C   UNL     1     -12.494  14.267  64.567  1.00  0.00    -0.333 C  
HETATM    2  N   UNL     1     -12.678  13.009  65.302  1.00  0.00    -0.590 N  
HETATM    3  H   UNL     1     -13.347  12.303  64.995  1.00  0.00     0.000 HD 
ENDROOT
BRANCH   2   4
HETATM    4  S   UNL     1     -11.726  12.784  66.687  1.00  0.00    -0.389 S  
HETATM    5  O   UNL     1     -12.068  13.885  67.559  1.00  0.00    -0.389 OA 
HETATM    6  O   UNL     1     -11.942  11.410  67.087  1.00  0.00    -0.532 OA 
BRANCH   4   7
HETATM    7  C   UNL     1     -10.063  13.015  66.028  1.00  0.00    -0.284 C  
BRANCH   7   8
HETATM    8  C   UNL     1      -9.671  11.874  65.123  1.00  0.00    -0.197 A  
HETATM    9  C   UNL     1      -9.053  10.718  65.639  1.00  0.00    -0.215 A  
HETATM   10  C   UNL     1      -8.751   9.629  64.795  1.00  0.00    -0.219 A  
HETATM   11  C   UNL     1      -9.122   9.717  63.455  1.00  0.00    -0.229 A  
HETATM   12  C   UNL     1      -9.745  10.844  62.909  1.00  0.00    -0.349 A  
HETATM   13  N   UNL     1      -8.760   8.533  62.859  1.00  0.00    -0.430 NA 
HETATM   14  C   UNL     1     -10.009  11.919  63.764  1.00  0.00    -0.379 A  
HETATM   15  H   UNL     1      -8.912   8.306  61.877  1.00  0.00     0.000 HD 
HETATM   16  C   UNL     1      -8.169   7.703  63.770  1.00  0.00     0.042 A  
HETATM   17  C   UNL     1      -8.113   8.359  64.986  1.00  0.00    -0.147 A  
BRANCH  17  18
HETATM   18  C   UNL     1      -7.501   7.821  66.253  1.00  0.00    -0.079 C  
BRANCH  18  19
HETATM   19  C   UNL     1      -8.485   6.929  67.041  1.00  0.00    -0.121 C  
BRANCH  19  20
HETATM   20  N   UNL     1      -9.917   7.106  66.715  1.00  0.00    -0.214 NA 
HETATM   21  C   UNL     1     -10.549   7.937  67.749  1.00  0.00    -0.175 C  
HETATM   22  C   UNL     1     -10.628   5.831  66.617  1.00  0.00    -0.280 C  
ENDBRANCH  19  20
ENDBRANCH  18  19
ENDBRANCH  17  18
ENDBRANCH   7   8
ENDBRANCH   4   7
ENDBRANCH   2   4
TORSDOF 6
ENDMDL
MODEL      138
REMARK 921   NORMALIZED FREE ENERGY PREDICTED BY IDOCK:   -4.30 KCAL/MOL
REMARK 922        TOTAL FREE ENERGY PREDICTED BY IDOCK:   -5.84 KCAL/MOL
REMARK 923 INTER-LIGAND FREE ENERGY PREDICTED BY IDOCK:   -5.33 KCAL/MOL
REMARK 924 INTRA-LIGAND FREE ENERGY PREDICTED BY IDOCK:   -0.52 KCAL/MOL
REMARK 927      BINDING AFFINITY PREDICTED BY RF-SCORE:    0.00 PKD
ROOT
HETATM    1  C   UNL     1     -11.114   6.329  68.491  1.00  0.00    -0.308 C  
HETATM    2  N   UNL     1     -10.922   7.181  67.311  1.00  0.00    -0.549 N  
HETATM    3  H   UNL     1     -11.561   7.147  66.517  1.00  0.00     0.000 HD 
ENDROOT
BRANCH   2   4
HETATM    4  S   UNL     1      -9.587   8.226  67.330  1.00  0.00    -0.172 S  
HETATM    5  O   UNL     1      -8.574   7.525  68.088  1.00  0.00    -0.123 OA 
HETATM    6  O   UNL     1      -9.370   8.602  65.950  1.00  0.00    -0.219 OA 
BRANCH   4   7
HETATM    7  C   UNL     1     -10.222   9.614  68.290  1.00  0.00    -0.186 C  
BRANCH   7   8
HETATM    8  C   UNL     1      -9.614  10.916  67.834  1.00  0.00    -0.175 A  
HETATM    9  C   UNL     1     -10.396  11.896  67.190  1.00  0.00    -0.235 A  
HETATM   10  C   UNL     1      -9.833  13.138  66.829  1.00  0.00    -0.251 A  
HETATM   11  C   UNL     1      -8.503  13.377  67.166  1.00  0.00    -0.170 A  
HETATM   12  C   UNL     1      -7.699  12.433  67.812  1.00  0.00    -0.139 A  
HETATM   13  N   UNL     1      -8.205  14.652  66.748  1.00  0.00    -0.385 NA 
HETATM   14  C   UNL     1      -8.276  11.201  68.136  1.00  0.00    -0.131 A  
HETATM   15  H   UNL     1      -7.300  15.106  66.865  1.00  0.00     0.000 HD 
HETATM   16  C   UNL     1      -9.294  15.225  66.153  1.00  0.00    -0.325 A  
HETATM   17  C   UNL     1     -10.326  14.303  66.153  1.00  0.00    -0.305 A  
BRANCH  17  18
HETATM   18  C   UNL     1     -11.694  14.509  65.557  1.00  0.00    -0.343 C  
BRANCH  18  19
HETATM   19  C   UNL     1     -11.815  13.883  64.150  1.00  0.00    -0.385 C  
BRANCH  19  20
HETATM   20  N   UNL     1     -11.851  12.405  64.103  1.00  0.00    -0.381 NA 
HETATM   21  C   UNL     1     -10.639  11.914  63.435  1.00  0.00    -0.430 C  
HETATM   22  C   UNL     1     -13.031  11.898  63.401  1.00  0.00    -0.115 C  
ENDBRANCH  19  20
ENDBRANCH  18  19
ENDBRANCH  17  18
ENDBRANCH   7   8
ENDBRANCH   4   7
ENDBRANCH   2   4
TORSDOF 6
ENDMDL
MODEL      139
REMARK 921   NORMALIZED FREE ENERGY PREDICTED BY IDOCK:   -4.30 KCAL/MOL
REMARK 922        TOTAL FREE ENERGY PREDICTED BY IDOCK:   -5.83 KCAL/MOL
REMARK 923 INTER-LIGAND FREE ENERGY PREDICTED BY IDOCK:   -5.38 KCAL/MOL
REMARK 924 INTRA-LIGAND FREE ENERGY PREDICTED BY IDOCK:   -0.45 KCAL/MOL
REMARK 927      BINDING AFFINITY PREDICTED BY RF-SCORE:    0.00 PKD
ROOT
HETATM    1  C   UNL     1     -14.296   8.490  72.047  1.00  0.00    -0.447 C  
HETATM    2  N   UNL     1     -13.098   8.698  72.872  1.00  0.00    -0.589 N  
HETATM    3  H   UNL     1     -13.136   9.220  73.747  1.00  0.00     0.000 HD 
ENDROOT
BRANCH   2   4
HETATM    4  S   UNL     1     -11.650   8.029  72.300  1.00  0.00    -0.391 S  
HETATM    5  O   UNL     1     -10.989   9.109  71.601  1.00  0.00    -0.335 OA 
HETATM    6  O   UNL     1     -11.040   7.388  73.445  1.00  0.00    -0.340 OA 
BRANCH   4   7
HETATM    7  C   UNL     1     -12.252   6.810  71.116  1.00  0.00    -0.360 C  
BRANCH   7   8
HETATM    8  C   UNL     1     -11.228   6.540  70.042  1.00  0.00    -0.453 A  
HETATM    9  C   UNL     1     -11.036   7.445  68.980  1.00  0.00    -0.035 A  
HETATM   10  C   UNL     1     -10.030   7.217  68.017  1.00  0.00    -0.186 A  
HETATM   11  C   UNL     1      -9.213   6.100  68.176  1.00  0.00    -0.117 A  
HETATM   12  C   UNL     1      -9.368   5.185  69.222  1.00  0.00    -0.172 A  
HETATM   13  N   UNL     1      -8.301   6.120  67.149  1.00  0.00    -0.106 NA 
HETATM   14  C   UNL     1     -10.390   5.423  70.147  1.00  0.00    -0.361 A  
HETATM   15  H   UNL     1      -7.568   5.426  67.008  1.00  0.00     0.000 HD 
HETATM   16  C   UNL     1      -8.514   7.203  66.343  1.00  0.00    -0.130 A  
HETATM   17  C   UNL     1      -9.606   7.900  66.830  1.00  0.00    -0.278 A  
BRANCH  17  18
HETATM   18  C   UNL     1     -10.209   9.136  66.217  1.00  0.00    -0.257 C  
BRANCH  18  19
HETATM   19  C   UNL     1      -9.484  10.423  66.670  1.00  0.00    -0.165 C  
BRANCH  19  20
HETATM   20  N   UNL     1      -9.882  10.955  67.992  1.00  0.00    -0.168 NA 
HETATM   21  C   UNL     1     -11.345  11.066  68.047  1.00  0.00    -0.306 C  
HETATM   22  C   UNL     1      -9.286  12.263  68.269  1.00  0.00    -0.189 C  
ENDBRANCH  19  20
ENDBRANCH  18  19
ENDBRANCH  17  18
ENDBRANCH   7   8
ENDBRANCH   4   7
ENDBRANCH   2   4
TORSDOF 6
ENDMDL
MODEL      140
REMARK 921   NORMALIZED FREE ENERGY PREDICTED BY IDOCK:   -4.29 KCAL/MOL
REMARK 922        TOTAL FREE ENERGY PREDICTED BY IDOCK:   -5.83 KCAL/MOL
REMARK 923 INTER-LIGAND FREE ENERGY PREDICTED BY IDOCK:   -5.64 KCAL/MOL
REMARK 924 INTRA-LIGAND FREE ENERGY PREDICTED BY IDOCK:   -0.18 KCAL/MOL
REMARK 927      BINDING AFFINITY PREDICTED BY RF-SCORE:    0.00 PKD
ROOT
HETATM    1  C   UNL     1     -10.321  15.787  70.131  1.00  0.00    -0.220 C  
HETATM    2  N   UNL     1      -9.085  15.580  69.367  1.00  0.00    -0.273 N  
HETATM    3  H   UNL     1      -8.498  14.758  69.512  1.00  0.00     0.000 HD 
ENDROOT
BRANCH   2   4
HETATM    4  S   UNL     1      -8.678  16.770  68.231  1.00  0.00    -0.235 S  
HETATM    5  O   UNL     1      -8.106  17.848  69.007  1.00  0.00    -0.184 OA 
HETATM    6  O   UNL     1      -7.911  16.087  67.211  1.00  0.00    -0.148 OA 
BRANCH   4   7
HETATM    7  C   UNL     1     -10.300  17.254  67.610  1.00  0.00    -0.350 C  
BRANCH   7   8
HETATM    8  C   UNL     1     -10.781  16.304  66.542  1.00  0.00    -0.187 A  
HETATM    9  C   UNL     1     -10.963  14.934  66.818  1.00  0.00    -0.326 A  
HETATM   10  C   UNL     1     -11.477  14.066  65.832  1.00  0.00    -0.330 A  
HETATM   11  C   UNL     1     -11.836  14.612  64.602  1.00  0.00    -0.452 A  
HETATM   12  C   UNL     1     -11.678  15.967  64.294  1.00  0.00    -0.081 A  
HETATM   13  N   UNL     1     -12.339  13.587  63.838  1.00  0.00    -0.690 NA 
HETATM   14  C   UNL     1     -11.143  16.800  65.283  1.00  0.00     0.005 A  
HETATM   15  H   UNL     1     -12.688  13.688  62.886  1.00  0.00     0.000 HD 
HETATM   16  C   UNL     1     -12.305  12.412  64.536  1.00  0.00    -0.438 A  
HETATM   17  C   UNL     1     -11.744  12.658  65.776  1.00  0.00    -0.466 A  
BRANCH  17  18
HETATM   18  C   UNL     1     -11.481  11.631  66.846  1.00  0.00    -0.320 C  
BRANCH  18  19
HETATM   19  C   UNL     1     -10.135  10.902  66.634  1.00  0.00    -0.219 C  
BRANCH  19  20
HETATM   20  N   UNL     1     -10.195   9.662  65.830  1.00  0.00    -0.207 NA 
HETATM   21  C   UNL     1     -10.158   8.501  66.729  1.00  0.00    -0.299 C  
HETATM   22  C   UNL     1      -9.095   9.566  64.870  1.00  0.00    -0.223 C  
ENDBRANCH  19  20
ENDBRANCH  18  19
ENDBRANCH  17  18
ENDBRANCH   7   8
ENDBRANCH   4   7
ENDBRANCH   2   4
TORSDOF 6
ENDMDL
MODEL      141
REMARK 921   NORMALIZED FREE ENERGY PREDICTED BY IDOCK:   -4.28 KCAL/MOL
REMARK 922        TOTAL FREE ENERGY PREDICTED BY IDOCK:   -5.82 KCAL/MOL
REMARK 923 INTER-LIGAND FREE ENERGY PREDICTED BY IDOCK:   -6.19 KCAL/MOL
REMARK 924 INTRA-LIGAND FREE ENERGY PREDICTED BY IDOCK:    0.37 KCAL/MOL
REMARK 927      BINDING AFFINITY PREDICTED BY RF-SCORE:    0.00 PKD
ROOT
HETATM    1  C   UNL     1     -11.104  16.688  68.477  1.00  0.00    -0.301 C  
HETATM    2  N   UNL     1     -10.839  16.133  67.144  1.00  0.00    -0.268 N  
HETATM    3  H   UNL     1     -10.553  16.726  66.365  1.00  0.00     0.000 HD 
ENDROOT
BRANCH   2   4
HETATM    4  S   UNL     1     -11.029  14.458  66.960  1.00  0.00    -0.312 S  
HETATM    5  O   UNL     1     -12.270  14.300  66.235  1.00  0.00    -0.436 OA 
HETATM    6  O   UNL     1      -9.773  13.983  66.419  1.00  0.00    -0.279 OA 
BRANCH   4   7
HETATM    7  C   UNL     1     -11.243  13.925  68.669  1.00  0.00    -0.270 C  
BRANCH   7   8
HETATM    8  C   UNL     1     -11.276  12.421  68.771  1.00  0.00    -0.318 A  
HETATM    9  C   UNL     1     -10.698  11.613  67.772  1.00  0.00    -0.244 A  
HETATM   10  C   UNL     1     -10.674  10.209  67.909  1.00  0.00    -0.317 A  
HETATM   11  C   UNL     1     -11.197   9.657  69.076  1.00  0.00     0.011 A  
HETATM   12  C   UNL     1     -11.770  10.426  70.093  1.00  0.00    -0.394 A  
HETATM   13  N   UNL     1     -11.024   8.297  68.990  1.00  0.00    -0.429 NA 
HETATM   14  C   UNL     1     -11.803  11.814  69.918  1.00  0.00    -0.423 A  
HETATM   15  H   UNL     1     -11.308   7.627  69.705  1.00  0.00     0.000 HD 
HETATM   16  C   UNL     1     -10.418   7.967  67.810  1.00  0.00    -0.214 A  
HETATM   17  C   UNL     1     -10.209   9.129  67.088  1.00  0.00    -0.329 A  
BRANCH  17  18
HETATM   18  C   UNL     1      -9.604   9.217  65.712  1.00  0.00    -0.341 C  
BRANCH  18  19
HETATM   19  C   UNL     1      -9.647  10.655  65.148  1.00  0.00    -0.251 C  
BRANCH  19  20
HETATM   20  N   UNL     1     -10.302  10.811  63.831  1.00  0.00    -0.323 NA 
HETATM   21  C   UNL     1      -9.286  10.731  62.774  1.00  0.00    -0.327 C  
HETATM   22  C   UNL     1     -11.023  12.079  63.714  1.00  0.00    -0.426 C  
ENDBRANCH  19  20
ENDBRANCH  18  19
ENDBRANCH  17  18
ENDBRANCH   7   8
ENDBRANCH   4   7
ENDBRANCH   2   4
TORSDOF 6
ENDMDL
MODEL      142
REMARK 921   NORMALIZED FREE ENERGY PREDICTED BY IDOCK:   -4.28 KCAL/MOL
REMARK 922        TOTAL FREE ENERGY PREDICTED BY IDOCK:   -5.81 KCAL/MOL
REMARK 923 INTER-LIGAND FREE ENERGY PREDICTED BY IDOCK:   -5.43 KCAL/MOL
REMARK 924 INTRA-LIGAND FREE ENERGY PREDICTED BY IDOCK:   -0.38 KCAL/MOL
REMARK 927      BINDING AFFINITY PREDICTED BY RF-SCORE:    0.00 PKD
ROOT
HETATM    1  C   UNL     1     -10.930   5.940  69.364  1.00  0.00    -0.350 C  
HETATM    2  N   UNL     1     -10.324   6.312  70.649  1.00  0.00    -0.196 N  
HETATM    3  H   UNL     1      -9.400   5.978  70.921  1.00  0.00     0.000 HD 
ENDROOT
BRANCH   2   4
HETATM    4  S   UNL     1     -11.234   7.325  71.659  1.00  0.00    -0.252 S  
HETATM    5  O   UNL     1     -12.486   7.522  70.962  1.00  0.00    -0.293 OA 
HETATM    6  O   UNL     1     -11.188   6.708  72.968  1.00  0.00    -0.231 OA 
BRANCH   4   7
HETATM    7  C   UNL     1     -10.265   8.845  71.622  1.00  0.00    -0.345 C  
BRANCH   7   8
HETATM    8  C   UNL     1     -10.669   9.722  70.464  1.00  0.00    -0.381 A  
HETATM    9  C   UNL     1     -10.237   9.438  69.153  1.00  0.00    -0.209 A  
HETATM   10  C   UNL     1     -10.675  10.225  68.068  1.00  0.00    -0.299 A  
HETATM   11  C   UNL     1     -11.576  11.256  68.328  1.00  0.00    -0.300 A  
HETATM   12  C   UNL     1     -12.034  11.562  69.613  1.00  0.00    -0.407 A  
HETATM   13  N   UNL     1     -11.877  11.840  67.122  1.00  0.00    -0.620 NA 
HETATM   14  C   UNL     1     -11.563  10.780  70.674  1.00  0.00    -0.388 A  
HETATM   15  H   UNL     1     -12.518  12.623  66.999  1.00  0.00     0.000 HD 
HETATM   16  C   UNL     1     -11.196  11.224  66.110  1.00  0.00    -0.065 A  
HETATM   17  C   UNL     1     -10.407  10.228  66.659  1.00  0.00    -0.283 A  
BRANCH  17  18
HETATM   18  C   UNL     1      -9.463   9.331  65.903  1.00  0.00    -0.325 C  
BRANCH  18  19
HETATM   19  C   UNL     1      -8.857  10.034  64.668  1.00  0.00    -0.200 C  
BRANCH  19  20
HETATM   20  N   UNL     1      -7.408   9.825  64.455  1.00  0.00    -0.129 NA 
HETATM   21  C   UNL     1      -6.656  10.616  65.439  1.00  0.00    -0.026 C  
HETATM   22  C   UNL     1      -6.982  10.199  63.106  1.00  0.00    -0.132 C  
ENDBRANCH  19  20
ENDBRANCH  18  19
ENDBRANCH  17  18
ENDBRANCH   7   8
ENDBRANCH   4   7
ENDBRANCH   2   4
TORSDOF 6
ENDMDL
MODEL      143
REMARK 921   NORMALIZED FREE ENERGY PREDICTED BY IDOCK:   -4.27 KCAL/MOL
REMARK 922        TOTAL FREE ENERGY PREDICTED BY IDOCK:   -5.80 KCAL/MOL
REMARK 923 INTER-LIGAND FREE ENERGY PREDICTED BY IDOCK:   -5.38 KCAL/MOL
REMARK 924 INTRA-LIGAND FREE ENERGY PREDICTED BY IDOCK:   -0.42 KCAL/MOL
REMARK 927      BINDING AFFINITY PREDICTED BY RF-SCORE:    0.00 PKD
ROOT
HETATM    1  C   UNL     1      -8.734  19.701  68.228  1.00  0.00    -0.314 C  
HETATM    2  N   UNL     1      -7.575  18.865  68.567  1.00  0.00    -0.312 N  
HETATM    3  H   UNL     1      -6.675  19.275  68.815  1.00  0.00     0.000 HD 
ENDROOT
BRANCH   2   4
HETATM    4  S   UNL     1      -7.804  17.186  68.527  1.00  0.00    -0.265 S  
HETATM    5  O   UNL     1      -6.653  16.635  69.208  1.00  0.00    -0.191 OA 
HETATM    6  O   UNL     1      -9.147  16.966  69.019  1.00  0.00    -0.254 OA 
BRANCH   4   7
HETATM    7  C   UNL     1      -7.694  16.844  66.760  1.00  0.00    -0.248 C  
BRANCH   7   8
HETATM    8  C   UNL     1      -8.934  16.144  66.262  1.00  0.00    -0.379 A  
HETATM    9  C   UNL     1      -9.159  14.781  66.542  1.00  0.00    -0.291 A  
HETATM   10  C   UNL     1     -10.353  14.153  66.129  1.00  0.00    -0.304 A  
HETATM   11  C   UNL     1     -11.311  14.928  65.480  1.00  0.00    -0.339 A  
HETATM   12  C   UNL     1     -11.127  16.284  65.193  1.00  0.00    -0.219 A  
HETATM   13  N   UNL     1     -12.382  14.109  65.220  1.00  0.00    -0.445 NA 
HETATM   14  C   UNL     1      -9.923  16.875  65.592  1.00  0.00    -0.127 A  
HETATM   15  H   UNL     1     -13.240  14.403  64.754  1.00  0.00     0.000 HD 
HETATM   16  C   UNL     1     -12.135  12.843  65.672  1.00  0.00    -0.458 A  
HETATM   17  C   UNL     1     -10.865  12.816  66.220  1.00  0.00    -0.299 A  
BRANCH  17  18
HETATM   18  C   UNL     1     -10.178  11.607  66.799  1.00  0.00    -0.248 C  
BRANCH  18  19
HETATM   19  C   UNL     1      -8.949  11.182  65.964  1.00  0.00    -0.200 C  
BRANCH  19  20
HETATM   20  N   UNL     1      -9.134   9.989  65.109  1.00  0.00    -0.186 NA 
HETATM   21  C   UNL     1      -9.840  10.379  63.882  1.00  0.00    -0.267 C  
HETATM   22  C   UNL     1      -9.884   8.930  65.784  1.00  0.00    -0.036 C  
ENDBRANCH  19  20
ENDBRANCH  18  19
ENDBRANCH  17  18
ENDBRANCH   7   8
ENDBRANCH   4   7
ENDBRANCH   2   4
TORSDOF 6
ENDMDL
MODEL      144
REMARK 921   NORMALIZED FREE ENERGY PREDICTED BY IDOCK:   -4.27 KCAL/MOL
REMARK 922        TOTAL FREE ENERGY PREDICTED BY IDOCK:   -5.79 KCAL/MOL
REMARK 923 INTER-LIGAND FREE ENERGY PREDICTED BY IDOCK:   -5.43 KCAL/MOL
REMARK 924 INTRA-LIGAND FREE ENERGY PREDICTED BY IDOCK:   -0.36 KCAL/MOL
REMARK 927      BINDING AFFINITY PREDICTED BY RF-SCORE:    0.00 PKD
ROOT
HETATM    1  C   UNL     1     -12.325  14.429  65.410  1.00  0.00    -0.355 C  
HETATM    2  N   UNL     1     -12.251  13.020  65.815  1.00  0.00    -0.454 N  
HETATM    3  H   UNL     1     -12.674  12.280  65.255  1.00  0.00     0.000 HD 
ENDROOT
BRANCH   2   4
HETATM    4  S   UNL     1     -11.429  12.679  67.258  1.00  0.00    -0.362 S  
HETATM    5  O   UNL     1     -11.350  13.946  67.952  1.00  0.00    -0.266 OA 
HETATM    6  O   UNL     1     -12.115  11.544  67.836  1.00  0.00    -0.630 OA 
BRANCH   4   7
HETATM    7  C   UNL     1      -9.798  12.211  66.648  1.00  0.00    -0.211 C  
BRANCH   7   8
HETATM    8  C   UNL     1      -8.727  13.113  67.205  1.00  0.00    -0.210 A  
HETATM    9  C   UNL     1      -8.575  14.434  66.739  1.00  0.00    -0.139 A  
HETATM   10  C   UNL     1      -7.615  15.292  67.313  1.00  0.00    -0.244 A  
HETATM   11  C   UNL     1      -6.857  14.808  68.378  1.00  0.00    -0.104 A  
HETATM   12  C   UNL     1      -6.985  13.507  68.874  1.00  0.00    -0.108 A  
HETATM   13  N   UNL     1      -6.034  15.830  68.783  1.00  0.00    -0.099 NA 
HETATM   14  C   UNL     1      -7.929  12.670  68.268  1.00  0.00    -0.153 A  
HETATM   15  H   UNL     1      -5.366  15.769  69.551  1.00  0.00     0.000 HD 
HETATM   16  C   UNL     1      -6.236  16.940  68.011  1.00  0.00    -0.136 A  
HETATM   17  C   UNL     1      -7.193  16.639  67.059  1.00  0.00    -0.236 A  
BRANCH  17  18
HETATM   18  C   UNL     1      -7.685  17.566  65.978  1.00  0.00    -0.237 C  
BRANCH  18  19
HETATM   19  C   UNL     1      -8.416  18.798  66.556  1.00  0.00    -0.301 C  
BRANCH  19  20
HETATM   20  N   UNL     1      -9.872  18.641  66.768  1.00  0.00    -0.322 NA 
HETATM   21  C   UNL     1     -10.585  19.674  66.004  1.00  0.00    -0.483 C  
HETATM   22  C   UNL     1     -10.243  18.739  68.180  1.00  0.00    -0.381 C  
ENDBRANCH  19  20
ENDBRANCH  18  19
ENDBRANCH  17  18
ENDBRANCH   7   8
ENDBRANCH   4   7
ENDBRANCH   2   4
TORSDOF 6
ENDMDL
MODEL      145
REMARK 921   NORMALIZED FREE ENERGY PREDICTED BY IDOCK:   -4.26 KCAL/MOL
REMARK 922        TOTAL FREE ENERGY PREDICTED BY IDOCK:   -5.78 KCAL/MOL
REMARK 923 INTER-LIGAND FREE ENERGY PREDICTED BY IDOCK:   -5.31 KCAL/MOL
REMARK 924 INTRA-LIGAND FREE ENERGY PREDICTED BY IDOCK:   -0.48 KCAL/MOL
REMARK 927      BINDING AFFINITY PREDICTED BY RF-SCORE:    0.00 PKD
ROOT
HETATM    1  C   UNL     1     -10.024  20.450  67.197  1.00  0.00    -0.428 C  
HETATM    2  N   UNL     1      -8.883  19.900  66.454  1.00  0.00    -0.402 N  
HETATM    3  H   UNL     1      -8.988  19.528  65.511  1.00  0.00     0.000 HD 
ENDROOT
BRANCH   2   4
HETATM    4  S   UNL     1      -7.380  19.913  67.239  1.00  0.00    -0.268 S  
HETATM    5  O   UNL     1      -6.587  18.924  66.545  1.00  0.00    -0.187 OA 
HETATM    6  O   UNL     1      -6.980  21.303  67.286  1.00  0.00    -0.508 OA 
BRANCH   4   7
HETATM    7  C   UNL     1      -7.820  19.308  68.880  1.00  0.00    -0.332 C  
BRANCH   7   8
HETATM    8  C   UNL     1      -7.394  17.873  69.064  1.00  0.00    -0.194 A  
HETATM    9  C   UNL     1      -8.199  16.812  68.602  1.00  0.00    -0.252 A  
HETATM   10  C   UNL     1      -7.762  15.477  68.719  1.00  0.00    -0.159 A  
HETATM   11  C   UNL     1      -6.499  15.246  69.261  1.00  0.00    -0.131 A  
HETATM   12  C   UNL     1      -5.668  16.273  69.722  1.00  0.00    -0.167 A  
HETATM   13  N   UNL     1      -6.291  13.889  69.231  1.00  0.00    -0.106 NA 
HETATM   14  C   UNL     1      -6.139  17.586  69.616  1.00  0.00    -0.249 A  
HETATM   15  H   UNL     1      -5.446  13.423  69.561  1.00  0.00     0.000 HD 
HETATM   16  C   UNL     1      -7.375  13.251  68.698  1.00  0.00    -0.101 A  
HETATM   17  C   UNL     1      -8.333  14.202  68.393  1.00  0.00    -0.161 A  
BRANCH  17  18
HETATM   18  C   UNL     1      -9.700  13.928  67.823  1.00  0.00    -0.225 C  
BRANCH  18  19
HETATM   19  C   UNL     1      -9.747  14.142  66.294  1.00  0.00    -0.297 C  
BRANCH  19  20
HETATM   20  N   UNL     1     -11.070  14.491  65.733  1.00  0.00    -0.317 NA 
HETATM   21  C   UNL     1     -12.114  14.147  66.707  1.00  0.00    -0.442 C  
HETATM   22  C   UNL     1     -11.340  13.803  64.470  1.00  0.00    -0.380 C  
ENDBRANCH  19  20
ENDBRANCH  18  19
ENDBRANCH  17  18
ENDBRANCH   7   8
ENDBRANCH   4   7
ENDBRANCH   2   4
TORSDOF 6
ENDMDL
MODEL      146
REMARK 921   NORMALIZED FREE ENERGY PREDICTED BY IDOCK:   -4.25 KCAL/MOL
REMARK 922        TOTAL FREE ENERGY PREDICTED BY IDOCK:   -5.78 KCAL/MOL
REMARK 923 INTER-LIGAND FREE ENERGY PREDICTED BY IDOCK:   -5.23 KCAL/MOL
REMARK 924 INTRA-LIGAND FREE ENERGY PREDICTED BY IDOCK:   -0.55 KCAL/MOL
REMARK 927      BINDING AFFINITY PREDICTED BY RF-SCORE:    0.00 PKD
ROOT
HETATM    1  C   UNL     1      -8.337   8.385  64.205  1.00  0.00    -0.083 C  
HETATM    2  N   UNL     1      -9.331   8.859  65.176  1.00  0.00    -0.442 N  
HETATM    3  H   UNL     1     -10.258   8.438  65.241  1.00  0.00     0.000 HD 
ENDROOT
BRANCH   2   4
HETATM    4  S   UNL     1      -8.866  10.139  66.186  1.00  0.00    -0.149 S  
HETATM    5  O   UNL     1      -9.677   9.992  67.374  1.00  0.00    -0.154 OA 
HETATM    6  O   UNL     1      -7.421  10.079  66.246  1.00  0.00    -0.100 OA 
BRANCH   4   7
HETATM    7  C   UNL     1      -9.418  11.571  65.239  1.00  0.00    -0.184 C  
BRANCH   7   8
HETATM    8  C   UNL     1     -10.238  12.506  66.091  1.00  0.00    -0.269 A  
HETATM    9  C   UNL     1      -9.624  13.356  67.032  1.00  0.00    -0.244 A  
HETATM   10  C   UNL     1     -10.392  14.275  67.777  1.00  0.00    -0.238 A  
HETATM   11  C   UNL     1     -11.760  14.343  67.521  1.00  0.00    -0.387 A  
HETATM   12  C   UNL     1     -12.403  13.523  66.589  1.00  0.00    -0.351 A  
HETATM   13  N   UNL     1     -12.272  15.326  68.333  1.00  0.00    -0.528 NA 
HETATM   14  C   UNL     1     -11.620  12.603  65.884  1.00  0.00    -0.443 A  
HETATM   15  H   UNL     1     -13.252  15.605  68.361  1.00  0.00     0.000 HD 
HETATM   16  C   UNL     1     -11.282  15.877  69.097  1.00  0.00    -0.334 A  
HETATM   17  C   UNL     1     -10.095  15.229  68.805  1.00  0.00    -0.219 A  
BRANCH  17  18
HETATM   18  C   UNL     1      -8.761  15.495  69.453  1.00  0.00    -0.258 C  
BRANCH  18  19
HETATM   19  C   UNL     1      -8.002  16.652  68.765  1.00  0.00    -0.239 C  
BRANCH  19  20
HETATM   20  N   UNL     1      -7.328  16.313  67.493  1.00  0.00    -0.139 NA 
HETATM   21  C   UNL     1      -5.962  16.853  67.511  1.00  0.00    -0.142 C  
HETATM   22  C   UNL     1      -8.041  16.837  66.327  1.00  0.00    -0.330 C  
ENDBRANCH  19  20
ENDBRANCH  18  19
ENDBRANCH  17  18
ENDBRANCH   7   8
ENDBRANCH   4   7
ENDBRANCH   2   4
TORSDOF 6
ENDMDL
MODEL      147
REMARK 921   NORMALIZED FREE ENERGY PREDICTED BY IDOCK:   -4.24 KCAL/MOL
REMARK 922        TOTAL FREE ENERGY PREDICTED BY IDOCK:   -5.76 KCAL/MOL
REMARK 923 INTER-LIGAND FREE ENERGY PREDICTED BY IDOCK:   -5.27 KCAL/MOL
REMARK 924 INTRA-LIGAND FREE ENERGY PREDICTED BY IDOCK:   -0.50 KCAL/MOL
REMARK 927      BINDING AFFINITY PREDICTED BY RF-SCORE:    0.00 PKD
ROOT
HETATM    1  C   UNL     1      -6.505   8.047  66.375  1.00  0.00    -0.047 C  
HETATM    2  N   UNL     1      -7.331   8.116  65.163  1.00  0.00    -0.075 N  
HETATM    3  H   UNL     1      -7.764   7.284  64.763  1.00  0.00     0.000 HD 
ENDROOT
BRANCH   2   4
HETATM    4  S   UNL     1      -7.531   9.645  64.459  1.00  0.00    -0.134 S  
HETATM    5  O   UNL     1      -7.100  10.583  65.471  1.00  0.00    -0.142 OA 
HETATM    6  O   UNL     1      -6.872   9.568  63.173  1.00  0.00    -0.099 OA 
BRANCH   4   7
HETATM    7  C   UNL     1      -9.322   9.727  64.267  1.00  0.00    -0.190 C  
BRANCH   7   8
HETATM    8  C   UNL     1      -9.962  10.449  65.426  1.00  0.00    -0.362 A  
HETATM    9  C   UNL     1     -10.286  11.817  65.339  1.00  0.00    -0.311 A  
HETATM   10  C   UNL     1     -10.946  12.467  66.403  1.00  0.00    -0.315 A  
HETATM   11  C   UNL     1     -11.302  11.706  67.514  1.00  0.00    -0.298 A  
HETATM   12  C   UNL     1     -11.006  10.345  67.633  1.00  0.00    -0.374 A  
HETATM   13  N   UNL     1     -11.958  12.545  68.382  1.00  0.00    -0.290 NA 
HETATM   14  C   UNL     1     -10.329   9.733  66.572  1.00  0.00    -0.262 A  
HETATM   15  H   UNL     1     -12.341  12.265  69.284  1.00  0.00     0.000 HD 
HETATM   16  C   UNL     1     -12.024  13.809  67.866  1.00  0.00    -0.356 A  
HETATM   17  C   UNL     1     -11.376  13.814  66.643  1.00  0.00    -0.340 A  
BRANCH  17  18
HETATM   18  C   UNL     1     -11.178  15.013  65.754  1.00  0.00    -0.318 C  
BRANCH  18  19
HETATM   19  C   UNL     1     -10.108  15.979  66.309  1.00  0.00    -0.313 C  
BRANCH  19  20
HETATM   20  N   UNL     1     -10.623  17.190  66.986  1.00  0.00    -0.274 NA 
HETATM   21  C   UNL     1     -10.042  18.381  66.353  1.00  0.00    -0.403 C  
HETATM   22  C   UNL     1     -10.316  17.202  68.416  1.00  0.00    -0.362 C  
ENDBRANCH  19  20
ENDBRANCH  18  19
ENDBRANCH  17  18
ENDBRANCH   7   8
ENDBRANCH   4   7
ENDBRANCH   2   4
TORSDOF 6
ENDMDL
MODEL      148
REMARK 921   NORMALIZED FREE ENERGY PREDICTED BY IDOCK:   -4.24 KCAL/MOL
REMARK 922        TOTAL FREE ENERGY PREDICTED BY IDOCK:   -5.76 KCAL/MOL
REMARK 923 INTER-LIGAND FREE ENERGY PREDICTED BY IDOCK:   -5.38 KCAL/MOL
REMARK 924 INTRA-LIGAND FREE ENERGY PREDICTED BY IDOCK:   -0.38 KCAL/MOL
REMARK 927      BINDING AFFINITY PREDICTED BY RF-SCORE:    0.00 PKD
ROOT
HETATM    1  C   UNL     1      -8.076  17.212  66.143  1.00  0.00    -0.248 C  
HETATM    2  N   UNL     1      -9.206  17.287  67.078  1.00  0.00    -0.237 N  
HETATM    3  H   UNL     1      -9.840  18.086  67.087  1.00  0.00     0.000 HD 
ENDROOT
BRANCH   2   4
HETATM    4  S   UNL     1      -9.407  15.983  68.142  1.00  0.00    -0.202 S  
HETATM    5  O   UNL     1      -8.392  15.027  67.758  1.00  0.00    -0.138 OA 
HETATM    6  O   UNL     1      -9.433  16.564  69.467  1.00  0.00    -0.137 OA 
BRANCH   4   7
HETATM    7  C   UNL     1     -11.036  15.372  67.668  1.00  0.00    -0.315 C  
BRANCH   7   8
HETATM    8  C   UNL     1     -11.547  14.356  68.658  1.00  0.00    -0.347 A  
HETATM    9  C   UNL     1     -11.105  13.019  68.620  1.00  0.00    -0.305 A  
HETATM   10  C   UNL     1     -11.538  12.093  69.591  1.00  0.00    -0.361 A  
HETATM   11  C   UNL     1     -12.375  12.551  70.606  1.00  0.00    -0.282 A  
HETATM   12  C   UNL     1     -12.827  13.872  70.683  1.00  0.00    -0.291 A  
HETATM   13  N   UNL     1     -12.620  11.485  71.437  1.00  0.00    -0.348 NA 
HETATM   14  C   UNL     1     -12.402  14.763  69.691  1.00  0.00    -0.253 A  
HETATM   15  H   UNL     1     -13.200  11.522  72.275  1.00  0.00     0.000 HD 
HETATM   16  C   UNL     1     -11.976  10.368  70.983  1.00  0.00    -0.382 A  
HETATM   17  C   UNL     1     -11.312  10.694  69.814  1.00  0.00    -0.371 A  
BRANCH  17  18
HETATM   18  C   UNL     1     -10.511   9.747  68.960  1.00  0.00    -0.229 C  
BRANCH  18  19
HETATM   19  C   UNL     1     -10.890   9.846  67.466  1.00  0.00    -0.243 C  
BRANCH  19  20
HETATM   20  N   UNL     1      -9.772  10.106  66.533  1.00  0.00    -0.190 NA 
HETATM   21  C   UNL     1     -10.219  11.040  65.491  1.00  0.00    -0.268 C  
HETATM   22  C   UNL     1      -9.274   8.881  65.905  1.00  0.00    -0.229 C  
ENDBRANCH  19  20
ENDBRANCH  18  19
ENDBRANCH  17  18
ENDBRANCH   7   8
ENDBRANCH   4   7
ENDBRANCH   2   4
TORSDOF 6
ENDMDL
MODEL      149
REMARK 921   NORMALIZED FREE ENERGY PREDICTED BY IDOCK:   -4.21 KCAL/MOL
REMARK 922        TOTAL FREE ENERGY PREDICTED BY IDOCK:   -5.72 KCAL/MOL
REMARK 923 INTER-LIGAND FREE ENERGY PREDICTED BY IDOCK:   -5.76 KCAL/MOL
REMARK 924 INTRA-LIGAND FREE ENERGY PREDICTED BY IDOCK:    0.04 KCAL/MOL
REMARK 927      BINDING AFFINITY PREDICTED BY RF-SCORE:    0.00 PKD
ROOT
HETATM    1  C   UNL     1     -12.091   9.223  71.603  1.00  0.00    -0.379 C  
HETATM    2  N   UNL     1     -11.157  10.073  70.853  1.00  0.00    -0.339 N  
HETATM    3  H   UNL     1     -10.147   9.986  70.964  1.00  0.00     0.000 HD 
ENDROOT
BRANCH   2   4
HETATM    4  S   UNL     1     -11.837  11.207  69.791  1.00  0.00    -0.380 S  
HETATM    5  O   UNL     1     -12.861  10.480  69.073  1.00  0.00     0.141 OA 
HETATM    6  O   UNL     1     -12.162  12.356  70.609  1.00  0.00    -0.368 OA 
BRANCH   4   7
HETATM    7  C   UNL     1     -10.450  11.560  68.695  1.00  0.00    -0.202 C  
BRANCH   7   8
HETATM    8  C   UNL     1     -10.843  12.534  67.614  1.00  0.00    -0.255 A  
HETATM    9  C   UNL     1     -10.017  13.628  67.287  1.00  0.00    -0.240 A  
HETATM   10  C   UNL     1     -10.361  14.494  66.228  1.00  0.00    -0.300 A  
HETATM   11  C   UNL     1     -11.511  14.210  65.496  1.00  0.00    -0.324 A  
HETATM   12  C   UNL     1     -12.351  13.130  65.785  1.00  0.00    -0.496 A  
HETATM   13  N   UNL     1     -11.606  15.162  64.511  1.00  0.00    -0.612 NA 
HETATM   14  C   UNL     1     -11.999  12.301  66.856  1.00  0.00    -0.214 A  
HETATM   15  H   UNL     1     -12.349  15.207  63.814  1.00  0.00     0.000 HD 
HETATM   16  C   UNL     1     -10.564  16.042  64.596  1.00  0.00     0.132 A  
HETATM   17  C   UNL     1      -9.777  15.682  65.675  1.00  0.00    -0.348 A  
BRANCH  17  18
HETATM   18  C   UNL     1      -8.547  16.409  66.154  1.00  0.00    -0.343 C  
BRANCH  18  19
HETATM   19  C   UNL     1      -8.893  17.755  66.827  1.00  0.00    -0.260 C  
BRANCH  19  20
HETATM   20  N   UNL     1     -10.087  17.751  67.700  1.00  0.00    -0.326 NA 
HETATM   21  C   UNL     1     -10.325  19.112  68.198  1.00  0.00    -0.376 C  
HETATM   22  C   UNL     1      -9.944  16.838  68.835  1.00  0.00    -0.271 C  
ENDBRANCH  19  20
ENDBRANCH  18  19
ENDBRANCH  17  18
ENDBRANCH   7   8
ENDBRANCH   4   7
ENDBRANCH   2   4
TORSDOF 6
ENDMDL
MODEL      150
REMARK 921   NORMALIZED FREE ENERGY PREDICTED BY IDOCK:   -4.21 KCAL/MOL
REMARK 922        TOTAL FREE ENERGY PREDICTED BY IDOCK:   -5.72 KCAL/MOL
REMARK 923 INTER-LIGAND FREE ENERGY PREDICTED BY IDOCK:   -5.47 KCAL/MOL
REMARK 924 INTRA-LIGAND FREE ENERGY PREDICTED BY IDOCK:   -0.25 KCAL/MOL
REMARK 927      BINDING AFFINITY PREDICTED BY RF-SCORE:    0.00 PKD
ROOT
HETATM    1  C   UNL     1     -10.516   4.501  65.620  1.00  0.00    -0.229 C  
HETATM    2  N   UNL     1     -10.750   5.796  66.272  1.00  0.00    -0.596 N  
HETATM    3  H   UNL     1     -11.199   6.568  65.781  1.00  0.00     0.000 HD 
ENDROOT
BRANCH   2   4
HETATM    4  S   UNL     1     -10.239   5.946  67.882  1.00  0.00    -0.206 S  
HETATM    5  O   UNL     1     -11.304   6.663  68.547  1.00  0.00    -0.196 OA 
HETATM    6  O   UNL     1      -9.858   4.611  68.293  1.00  0.00    -0.150 OA 
BRANCH   4   7
HETATM    7  C   UNL     1      -8.795   7.011  67.709  1.00  0.00    -0.123 C  
BRANCH   7   8
HETATM    8  C   UNL     1      -8.800   7.727  66.382  1.00  0.00    -0.180 A  
HETATM    9  C   UNL     1      -9.486   8.947  66.219  1.00  0.00    -0.304 A  
HETATM   10  C   UNL     1      -9.429   9.643  64.994  1.00  0.00    -0.312 A  
HETATM   11  C   UNL     1      -8.644   9.110  63.973  1.00  0.00    -0.166 A  
HETATM   12  C   UNL     1      -7.943   7.907  64.101  1.00  0.00    -0.125 A  
HETATM   13  N   UNL     1      -8.720   9.979  62.912  1.00  0.00    -0.187 NA 
HETATM   14  C   UNL     1      -8.038   7.225  65.319  1.00  0.00    -0.134 A  
HETATM   15  H   UNL     1      -8.241   9.852  62.021  1.00  0.00     0.000 HD 
HETATM   16  C   UNL     1      -9.528  11.037  63.219  1.00  0.00    -0.328 A  
HETATM   17  C   UNL     1     -10.019  10.853  64.500  1.00  0.00    -0.376 A  
BRANCH  17  18
HETATM   18  C   UNL     1     -10.981  11.764  65.216  1.00  0.00    -0.350 C  
BRANCH  18  19
HETATM   19  C   UNL     1     -10.371  13.159  65.484  1.00  0.00    -0.290 C  
BRANCH  19  20
HETATM   20  N   UNL     1     -10.831  14.245  64.592  1.00  0.00    -0.395 NA 
HETATM   21  C   UNL     1     -10.678  15.533  65.280  1.00  0.00    -0.422 C  
HETATM   22  C   UNL     1     -12.226  14.077  64.182  1.00  0.00    -0.396 C  
ENDBRANCH  19  20
ENDBRANCH  18  19
ENDBRANCH  17  18
ENDBRANCH   7   8
ENDBRANCH   4   7
ENDBRANCH   2   4
TORSDOF 6
ENDMDL
MODEL      151
REMARK 921   NORMALIZED FREE ENERGY PREDICTED BY IDOCK:   -4.21 KCAL/MOL
REMARK 922        TOTAL FREE ENERGY PREDICTED BY IDOCK:   -5.72 KCAL/MOL
REMARK 923 INTER-LIGAND FREE ENERGY PREDICTED BY IDOCK:   -5.43 KCAL/MOL
REMARK 924 INTRA-LIGAND FREE ENERGY PREDICTED BY IDOCK:   -0.29 KCAL/MOL
REMARK 927      BINDING AFFINITY PREDICTED BY RF-SCORE:    0.00 PKD
ROOT
HETATM    1  C   UNL     1      -8.467   5.516  71.756  1.00  0.00    -0.127 C  
HETATM    2  N   UNL     1      -9.915   5.691  71.927  1.00  0.00    -0.176 N  
HETATM    3  H   UNL     1     -10.585   5.067  71.478  1.00  0.00     0.000 HD 
ENDROOT
BRANCH   2   4
HETATM    4  S   UNL     1     -10.421   6.978  72.908  1.00  0.00    -0.282 S  
HETATM    5  O   UNL     1     -10.608   6.397  74.219  1.00  0.00    -0.257 OA 
HETATM    6  O   UNL     1      -9.460   8.037  72.682  1.00  0.00    -0.197 OA 
BRANCH   4   7
HETATM    7  C   UNL     1     -12.020   7.384  72.181  1.00  0.00    -0.270 C  
BRANCH   7   8
HETATM    8  C   UNL     1     -12.039   8.800  71.662  1.00  0.00    -0.401 A  
HETATM    9  C   UNL     1     -11.256   9.177  70.553  1.00  0.00    -0.309 A  
HETATM   10  C   UNL     1     -11.332  10.486  70.033  1.00  0.00    -0.392 A  
HETATM   11  C   UNL     1     -12.231  11.373  70.621  1.00  0.00    -0.389 A  
HETATM   12  C   UNL     1     -13.030  11.033  71.717  1.00  0.00    -0.544 A  
HETATM   13  N   UNL     1     -12.147  12.552  69.922  1.00  0.00    -0.287 NA 
HETATM   14  C   UNL     1     -12.916   9.735  72.227  1.00  0.00    -0.420 A  
HETATM   15  H   UNL     1     -12.696  13.388  70.123  1.00  0.00     0.000 HD 
HETATM   16  C   UNL     1     -11.225  12.448  68.919  1.00  0.00    -0.280 A  
HETATM   17  C   UNL     1     -10.667  11.183  68.971  1.00  0.00    -0.265 A  
BRANCH  17  18
HETATM   18  C   UNL     1      -9.577  10.661  68.071  1.00  0.00    -0.167 C  
BRANCH  18  19
HETATM   19  C   UNL     1     -10.072   9.513  67.164  1.00  0.00    -0.229 C  
BRANCH  19  20
HETATM   20  N   UNL     1      -9.358   8.225  67.308  1.00  0.00    -0.142 NA 
HETATM   21  C   UNL     1      -8.309   8.366  68.326  1.00  0.00    -0.131 C  
HETATM   22  C   UNL     1      -8.758   7.776  66.052  1.00  0.00    -0.161 C  
ENDBRANCH  19  20
ENDBRANCH  18  19
ENDBRANCH  17  18
ENDBRANCH   7   8
ENDBRANCH   4   7
ENDBRANCH   2   4
TORSDOF 6
ENDMDL
MODEL      152
REMARK 921   NORMALIZED FREE ENERGY PREDICTED BY IDOCK:   -4.21 KCAL/MOL
REMARK 922        TOTAL FREE ENERGY PREDICTED BY IDOCK:   -5.72 KCAL/MOL
REMARK 923 INTER-LIGAND FREE ENERGY PREDICTED BY IDOCK:   -5.60 KCAL/MOL
REMARK 924 INTRA-LIGAND FREE ENERGY PREDICTED BY IDOCK:   -0.12 KCAL/MOL
REMARK 927      BINDING AFFINITY PREDICTED BY RF-SCORE:    0.00 PKD
ROOT
HETATM    1  C   UNL     1     -11.949  15.747  72.471  1.00  0.00    -0.495 C  
HETATM    2  N   UNL     1     -11.349  14.670  71.673  1.00  0.00    -0.421 N  
HETATM    3  H   UNL     1     -10.385  14.370  71.819  1.00  0.00     0.000 HD 
ENDROOT
BRANCH   2   4
HETATM    4  S   UNL     1     -12.334  13.948  70.497  1.00  0.00    -0.368 S  
HETATM    5  O   UNL     1     -13.018  12.878  71.188  1.00  0.00    -0.279 OA 
HETATM    6  O   UNL     1     -13.063  15.037  69.882  1.00  0.00     0.006 OA 
BRANCH   4   7
HETATM    7  C   UNL     1     -11.109  13.265  69.364  1.00  0.00    -0.090 C  
BRANCH   7   8
HETATM    8  C   UNL     1     -11.176  13.939  68.017  1.00  0.00    -0.295 A  
HETATM    9  C   UNL     1     -10.833  15.298  67.868  1.00  0.00    -0.288 A  
HETATM   10  C   UNL     1     -10.834  15.901  66.594  1.00  0.00    -0.213 A  
HETATM   11  C   UNL     1     -11.139  15.106  65.492  1.00  0.00    -0.345 A  
HETATM   12  C   UNL     1     -11.475  13.752  65.599  1.00  0.00    -0.318 A  
HETATM   13  N   UNL     1     -11.036  15.903  64.378  1.00  0.00    -0.893 NA 
HETATM   14  C   UNL     1     -11.491  13.186  66.878  1.00  0.00    -0.384 A  
HETATM   15  H   UNL     1     -11.198  15.591  63.422  1.00  0.00     0.000 HD 
HETATM   16  C   UNL     1     -10.683  17.175  64.734  1.00  0.00     0.514 A  
HETATM   17  C   UNL     1     -10.577  17.228  66.113  1.00  0.00    -0.204 A  
BRANCH  17  18
HETATM   18  C   UNL     1     -10.249  18.452  66.927  1.00  0.00    -0.403 C  
BRANCH  18  19
HETATM   19  C   UNL     1      -9.012  19.200  66.380  1.00  0.00    -0.342 C  
BRANCH  19  20
HETATM   20  N   UNL     1      -7.752  18.990  67.125  1.00  0.00    -0.233 NA 
HETATM   21  C   UNL     1      -7.386  17.569  67.064  1.00  0.00    -0.192 C  
HETATM   22  C   UNL     1      -7.856  19.404  68.525  1.00  0.00    -0.354 C  
ENDBRANCH  19  20
ENDBRANCH  18  19
ENDBRANCH  17  18
ENDBRANCH   7   8
ENDBRANCH   4   7
ENDBRANCH   2   4
TORSDOF 6
ENDMDL
MODEL      153
REMARK 921   NORMALIZED FREE ENERGY PREDICTED BY IDOCK:   -4.20 KCAL/MOL
REMARK 922        TOTAL FREE ENERGY PREDICTED BY IDOCK:   -5.71 KCAL/MOL
REMARK 923 INTER-LIGAND FREE ENERGY PREDICTED BY IDOCK:   -5.29 KCAL/MOL
REMARK 924 INTRA-LIGAND FREE ENERGY PREDICTED BY IDOCK:   -0.42 KCAL/MOL
REMARK 927      BINDING AFFINITY PREDICTED BY RF-SCORE:    0.00 PKD
ROOT
HETATM    1  C   UNL     1      -6.577   8.126  69.230  1.00  0.00    -0.036 C  
HETATM    2  N   UNL     1      -7.837   8.537  68.598  1.00  0.00    -0.106 N  
HETATM    3  H   UNL     1      -8.278   7.975  67.870  1.00  0.00     0.000 HD 
ENDROOT
BRANCH   2   4
HETATM    4  S   UNL     1      -8.525   9.990  69.136  1.00  0.00    -0.168 S  
HETATM    5  O   UNL     1      -9.299   9.627  70.304  1.00  0.00    -0.242 OA 
HETATM    6  O   UNL     1      -7.428  10.930  69.221  1.00  0.00    -0.123 OA 
BRANCH   4   7
HETATM    7  C   UNL     1      -9.629  10.400  67.771  1.00  0.00    -0.152 C  
BRANCH   7   8
HETATM    8  C   UNL     1      -9.799  11.892  67.635  1.00  0.00    -0.192 A  
HETATM    9  C   UNL     1     -10.667  12.604  68.487  1.00  0.00    -0.271 A  
HETATM   10  C   UNL     1     -10.768  14.008  68.396  1.00  0.00    -0.261 A  
HETATM   11  C   UNL     1      -9.955  14.665  67.475  1.00  0.00    -0.223 A  
HETATM   12  C   UNL     1      -9.075  13.994  66.620  1.00  0.00    -0.221 A  
HETATM   13  N   UNL     1     -10.206  16.009  67.605  1.00  0.00    -0.257 NA 
HETATM   14  C   UNL     1      -9.014  12.599  66.715  1.00  0.00    -0.197 A  
HETATM   15  H   UNL     1      -9.751  16.741  67.060  1.00  0.00     0.000 HD 
HETATM   16  C   UNL     1     -11.151  16.227  68.567  1.00  0.00    -0.368 A  
HETATM   17  C   UNL     1     -11.554  15.001  69.067  1.00  0.00    -0.342 A  
BRANCH  17  18
HETATM   18  C   UNL     1     -12.612  14.780  70.116  1.00  0.00    -0.319 C  
BRANCH  18  19
HETATM   19  C   UNL     1     -12.415  15.698  71.344  1.00  0.00    -0.439 C  
BRANCH  19  20
HETATM   20  N   UNL     1     -12.227  15.009  72.639  1.00  0.00    -0.346 NA 
HETATM   21  C   UNL     1     -13.219  13.932  72.761  1.00  0.00    -0.441 C  
HETATM   22  C   UNL     1     -12.356  15.918  73.778  1.00  0.00    -0.587 C  
ENDBRANCH  19  20
ENDBRANCH  18  19
ENDBRANCH  17  18
ENDBRANCH   7   8
ENDBRANCH   4   7
ENDBRANCH   2   4
TORSDOF 6
ENDMDL
MODEL      154
REMARK 921   NORMALIZED FREE ENERGY PREDICTED BY IDOCK:   -4.20 KCAL/MOL
REMARK 922        TOTAL FREE ENERGY PREDICTED BY IDOCK:   -5.71 KCAL/MOL
REMARK 923 INTER-LIGAND FREE ENERGY PREDICTED BY IDOCK:   -5.23 KCAL/MOL
REMARK 924 INTRA-LIGAND FREE ENERGY PREDICTED BY IDOCK:   -0.48 KCAL/MOL
REMARK 927      BINDING AFFINITY PREDICTED BY RF-SCORE:    0.00 PKD
ROOT
HETATM    1  C   UNL     1      -7.621  15.963  67.792  1.00  0.00    -0.140 C  
HETATM    2  N   UNL     1      -8.742  16.804  68.230  1.00  0.00    -0.219 N  
HETATM    3  H   UNL     1      -8.817  17.137  69.191  1.00  0.00     0.000 HD 
ENDROOT
BRANCH   2   4
HETATM    4  S   UNL     1      -9.907  17.197  67.063  1.00  0.00    -0.286 S  
HETATM    5  O   UNL     1     -10.415  18.491  67.462  1.00  0.00    -0.381 OA 
HETATM    6  O   UNL     1      -9.255  17.005  65.785  1.00  0.00    -0.526 OA 
BRANCH   4   7
HETATM    7  C   UNL     1     -11.157  15.930  67.352  1.00  0.00    -0.207 C  
BRANCH   7   8
HETATM    8  C   UNL     1     -10.922  14.723  66.480  1.00  0.00    -0.325 A  
HETATM    9  C   UNL     1     -10.264  13.582  66.981  1.00  0.00    -0.249 A  
HETATM   10  C   UNL     1     -10.109  12.433  66.178  1.00  0.00    -0.265 A  
HETATM   11  C   UNL     1     -10.661  12.448  64.899  1.00  0.00    -0.294 A  
HETATM   12  C   UNL     1     -11.329  13.558  64.371  1.00  0.00    -0.407 A  
HETATM   13  N   UNL     1     -10.414  11.218  64.340  1.00  0.00    -0.323 NA 
HETATM   14  C   UNL     1     -11.445  14.692  65.181  1.00  0.00    -0.375 A  
HETATM   15  H   UNL     1     -10.707  10.935  63.406  1.00  0.00     0.000 HD 
HETATM   16  C   UNL     1      -9.720  10.428  65.213  1.00  0.00    -0.278 A  
HETATM   17  C   UNL     1      -9.480  11.158  66.364  1.00  0.00    -0.216 A  
BRANCH  17  18
HETATM   18  C   UNL     1      -8.709  10.681  67.567  1.00  0.00    -0.125 C  
BRANCH  18  19
HETATM   19  C   UNL     1      -9.639  10.292  68.737  1.00  0.00    -0.175 C  
BRANCH  19  20
HETATM   20  N   UNL     1      -9.618   8.865  69.129  1.00  0.00    -0.160 NA 
HETATM   21  C   UNL     1      -8.252   8.345  68.985  1.00  0.00    -0.118 C  
HETATM   22  C   UNL     1     -10.533   8.053  68.325  1.00  0.00    -0.161 C  
ENDBRANCH  19  20
ENDBRANCH  18  19
ENDBRANCH  17  18
ENDBRANCH   7   8
ENDBRANCH   4   7
ENDBRANCH   2   4
TORSDOF 6
ENDMDL
MODEL      155
REMARK 921   NORMALIZED FREE ENERGY PREDICTED BY IDOCK:   -4.20 KCAL/MOL
REMARK 922        TOTAL FREE ENERGY PREDICTED BY IDOCK:   -5.71 KCAL/MOL
REMARK 923 INTER-LIGAND FREE ENERGY PREDICTED BY IDOCK:   -5.23 KCAL/MOL
REMARK 924 INTRA-LIGAND FREE ENERGY PREDICTED BY IDOCK:   -0.47 KCAL/MOL
REMARK 927      BINDING AFFINITY PREDICTED BY RF-SCORE:    0.00 PKD
ROOT
HETATM    1  C   UNL     1      -9.334   2.803  67.935  1.00  0.00    -0.200 C  
HETATM    2  N   UNL     1      -9.511   3.106  66.509  1.00  0.00    -0.376 N  
HETATM    3  H   UNL     1      -9.758   2.382  65.835  1.00  0.00     0.000 HD 
ENDROOT
BRANCH   2   4
HETATM    4  S   UNL     1      -9.285   4.718  66.035  1.00  0.00    -0.158 S  
HETATM    5  O   UNL     1      -8.252   5.225  66.912  1.00  0.00    -0.108 OA 
HETATM    6  O   UNL     1      -9.102   4.677  64.599  1.00  0.00    -0.155 OA 
BRANCH   4   7
HETATM    7  C   UNL     1     -10.873   5.453  66.467  1.00  0.00    -0.148 C  
BRANCH   7   8
HETATM    8  C   UNL     1     -10.703   6.579  67.454  1.00  0.00    -0.412 A  
HETATM    9  C   UNL     1     -10.493   7.902  67.017  1.00  0.00    -0.419 A  
HETATM   10  C   UNL     1     -10.402   8.958  67.948  1.00  0.00    -0.286 A  
HETATM   11  C   UNL     1     -10.570   8.659  69.298  1.00  0.00    -0.192 A  
HETATM   12  C   UNL     1     -10.789   7.360  69.768  1.00  0.00    -0.246 A  
HETATM   13  N   UNL     1     -10.478   9.843  69.987  1.00  0.00    -0.265 NA 
HETATM   14  C   UNL     1     -10.849   6.329  68.825  1.00  0.00    -0.398 A  
HETATM   15  H   UNL     1     -10.566   9.936  70.998  1.00  0.00     0.000 HD 
HETATM   16  C   UNL     1     -10.251  10.880  69.125  1.00  0.00    -0.195 A  
HETATM   17  C   UNL     1     -10.165  10.369  67.843  1.00  0.00    -0.211 A  
BRANCH  17  18
HETATM   18  C   UNL     1      -9.881  11.161  66.594  1.00  0.00    -0.231 C  
BRANCH  18  19
HETATM   19  C   UNL     1     -11.144  11.348  65.723  1.00  0.00    -0.153 C  
BRANCH  19  20
HETATM   20  N   UNL     1     -11.548  12.747  65.466  1.00  0.00    -0.343 NA 
HETATM   21  C   UNL     1     -10.767  13.275  64.339  1.00  0.00    -0.415 C  
HETATM   22  C   UNL     1     -11.355  13.607  66.634  1.00  0.00    -0.326 C  
ENDBRANCH  19  20
ENDBRANCH  18  19
ENDBRANCH  17  18
ENDBRANCH   7   8
ENDBRANCH   4   7
ENDBRANCH   2   4
TORSDOF 6
ENDMDL
MODEL      156
REMARK 921   NORMALIZED FREE ENERGY PREDICTED BY IDOCK:   -4.15 KCAL/MOL
REMARK 922        TOTAL FREE ENERGY PREDICTED BY IDOCK:   -5.63 KCAL/MOL
REMARK 923 INTER-LIGAND FREE ENERGY PREDICTED BY IDOCK:   -5.82 KCAL/MOL
REMARK 924 INTRA-LIGAND FREE ENERGY PREDICTED BY IDOCK:    0.18 KCAL/MOL
REMARK 927      BINDING AFFINITY PREDICTED BY RF-SCORE:    0.00 PKD
ROOT
HETATM    1  C   UNL     1     -10.363  16.082  69.928  1.00  0.00    -0.249 C  
HETATM    2  N   UNL     1     -10.758  14.877  70.670  1.00  0.00    -0.519 N  
HETATM    3  H   UNL     1     -10.274  13.989  70.543  1.00  0.00     0.000 HD 
ENDROOT
BRANCH   2   4
HETATM    4  S   UNL     1     -12.056  15.034  71.749  1.00  0.00    -0.383 S  
HETATM    5  O   UNL     1     -11.459  14.970  73.065  1.00  0.00    -0.269 OA 
HETATM    6  O   UNL     1     -12.787  16.203  71.309  1.00  0.00    -0.292 OA 
BRANCH   4   7
HETATM    7  C   UNL     1     -12.987  13.524  71.423  1.00  0.00    -0.339 C  
BRANCH   7   8
HETATM    8  C   UNL     1     -12.326  12.697  70.349  1.00  0.00    -0.315 A  
HETATM    9  C   UNL     1     -11.853  11.398  70.622  1.00  0.00    -0.327 A  
HETATM   10  C   UNL     1     -11.297  10.607  69.595  1.00  0.00    -0.360 A  
HETATM   11  C   UNL     1     -11.272  11.132  68.304  1.00  0.00    -0.279 A  
HETATM   12  C   UNL     1     -11.740  12.413  67.994  1.00  0.00    -0.414 A  
HETATM   13  N   UNL     1     -10.728  10.170  67.489  1.00  0.00    -0.277 NA 
HETATM   14  C   UNL     1     -12.263  13.185  69.037  1.00  0.00    -0.114 A  
HETATM   15  H   UNL     1     -10.588  10.270  66.484  1.00  0.00     0.000 HD 
HETATM   16  C   UNL     1     -10.402   9.059  68.215  1.00  0.00    -0.209 A  
HETATM   17  C   UNL     1     -10.711   9.299  69.542  1.00  0.00    -0.236 A  
BRANCH  17  18
HETATM   18  C   UNL     1     -10.473   8.353  70.690  1.00  0.00    -0.227 C  
BRANCH  18  19
HETATM   19  C   UNL     1     -11.654   7.377  70.893  1.00  0.00    -0.291 C  
BRANCH  19  20
HETATM   20  N   UNL     1     -11.290   5.954  71.067  1.00  0.00    -0.222 NA 
HETATM   21  C   UNL     1     -11.271   5.631  72.499  1.00  0.00    -0.293 C  
HETATM   22  C   UNL     1      -9.986   5.637  70.481  1.00  0.00    -0.205 C  
ENDBRANCH  19  20
ENDBRANCH  18  19
ENDBRANCH  17  18
ENDBRANCH   7   8
ENDBRANCH   4   7
ENDBRANCH   2   4
TORSDOF 6
ENDMDL
MODEL      157
REMARK 921   NORMALIZED FREE ENERGY PREDICTED BY IDOCK:   -4.14 KCAL/MOL
REMARK 922        TOTAL FREE ENERGY PREDICTED BY IDOCK:   -5.62 KCAL/MOL
REMARK 923 INTER-LIGAND FREE ENERGY PREDICTED BY IDOCK:   -5.28 KCAL/MOL
REMARK 924 INTRA-LIGAND FREE ENERGY PREDICTED BY IDOCK:   -0.33 KCAL/MOL
REMARK 927      BINDING AFFINITY PREDICTED BY RF-SCORE:    0.00 PKD
ROOT
HETATM    1  C   UNL     1     -10.671   5.819  69.304  1.00  0.00    -0.316 C  
HETATM    2  N   UNL     1     -10.486   5.848  70.760  1.00  0.00    -0.234 N  
HETATM    3  H   UNL     1      -9.643   5.479  71.199  1.00  0.00     0.000 HD 
ENDROOT
BRANCH   2   4
HETATM    4  S   UNL     1     -11.739   6.527  71.678  1.00  0.00    -0.327 S  
HETATM    5  O   UNL     1     -12.772   6.852  70.719  1.00  0.00    -0.286 OA 
HETATM    6  O   UNL     1     -11.979   5.592  72.757  1.00  0.00    -0.226 OA 
BRANCH   4   7
HETATM    7  C   UNL     1     -10.969   8.039  72.288  1.00  0.00    -0.314 C  
BRANCH   7   8
HETATM    8  C   UNL     1     -11.179   9.183  71.329  1.00  0.00    -0.407 A  
HETATM    9  C   UNL     1     -10.568   9.187  70.058  1.00  0.00    -0.250 A  
HETATM   10  C   UNL     1     -10.825  10.229  69.143  1.00  0.00    -0.270 A  
HETATM   11  C   UNL     1     -11.727  11.222  69.517  1.00  0.00    -0.345 A  
HETATM   12  C   UNL     1     -12.358  11.248  70.764  1.00  0.00    -0.495 A  
HETATM   13  N   UNL     1     -11.835  12.087  68.456  1.00  0.00    -0.338 NA 
HETATM   14  C   UNL     1     -12.066  10.215  71.662  1.00  0.00    -0.373 A  
HETATM   15  H   UNL     1     -12.431  12.914  68.437  1.00  0.00     0.000 HD 
HETATM   16  C   UNL     1     -11.030  11.683  67.427  1.00  0.00    -0.261 A  
HETATM   17  C   UNL     1     -10.356  10.543  67.825  1.00  0.00    -0.248 A  
BRANCH  17  18
HETATM   18  C   UNL     1      -9.335   9.792  67.010  1.00  0.00    -0.178 C  
BRANCH  18  19
HETATM   19  C   UNL     1      -7.909   9.937  67.587  1.00  0.00    -0.098 C  
BRANCH  19  20
HETATM   20  N   UNL     1      -7.610  11.227  68.246  1.00  0.00    -0.107 NA 
HETATM   21  C   UNL     1      -7.273  12.226  67.223  1.00  0.00    -0.138 C  
HETATM   22  C   UNL     1      -6.507  11.122  69.203  1.00  0.00    -0.074 C  
ENDBRANCH  19  20
ENDBRANCH  18  19
ENDBRANCH  17  18
ENDBRANCH   7   8
ENDBRANCH   4   7
ENDBRANCH   2   4
TORSDOF 6
ENDMDL
MODEL      158
REMARK 921   NORMALIZED FREE ENERGY PREDICTED BY IDOCK:   -4.13 KCAL/MOL
REMARK 922        TOTAL FREE ENERGY PREDICTED BY IDOCK:   -5.61 KCAL/MOL
REMARK 923 INTER-LIGAND FREE ENERGY PREDICTED BY IDOCK:   -5.20 KCAL/MOL
REMARK 924 INTRA-LIGAND FREE ENERGY PREDICTED BY IDOCK:   -0.41 KCAL/MOL
REMARK 927      BINDING AFFINITY PREDICTED BY RF-SCORE:    0.00 PKD
ROOT
HETATM    1  C   UNL     1      -6.576  20.797  67.880  1.00  0.00    -0.320 C  
HETATM    2  N   UNL     1      -6.419  19.727  66.886  1.00  0.00    -0.191 N  
HETATM    3  H   UNL     1      -5.498  19.418  66.574  1.00  0.00     0.000 HD 
ENDROOT
BRANCH   2   4
HETATM    4  S   UNL     1      -7.840  19.029  66.281  1.00  0.00    -0.270 S  
HETATM    5  O   UNL     1      -8.558  20.120  65.659  1.00  0.00    -0.150 OA 
HETATM    6  O   UNL     1      -7.411  17.877  65.517  1.00  0.00    -0.524 OA 
BRANCH   4   7
HETATM    7  C   UNL     1      -8.677  18.529  67.798  1.00  0.00    -0.275 C  
BRANCH   7   8
HETATM    8  C   UNL     1      -8.299  17.123  68.191  1.00  0.00    -0.226 A  
HETATM    9  C   UNL     1      -8.985  16.012  67.661  1.00  0.00    -0.193 A  
HETATM   10  C   UNL     1      -8.581  14.700  67.983  1.00  0.00    -0.162 A  
HETATM   11  C   UNL     1      -7.464  14.540  68.799  1.00  0.00    -0.132 A  
HETATM   12  C   UNL     1      -6.752  15.617  69.336  1.00  0.00    -0.180 A  
HETATM   13  N   UNL     1      -7.252  13.189  68.931  1.00  0.00    -0.209 NA 
HETATM   14  C   UNL     1      -7.191  16.908  69.021  1.00  0.00    -0.232 A  
HETATM   15  H   UNL     1      -6.497  12.769  69.472  1.00  0.00     0.000 HD 
HETATM   16  C   UNL     1      -8.197  12.488  68.236  1.00  0.00    -0.168 A  
HETATM   17  C   UNL     1      -9.067  13.391  67.653  1.00  0.00    -0.203 A  
BRANCH  17  18
HETATM   18  C   UNL     1     -10.280  13.044  66.830  1.00  0.00    -0.244 C  
BRANCH  18  19
HETATM   19  C   UNL     1     -11.546  12.880  67.701  1.00  0.00    -0.355 C  
BRANCH  19  20
HETATM   20  N   UNL     1     -12.030  11.493  67.879  1.00  0.00    -0.641 NA 
HETATM   21  C   UNL     1     -12.155  11.205  69.313  1.00  0.00    -0.308 C  
HETATM   22  C   UNL     1     -11.140  10.509  67.263  1.00  0.00    -0.213 C  
ENDBRANCH  19  20
ENDBRANCH  18  19
ENDBRANCH  17  18
ENDBRANCH   7   8
ENDBRANCH   4   7
ENDBRANCH   2   4
TORSDOF 6
ENDMDL
MODEL      159
REMARK 921   NORMALIZED FREE ENERGY PREDICTED BY IDOCK:   -4.13 KCAL/MOL
REMARK 922        TOTAL FREE ENERGY PREDICTED BY IDOCK:   -5.60 KCAL/MOL
REMARK 923 INTER-LIGAND FREE ENERGY PREDICTED BY IDOCK:   -5.43 KCAL/MOL
REMARK 924 INTRA-LIGAND FREE ENERGY PREDICTED BY IDOCK:   -0.17 KCAL/MOL
REMARK 927      BINDING AFFINITY PREDICTED BY RF-SCORE:    0.00 PKD
ROOT
HETATM    1  C   UNL     1      -8.773   9.716  69.684  1.00  0.00    -0.197 C  
HETATM    2  N   UNL     1      -8.044   9.397  68.450  1.00  0.00    -0.108 N  
HETATM    3  H   UNL     1      -7.772  10.122  67.787  1.00  0.00     0.000 HD 
ENDROOT
BRANCH   2   4
HETATM    4  S   UNL     1      -7.675   7.765  68.179  1.00  0.00    -0.121 S  
HETATM    5  O   UNL     1      -6.382   7.776  67.530  1.00  0.00    -0.051 OA 
HETATM    6  O   UNL     1      -7.874   7.106  69.453  1.00  0.00    -0.108 OA 
BRANCH   4   7
HETATM    7  C   UNL     1      -8.952   7.292  66.997  1.00  0.00    -0.130 C  
BRANCH   7   8
HETATM    8  C   UNL     1      -9.085   8.317  65.899  1.00  0.00    -0.203 A  
HETATM    9  C   UNL     1      -9.916   9.444  66.056  1.00  0.00    -0.352 A  
HETATM   10  C   UNL     1      -9.982  10.431  65.050  1.00  0.00    -0.399 A  
HETATM   11  C   UNL     1      -9.172  10.278  63.927  1.00  0.00    -0.274 A  
HETATM   12  C   UNL     1      -8.328   9.178  63.741  1.00  0.00    -0.183 A  
HETATM   13  N   UNL     1      -9.385  11.373  63.126  1.00  0.00    -0.478 NA 
HETATM   14  C   UNL     1      -8.302   8.202  64.743  1.00  0.00    -0.113 A  
HETATM   15  H   UNL     1      -8.923  11.538  62.232  1.00  0.00     0.000 HD 
HETATM   16  C   UNL     1     -10.304  12.209  63.695  1.00  0.00    -0.452 A  
HETATM   17  C   UNL     1     -10.728  11.645  64.885  1.00  0.00    -0.352 A  
BRANCH  17  18
HETATM   18  C   UNL     1     -11.769  12.216  65.811  1.00  0.00    -0.391 C  
BRANCH  18  19
HETATM   19  C   UNL     1     -12.289  13.588  65.327  1.00  0.00    -0.467 C  
BRANCH  19  20
HETATM   20  N   UNL     1     -11.713  14.771  66.004  1.00  0.00    -0.300 NA 
HETATM   21  C   UNL     1     -10.862  15.503  65.057  1.00  0.00    -0.450 C  
HETATM   22  C   UNL     1     -10.926  14.409  67.183  1.00  0.00    -0.303 C  
ENDBRANCH  19  20
ENDBRANCH  18  19
ENDBRANCH  17  18
ENDBRANCH   7   8
ENDBRANCH   4   7
ENDBRANCH   2   4
TORSDOF 6
ENDMDL
MODEL      160
REMARK 921   NORMALIZED FREE ENERGY PREDICTED BY IDOCK:   -4.12 KCAL/MOL
REMARK 922        TOTAL FREE ENERGY PREDICTED BY IDOCK:   -5.60 KCAL/MOL
REMARK 923 INTER-LIGAND FREE ENERGY PREDICTED BY IDOCK:   -5.15 KCAL/MOL
REMARK 924 INTRA-LIGAND FREE ENERGY PREDICTED BY IDOCK:   -0.45 KCAL/MOL
REMARK 927      BINDING AFFINITY PREDICTED BY RF-SCORE:    0.00 PKD
ROOT
HETATM    1  C   UNL     1     -10.001  19.260  68.113  1.00  0.00    -0.391 C  
HETATM    2  N   UNL     1      -8.953  18.647  67.287  1.00  0.00    -0.271 N  
HETATM    3  H   UNL     1      -8.485  19.167  66.545  1.00  0.00     0.000 HD 
ENDROOT
BRANCH   2   4
HETATM    4  S   UNL     1      -8.555  17.034  67.626  1.00  0.00    -0.212 S  
HETATM    5  O   UNL     1      -7.115  17.023  67.755  1.00  0.00    -0.143 OA 
HETATM    6  O   UNL     1      -9.414  16.647  68.725  1.00  0.00    -0.242 OA 
BRANCH   4   7
HETATM    7  C   UNL     1      -9.043  16.209  66.099  1.00  0.00    -0.347 C  
BRANCH   7   8
HETATM    8  C   UNL     1      -9.864  14.977  66.383  1.00  0.00    -0.290 A  
HETATM    9  C   UNL     1      -9.259  13.791  66.845  1.00  0.00    -0.263 A  
HETATM   10  C   UNL     1     -10.044  12.666  67.172  1.00  0.00    -0.224 A  
HETATM   11  C   UNL     1     -11.428  12.779  67.065  1.00  0.00    -0.341 A  
HETATM   12  C   UNL     1     -12.065  13.941  66.619  1.00  0.00    -0.485 A  
HETATM   13  N   UNL     1     -11.962  11.581  67.471  1.00  0.00    -0.622 NA 
HETATM   14  C   UNL     1     -11.260  15.034  66.278  1.00  0.00    -0.309 A  
HETATM   15  H   UNL     1     -12.959  11.369  67.504  1.00  0.00     0.000 HD 
HETATM   16  C   UNL     1     -10.969  10.711  67.824  1.00  0.00    -0.306 A  
HETATM   17  C   UNL     1      -9.751  11.336  67.623  1.00  0.00    -0.183 A  
BRANCH  17  18
HETATM   18  C   UNL     1      -8.395  10.721  67.846  1.00  0.00    -0.117 C  
BRANCH  18  19
HETATM   19  C   UNL     1      -8.305   9.288  67.275  1.00  0.00    -0.125 C  
BRANCH  19  20
HETATM   20  N   UNL     1      -7.340   9.095  66.170  1.00  0.00    -0.094 NA 
HETATM   21  C   UNL     1      -6.108   9.835  66.470  1.00  0.00    -0.060 C  
HETATM   22  C   UNL     1      -7.872   9.541  64.882  1.00  0.00    -0.119 C  
ENDBRANCH  19  20
ENDBRANCH  18  19
ENDBRANCH  17  18
ENDBRANCH   7   8
ENDBRANCH   4   7
ENDBRANCH   2   4
TORSDOF 6
ENDMDL
MODEL      161
REMARK 921   NORMALIZED FREE ENERGY PREDICTED BY IDOCK:   -4.12 KCAL/MOL
REMARK 922        TOTAL FREE ENERGY PREDICTED BY IDOCK:   -5.59 KCAL/MOL
REMARK 923 INTER-LIGAND FREE ENERGY PREDICTED BY IDOCK:   -5.36 KCAL/MOL
REMARK 924 INTRA-LIGAND FREE ENERGY PREDICTED BY IDOCK:   -0.23 KCAL/MOL
REMARK 927      BINDING AFFINITY PREDICTED BY RF-SCORE:    0.00 PKD
ROOT
HETATM    1  C   UNL     1      -9.934  20.075  67.773  1.00  0.00    -0.423 C  
HETATM    2  N   UNL     1      -9.072  19.687  66.650  1.00  0.00    -0.343 N  
HETATM    3  H   UNL     1      -8.563  20.381  66.101  1.00  0.00     0.000 HD 
ENDROOT
BRANCH   2   4
HETATM    4  S   UNL     1      -8.960  18.030  66.307  1.00  0.00    -0.107 S  
HETATM    5  O   UNL     1     -10.186  17.709  65.610  1.00  0.00    -0.593 OA 
HETATM    6  O   UNL     1      -7.667  17.851  65.680  1.00  0.00    -0.541 OA 
BRANCH   4   7
HETATM    7  C   UNL     1      -8.986  17.312  67.960  1.00  0.00    -0.242 C  
BRANCH   7   8
HETATM    8  C   UNL     1      -8.680  15.836  67.919  1.00  0.00    -0.170 A  
HETATM    9  C   UNL     1      -9.711  14.879  67.988  1.00  0.00    -0.212 A  
HETATM   10  C   UNL     1      -9.421  13.503  67.881  1.00  0.00    -0.215 A  
HETATM   11  C   UNL     1      -8.097  13.128  67.663  1.00  0.00    -0.176 A  
HETATM   12  C   UNL     1      -7.048  14.049  67.580  1.00  0.00    -0.179 A  
HETATM   13  N   UNL     1      -8.079  11.759  67.556  1.00  0.00    -0.143 NA 
HETATM   14  C   UNL     1      -7.362  15.406  67.714  1.00  0.00    -0.180 A  
HETATM   15  H   UNL     1      -7.244  11.199  67.389  1.00  0.00     0.000 HD 
HETATM   16  C   UNL     1      -9.340  11.252  67.706  1.00  0.00    -0.163 A  
HETATM   17  C   UNL     1     -10.206  12.305  67.943  1.00  0.00    -0.202 A  
BRANCH  17  18
HETATM   18  C   UNL     1     -11.685  12.189  68.206  1.00  0.00    -0.401 C  
BRANCH  18  19
HETATM   19  C   UNL     1     -12.040  10.893  68.968  1.00  0.00    -0.169 C  
BRANCH  19  20
HETATM   20  N   UNL     1     -12.444  11.067  70.381  1.00  0.00    -0.320 NA 
HETATM   21  C   UNL     1     -12.163  12.447  70.797  1.00  0.00    -0.242 C  
HETATM   22  C   UNL     1     -11.751  10.140  71.277  1.00  0.00    -0.341 C  
ENDBRANCH  19  20
ENDBRANCH  18  19
ENDBRANCH  17  18
ENDBRANCH   7   8
ENDBRANCH   4   7
ENDBRANCH   2   4
TORSDOF 6
ENDMDL
MODEL      162
REMARK 921   NORMALIZED FREE ENERGY PREDICTED BY IDOCK:   -4.08 KCAL/MOL
REMARK 922        TOTAL FREE ENERGY PREDICTED BY IDOCK:   -5.54 KCAL/MOL
REMARK 923 INTER-LIGAND FREE ENERGY PREDICTED BY IDOCK:   -6.12 KCAL/MOL
REMARK 924 INTRA-LIGAND FREE ENERGY PREDICTED BY IDOCK:    0.57 KCAL/MOL
REMARK 927      BINDING AFFINITY PREDICTED BY RF-SCORE:    0.00 PKD
ROOT
HETATM    1  C   UNL     1      -8.801   8.836  71.124  1.00  0.00    -0.219 C  
HETATM    2  N   UNL     1      -9.577   9.829  70.372  1.00  0.00    -0.352 N  
HETATM    3  H   UNL     1      -9.236  10.780  70.231  1.00  0.00     0.000 HD 
ENDROOT
BRANCH   2   4
HETATM    4  S   UNL     1     -11.068   9.321  69.745  1.00  0.00    -0.088 S  
HETATM    5  O   UNL     1     -11.255  10.102  68.542  1.00  0.00    -0.233 OA 
HETATM    6  O   UNL     1     -10.998   7.876  69.703  1.00  0.00    -0.214 OA 
BRANCH   4   7
HETATM    7  C   UNL     1     -12.211   9.879  71.024  1.00  0.00    -0.353 C  
BRANCH   7   8
HETATM    8  C   UNL     1     -12.378  11.377  70.991  1.00  0.00    -0.448 A  
HETATM    9  C   UNL     1     -11.845  12.143  69.935  1.00  0.00    -0.392 A  
HETATM   10  C   UNL     1     -12.064  13.535  69.878  1.00  0.00    -0.408 A  
HETATM   11  C   UNL     1     -12.854  14.115  70.868  1.00  0.00    -0.334 A  
HETATM   12  C   UNL     1     -13.406  13.387  71.926  1.00  0.00    -0.539 A  
HETATM   13  N   UNL     1     -12.949  15.454  70.574  1.00  0.00    -0.648 NA 
HETATM   14  C   UNL     1     -13.152  12.012  71.971  1.00  0.00    -0.456 A  
HETATM   15  H   UNL     1     -13.472  16.135  71.124  1.00  0.00     0.000 HD 
HETATM   16  C   UNL     1     -12.244  15.744  69.440  1.00  0.00    -0.127 A  
HETATM   17  C   UNL     1     -11.647  14.580  68.988  1.00  0.00    -0.330 A  
BRANCH  17  18
HETATM   18  C   UNL     1     -10.745  14.459  67.788  1.00  0.00    -0.248 C  
BRANCH  18  19
HETATM   19  C   UNL     1      -9.278  14.188  68.189  1.00  0.00    -0.194 C  
BRANCH  19  20
HETATM   20  N   UNL     1      -8.266  15.068  67.564  1.00  0.00    -0.168 NA 
HETATM   21  C   UNL     1      -6.930  14.500  67.784  1.00  0.00    -0.179 C  
HETATM   22  C   UNL     1      -8.307  16.430  68.097  1.00  0.00    -0.186 C  
ENDBRANCH  19  20
ENDBRANCH  18  19
ENDBRANCH  17  18
ENDBRANCH   7   8
ENDBRANCH   4   7
ENDBRANCH   2   4
TORSDOF 6
ENDMDL
MODEL      163
REMARK 921   NORMALIZED FREE ENERGY PREDICTED BY IDOCK:   -4.06 KCAL/MOL
REMARK 922        TOTAL FREE ENERGY PREDICTED BY IDOCK:   -5.51 KCAL/MOL
REMARK 923 INTER-LIGAND FREE ENERGY PREDICTED BY IDOCK:   -5.10 KCAL/MOL
REMARK 924 INTRA-LIGAND FREE ENERGY PREDICTED BY IDOCK:   -0.41 KCAL/MOL
REMARK 927      BINDING AFFINITY PREDICTED BY RF-SCORE:    0.00 PKD
ROOT
HETATM    1  C   UNL     1     -12.078  12.966  70.006  1.00  0.00    -0.286 C  
HETATM    2  N   UNL     1     -10.909  13.784  69.661  1.00  0.00    -0.449 N  
HETATM    3  H   UNL     1     -10.209  14.037  70.358  1.00  0.00     0.000 HD 
ENDROOT
BRANCH   2   4
HETATM    4  S   UNL     1     -10.778  14.290  68.048  1.00  0.00    -0.242 S  
HETATM    5  O   UNL     1     -11.349  15.619  68.025  1.00  0.00    -0.343 OA 
HETATM    6  O   UNL     1      -9.398  14.055  67.680  1.00  0.00    -0.192 OA 
BRANCH   4   7
HETATM    7  C   UNL     1     -11.879  13.133  67.211  1.00  0.00    -0.367 C  
BRANCH   7   8
HETATM    8  C   UNL     1     -11.114  11.964  66.644  1.00  0.00    -0.360 A  
HETATM    9  C   UNL     1     -10.618  10.946  67.482  1.00  0.00    -0.271 A  
HETATM   10  C   UNL     1      -9.962   9.823  66.935  1.00  0.00    -0.270 A  
HETATM   11  C   UNL     1      -9.861   9.735  65.549  1.00  0.00    -0.308 A  
HETATM   12  C   UNL     1     -10.348  10.721  64.685  1.00  0.00    -0.394 A  
HETATM   13  N   UNL     1      -9.226   8.550  65.267  1.00  0.00    -0.430 NA 
HETATM   14  C   UNL     1     -10.972  11.835  65.256  1.00  0.00    -0.350 A  
HETATM   15  H   UNL     1      -9.016   8.211  64.328  1.00  0.00     0.000 HD 
HETATM   16  C   UNL     1      -8.916   7.888  66.422  1.00  0.00    -0.166 A  
HETATM   17  C   UNL     1      -9.329   8.663  67.491  1.00  0.00    -0.162 A  
BRANCH  17  18
HETATM   18  C   UNL     1      -9.143   8.328  68.948  1.00  0.00    -0.147 C  
BRANCH  18  19
HETATM   19  C   UNL     1      -7.686   7.931  69.272  1.00  0.00    -0.099 C  
BRANCH  19  20
HETATM   20  N   UNL     1      -7.467   6.509  69.615  1.00  0.00    -0.090 NA 
HETATM   21  C   UNL     1      -8.749   5.901  69.997  1.00  0.00    -0.133 C  
HETATM   22  C   UNL     1      -6.506   6.339  70.706  1.00  0.00    -0.041 C  
ENDBRANCH  19  20
ENDBRANCH  18  19
ENDBRANCH  17  18
ENDBRANCH   7   8
ENDBRANCH   4   7
ENDBRANCH   2   4
TORSDOF 6
ENDMDL
MODEL      164
REMARK 921   NORMALIZED FREE ENERGY PREDICTED BY IDOCK:   -4.04 KCAL/MOL
REMARK 922        TOTAL FREE ENERGY PREDICTED BY IDOCK:   -5.49 KCAL/MOL
REMARK 923 INTER-LIGAND FREE ENERGY PREDICTED BY IDOCK:   -5.44 KCAL/MOL
REMARK 924 INTRA-LIGAND FREE ENERGY PREDICTED BY IDOCK:   -0.05 KCAL/MOL
REMARK 927      BINDING AFFINITY PREDICTED BY RF-SCORE:    0.00 PKD
ROOT
HETATM    1  C   UNL     1     -11.816  15.493  64.335  1.00  0.00    -0.219 C  
HETATM    2  N   UNL     1     -12.523  14.398  63.658  1.00  0.00    -1.086 N  
HETATM    3  H   UNL     1     -12.990  14.537  62.763  1.00  0.00     0.000 HD 
ENDROOT
BRANCH   2   4
HETATM    4  S   UNL     1     -12.524  12.891  64.435  1.00  0.00    -0.347 S  
HETATM    5  O   UNL     1     -13.502  13.017  65.494  1.00  0.00    -0.144 OA 
HETATM    6  O   UNL     1     -12.677  11.912  63.381  1.00  0.00    -0.662 OA 
BRANCH   4   7
HETATM    7  C   UNL     1     -10.864  12.839  65.136  1.00  0.00    -0.291 C  
BRANCH   7   8
HETATM    8  C   UNL     1     -10.088  11.657  64.612  1.00  0.00    -0.305 A  
HETATM    9  C   UNL     1      -9.800  10.553  65.440  1.00  0.00    -0.335 A  
HETATM   10  C   UNL     1      -9.133   9.424  64.923  1.00  0.00    -0.258 A  
HETATM   11  C   UNL     1      -8.809   9.417  63.568  1.00  0.00    -0.172 A  
HETATM   12  C   UNL     1      -9.087  10.489  62.713  1.00  0.00    -0.299 A  
HETATM   13  N   UNL     1      -8.210   8.210  63.303  1.00  0.00    -0.332 NA 
HETATM   14  C   UNL     1      -9.727  11.607  63.259  1.00  0.00    -0.390 A  
HETATM   15  H   UNL     1      -7.869   7.918  62.388  1.00  0.00     0.000 HD 
HETATM   16  C   UNL     1      -8.136   7.455  64.440  1.00  0.00    -0.070 A  
HETATM   17  C   UNL     1      -8.672   8.187  65.485  1.00  0.00    -0.152 A  
BRANCH  17  18
HETATM   18  C   UNL     1      -8.750   7.747  66.923  1.00  0.00    -0.136 C  
BRANCH  18  19
HETATM   19  C   UNL     1      -8.004   8.714  67.869  1.00  0.00    -0.107 C  
BRANCH  19  20
HETATM   20  N   UNL     1      -6.760   8.192  68.474  1.00  0.00    -0.061 NA 
HETATM   21  C   UNL     1      -6.172   9.224  69.338  1.00  0.00    -0.040 C  
HETATM   22  C   UNL     1      -5.778   7.786  67.467  1.00  0.00    -0.037 C  
ENDBRANCH  19  20
ENDBRANCH  18  19
ENDBRANCH  17  18
ENDBRANCH   7   8
ENDBRANCH   4   7
ENDBRANCH   2   4
TORSDOF 6
ENDMDL
MODEL      165
REMARK 921   NORMALIZED FREE ENERGY PREDICTED BY IDOCK:   -4.04 KCAL/MOL
REMARK 922        TOTAL FREE ENERGY PREDICTED BY IDOCK:   -5.48 KCAL/MOL
REMARK 923 INTER-LIGAND FREE ENERGY PREDICTED BY IDOCK:   -5.10 KCAL/MOL
REMARK 924 INTRA-LIGAND FREE ENERGY PREDICTED BY IDOCK:   -0.38 KCAL/MOL
REMARK 927      BINDING AFFINITY PREDICTED BY RF-SCORE:    0.00 PKD
ROOT
HETATM    1  C   UNL     1      -8.826   9.637  69.837  1.00  0.00    -0.221 C  
HETATM    2  N   UNL     1      -8.874   9.408  68.387  1.00  0.00    -0.128 N  
HETATM    3  H   UNL     1      -8.043   9.140  67.861  1.00  0.00     0.000 HD 
ENDROOT
BRANCH   2   4
HETATM    4  S   UNL     1     -10.376   9.612  67.629  1.00  0.00    -0.252 S  
HETATM    5  O   UNL     1     -10.646   8.345  66.987  1.00  0.00    -0.314 OA 
HETATM    6  O   UNL     1     -11.255  10.144  68.648  1.00  0.00    -0.230 OA 
BRANCH   4   7
HETATM    7  C   UNL     1      -9.992  10.861  66.386  1.00  0.00    -0.221 C  
BRANCH   7   8
HETATM    8  C   UNL     1      -9.432  12.109  67.021  1.00  0.00    -0.201 A  
HETATM    9  C   UNL     1     -10.282  13.066  67.611  1.00  0.00    -0.216 A  
HETATM   10  C   UNL     1      -9.745  14.197  68.262  1.00  0.00    -0.227 A  
HETATM   11  C   UNL     1      -8.359  14.311  68.339  1.00  0.00    -0.164 A  
HETATM   12  C   UNL     1      -7.484  13.378  67.774  1.00  0.00    -0.160 A  
HETATM   13  N   UNL     1      -8.089  15.459  69.044  1.00  0.00    -0.194 NA 
HETATM   14  C   UNL     1      -8.045  12.279  67.113  1.00  0.00    -0.173 A  
HETATM   15  H   UNL     1      -7.153  15.801  69.263  1.00  0.00     0.000 HD 
HETATM   16  C   UNL     1      -9.251  16.078  69.409  1.00  0.00    -0.202 A  
HETATM   17  C   UNL     1     -10.312  15.341  68.914  1.00  0.00    -0.243 A  
BRANCH  17  18
HETATM   18  C   UNL     1     -11.770  15.690  69.052  1.00  0.00    -0.408 C  
BRANCH  18  19
HETATM   19  C   UNL     1     -12.280  15.501  70.498  1.00  0.00    -0.404 C  
BRANCH  19  20
HETATM   20  N   UNL     1     -13.207  14.368  70.711  1.00  0.00    -0.308 NA 
HETATM   21  C   UNL     1     -14.047  14.645  71.883  1.00  0.00    -0.516 C  
HETATM   22  C   UNL     1     -12.502  13.101  70.907  1.00  0.00    -0.323 C  
ENDBRANCH  19  20
ENDBRANCH  18  19
ENDBRANCH  17  18
ENDBRANCH   7   8
ENDBRANCH   4   7
ENDBRANCH   2   4
TORSDOF 6
ENDMDL
MODEL      166
REMARK 921   NORMALIZED FREE ENERGY PREDICTED BY IDOCK:   -4.02 KCAL/MOL
REMARK 922        TOTAL FREE ENERGY PREDICTED BY IDOCK:   -5.47 KCAL/MOL
REMARK 923 INTER-LIGAND FREE ENERGY PREDICTED BY IDOCK:   -5.25 KCAL/MOL
REMARK 924 INTRA-LIGAND FREE ENERGY PREDICTED BY IDOCK:   -0.21 KCAL/MOL
REMARK 927      BINDING AFFINITY PREDICTED BY RF-SCORE:    0.00 PKD
ROOT
HETATM    1  C   UNL     1     -10.993  16.562  68.468  1.00  0.00    -0.350 C  
HETATM    2  N   UNL     1     -10.679  15.712  67.313  1.00  0.00    -0.304 N  
HETATM    3  H   UNL     1     -10.378  16.109  66.423  1.00  0.00     0.000 HD 
ENDROOT
BRANCH   2   4
HETATM    4  S   UNL     1     -10.839  14.038  67.527  1.00  0.00    -0.273 S  
HETATM    5  O   UNL     1     -11.871  13.639  66.595  1.00  0.00    -0.364 OA 
HETATM    6  O   UNL     1      -9.496  13.506  67.439  1.00  0.00    -0.211 OA 
BRANCH   4   7
HETATM    7  C   UNL     1     -11.466  13.944  69.215  1.00  0.00    -0.297 C  
BRANCH   7   8
HETATM    8  C   UNL     1     -11.657  12.512  69.647  1.00  0.00    -0.323 A  
HETATM    9  C   UNL     1     -10.929  11.468  69.042  1.00  0.00    -0.285 A  
HETATM   10  C   UNL     1     -11.065  10.141  69.499  1.00  0.00    -0.295 A  
HETATM   11  C   UNL     1     -11.902   9.905  70.588  1.00  0.00    -0.303 A  
HETATM   12  C   UNL     1     -12.633  10.916  71.220  1.00  0.00    -0.526 A  
HETATM   13  N   UNL     1     -11.835   8.561  70.863  1.00  0.00    -0.393 NA 
HETATM   14  C   UNL     1     -12.498  12.219  70.729  1.00  0.00    -0.356 A  
HETATM   15  H   UNL     1     -12.341   8.095  71.615  1.00  0.00     0.000 HD 
HETATM   16  C   UNL     1     -10.993   7.936  69.986  1.00  0.00    -0.207 A  
HETATM   17  C   UNL     1     -10.513   8.880  69.095  1.00  0.00    -0.236 A  
BRANCH  17  18
HETATM   18  C   UNL     1      -9.588   8.612  67.937  1.00  0.00    -0.173 C  
BRANCH  18  19
HETATM   19  C   UNL     1      -8.149   9.100  68.217  1.00  0.00    -0.104 C  
BRANCH  19  20
HETATM   20  N   UNL     1      -7.663  10.200  67.357  1.00  0.00    -0.095 NA 
HETATM   21  C   UNL     1      -6.881   9.637  66.248  1.00  0.00    -0.091 C  
HETATM   22  C   UNL     1      -6.840  11.161  68.092  1.00  0.00    -0.067 C  
ENDBRANCH  19  20
ENDBRANCH  18  19
ENDBRANCH  17  18
ENDBRANCH   7   8
ENDBRANCH   4   7
ENDBRANCH   2   4
TORSDOF 6
ENDMDL
MODEL      167
REMARK 921   NORMALIZED FREE ENERGY PREDICTED BY IDOCK:   -4.01 KCAL/MOL
REMARK 922        TOTAL FREE ENERGY PREDICTED BY IDOCK:   -5.45 KCAL/MOL
REMARK 923 INTER-LIGAND FREE ENERGY PREDICTED BY IDOCK:   -5.49 KCAL/MOL
REMARK 924 INTRA-LIGAND FREE ENERGY PREDICTED BY IDOCK:    0.04 KCAL/MOL
REMARK 927      BINDING AFFINITY PREDICTED BY RF-SCORE:    0.00 PKD
ROOT
HETATM    1  C   UNL     1     -11.838  16.214  72.138  1.00  0.00    -0.536 C  
HETATM    2  N   UNL     1     -11.776  16.526  70.705  1.00  0.00    -0.441 N  
HETATM    3  H   UNL     1     -11.946  17.470  70.356  1.00  0.00     0.000 HD 
ENDROOT
BRANCH   2   4
HETATM    4  S   UNL     1     -11.410  15.246  69.656  1.00  0.00    -0.316 S  
HETATM    5  O   UNL     1     -11.430  14.063  70.489  1.00  0.00    -0.162 OA 
HETATM    6  O   UNL     1     -12.313  15.393  68.535  1.00  0.00    -0.021 OA 
BRANCH   4   7
HETATM    7  C   UNL     1      -9.715  15.635  69.182  1.00  0.00    -0.249 C  
BRANCH   7   8
HETATM    8  C   UNL     1      -9.032  14.439  68.568  1.00  0.00    -0.187 A  
HETATM    9  C   UNL     1      -9.656  13.691  67.549  1.00  0.00    -0.220 A  
HETATM   10  C   UNL     1      -8.982  12.615  66.934  1.00  0.00    -0.213 A  
HETATM   11  C   UNL     1      -7.674  12.348  67.333  1.00  0.00    -0.170 A  
HETATM   12  C   UNL     1      -7.019  13.073  68.333  1.00  0.00    -0.100 A  
HETATM   13  N   UNL     1      -7.229  11.296  66.570  1.00  0.00    -0.258 NA 
HETATM   14  C   UNL     1      -7.721  14.118  68.943  1.00  0.00    -0.091 A  
HETATM   15  H   UNL     1      -6.300  10.881  66.637  1.00  0.00     0.000 HD 
HETATM   16  C   UNL     1      -8.207  10.883  65.710  1.00  0.00    -0.113 A  
HETATM   17  C   UNL     1      -9.332  11.659  65.924  1.00  0.00    -0.232 A  
BRANCH  17  18
HETATM   18  C   UNL     1     -10.654  11.512  65.218  1.00  0.00    -0.339 C  
BRANCH  18  19
HETATM   19  C   UNL     1     -11.740  12.433  65.818  1.00  0.00    -0.414 C  
BRANCH  19  20
HETATM   20  N   UNL     1     -12.522  13.225  64.844  1.00  0.00    -0.551 NA 
HETATM   21  C   UNL     1     -12.334  12.662  63.501  1.00  0.00    -0.496 C  
HETATM   22  C   UNL     1     -12.137  14.637  64.837  1.00  0.00    -0.382 C  
ENDBRANCH  19  20
ENDBRANCH  18  19
ENDBRANCH  17  18
ENDBRANCH   7   8
ENDBRANCH   4   7
ENDBRANCH   2   4
TORSDOF 6
ENDMDL
MODEL      168
REMARK 921   NORMALIZED FREE ENERGY PREDICTED BY IDOCK:   -4.01 KCAL/MOL
REMARK 922        TOTAL FREE ENERGY PREDICTED BY IDOCK:   -5.44 KCAL/MOL
REMARK 923 INTER-LIGAND FREE ENERGY PREDICTED BY IDOCK:   -5.06 KCAL/MOL
REMARK 924 INTRA-LIGAND FREE ENERGY PREDICTED BY IDOCK:   -0.38 KCAL/MOL
REMARK 927      BINDING AFFINITY PREDICTED BY RF-SCORE:    0.00 PKD
ROOT
HETATM    1  C   UNL     1      -5.976   7.957  66.759  1.00  0.00    -0.048 C  
HETATM    2  N   UNL     1      -7.157   8.647  66.225  1.00  0.00    -0.077 N  
HETATM    3  H   UNL     1      -7.520   8.444  65.294  1.00  0.00     0.000 HD 
ENDROOT
BRANCH   2   4
HETATM    4  S   UNL     1      -7.890   9.799  67.230  1.00  0.00    -0.098 S  
HETATM    5  O   UNL     1      -8.421   9.042  68.342  1.00  0.00    -0.126 OA 
HETATM    6  O   UNL     1      -6.894  10.831  67.428  1.00  0.00    -0.073 OA 
BRANCH   4   7
HETATM    7  C   UNL     1      -9.238  10.389  66.188  1.00  0.00    -0.168 C  
BRANCH   7   8
HETATM    8  C   UNL     1     -10.020  11.481  66.873  1.00  0.00    -0.231 A  
HETATM    9  C   UNL     1      -9.847  12.832  66.514  1.00  0.00    -0.258 A  
HETATM   10  C   UNL     1     -10.631  13.840  67.113  1.00  0.00    -0.277 A  
HETATM   11  C   UNL     1     -11.604  13.453  68.032  1.00  0.00    -0.334 A  
HETATM   12  C   UNL     1     -11.811  12.121  68.407  1.00  0.00    -0.360 A  
HETATM   13  N   UNL     1     -12.250  14.594  68.438  1.00  0.00    -0.610 NA 
HETATM   14  C   UNL     1     -11.002  11.146  67.815  1.00  0.00    -0.315 A  
HETATM   15  H   UNL     1     -13.018  14.621  69.108  1.00  0.00     0.000 HD 
HETATM   16  C   UNL     1     -11.719  15.690  67.817  1.00  0.00    -0.032 A  
HETATM   17  C   UNL     1     -10.683  15.269  67.003  1.00  0.00    -0.313 A  
BRANCH  17  18
HETATM   18  C   UNL     1      -9.798  16.157  66.168  1.00  0.00    -0.358 C  
BRANCH  18  19
HETATM   19  C   UNL     1      -9.328  17.406  66.947  1.00  0.00    -0.263 C  
BRANCH  19  20
HETATM   20  N   UNL     1      -9.976  18.681  66.571  1.00  0.00    -0.359 NA 
HETATM   21  C   UNL     1      -8.945  19.648  66.172  1.00  0.00    -0.334 C  
HETATM   22  C   UNL     1     -10.773  19.245  67.662  1.00  0.00    -0.425 C  
ENDBRANCH  19  20
ENDBRANCH  18  19
ENDBRANCH  17  18
ENDBRANCH   7   8
ENDBRANCH   4   7
ENDBRANCH   2   4
TORSDOF 6
ENDMDL
MODEL      169
REMARK 921   NORMALIZED FREE ENERGY PREDICTED BY IDOCK:   -4.00 KCAL/MOL
REMARK 922        TOTAL FREE ENERGY PREDICTED BY IDOCK:   -5.44 KCAL/MOL
REMARK 923 INTER-LIGAND FREE ENERGY PREDICTED BY IDOCK:   -4.87 KCAL/MOL
REMARK 924 INTRA-LIGAND FREE ENERGY PREDICTED BY IDOCK:   -0.57 KCAL/MOL
REMARK 927      BINDING AFFINITY PREDICTED BY RF-SCORE:    0.00 PKD
ROOT
HETATM    1  C   UNL     1      -9.925   3.666  64.472  1.00  0.00    -0.190 C  
HETATM    2  N   UNL     1      -9.296   4.893  64.976  1.00  0.00    -0.295 N  
HETATM    3  H   UNL     1      -8.856   5.566  64.348  1.00  0.00     0.000 HD 
ENDROOT
BRANCH   2   4
HETATM    4  S   UNL     1      -9.335   5.141  66.653  1.00  0.00    -0.147 S  
HETATM    5  O   UNL     1      -9.431   3.816  67.225  1.00  0.00    -0.186 OA 
HETATM    6  O   UNL     1      -8.212   6.008  66.942  1.00  0.00    -0.105 OA 
BRANCH   4   7
HETATM    7  C   UNL     1     -10.899   6.014  66.858  1.00  0.00    -0.318 C  
BRANCH   7   8
HETATM    8  C   UNL     1     -10.883   6.879  68.092  1.00  0.00    -0.258 A  
HETATM    9  C   UNL     1     -11.182   6.341  69.360  1.00  0.00    -0.489 A  
HETATM   10  C   UNL     1     -11.099   7.143  70.517  1.00  0.00    -0.299 A  
HETATM   11  C   UNL     1     -10.674   8.462  70.371  1.00  0.00    -0.231 A  
HETATM   12  C   UNL     1     -10.361   9.028  69.131  1.00  0.00    -0.229 A  
HETATM   13  N   UNL     1     -10.639   9.014  71.628  1.00  0.00    -0.343 NA 
HETATM   14  C   UNL     1     -10.476   8.216  67.998  1.00  0.00    -0.242 A  
HETATM   15  H   UNL     1     -10.359   9.973  71.834  1.00  0.00     0.000 HD 
HETATM   16  C   UNL     1     -11.032   8.098  72.563  1.00  0.00    -0.369 A  
HETATM   17  C   UNL     1     -11.360   6.923  71.910  1.00  0.00    -0.297 A  
BRANCH  17  18
HETATM   18  C   UNL     1     -11.882   5.668  72.559  1.00  0.00    -0.194 C  
BRANCH  18  19
HETATM   19  C   UNL     1     -10.812   4.977  73.433  1.00  0.00    -0.299 C  
BRANCH  19  20
HETATM   20  N   UNL     1      -9.501   4.751  72.786  1.00  0.00    -0.132 NA 
HETATM   21  C   UNL     1      -9.612   3.629  71.845  1.00  0.00    -0.146 C  
HETATM   22  C   UNL     1      -8.443   4.467  73.756  1.00  0.00    -0.100 C  
ENDBRANCH  19  20
ENDBRANCH  18  19
ENDBRANCH  17  18
ENDBRANCH   7   8
ENDBRANCH   4   7
ENDBRANCH   2   4
TORSDOF 6
ENDMDL
MODEL      170
REMARK 921   NORMALIZED FREE ENERGY PREDICTED BY IDOCK:   -4.00 KCAL/MOL
REMARK 922        TOTAL FREE ENERGY PREDICTED BY IDOCK:   -5.44 KCAL/MOL
REMARK 923 INTER-LIGAND FREE ENERGY PREDICTED BY IDOCK:   -4.94 KCAL/MOL
REMARK 924 INTRA-LIGAND FREE ENERGY PREDICTED BY IDOCK:   -0.49 KCAL/MOL
REMARK 927      BINDING AFFINITY PREDICTED BY RF-SCORE:    0.00 PKD
ROOT
HETATM    1  C   UNL     1      -5.965  13.237  69.069  1.00  0.00    -0.083 C  
HETATM    2  N   UNL     1      -7.035  12.390  69.611  1.00  0.00    -0.337 N  
HETATM    3  H   UNL     1      -7.492  12.606  70.497  1.00  0.00     0.000 HD 
ENDROOT
BRANCH   2   4
HETATM    4  S   UNL     1      -7.478  11.035  68.693  1.00  0.00    -0.120 S  
HETATM    5  O   UNL     1      -6.946  11.288  67.372  1.00  0.00    -0.087 OA 
HETATM    6  O   UNL     1      -7.056   9.888  69.468  1.00  0.00    -0.064 OA 
BRANCH   4   7
HETATM    7  C   UNL     1      -9.275  11.179  68.670  1.00  0.00    -0.171 C  
BRANCH   7   8
HETATM    8  C   UNL     1      -9.735  12.093  67.563  1.00  0.00    -0.185 A  
HETATM    9  C   UNL     1      -9.959  13.464  67.800  1.00  0.00    -0.233 A  
HETATM   10  C   UNL     1     -10.324  14.324  66.743  1.00  0.00    -0.274 A  
HETATM   11  C   UNL     1     -10.412  13.785  65.461  1.00  0.00    -0.318 A  
HETATM   12  C   UNL     1     -10.189  12.433  65.186  1.00  0.00    -0.305 A  
HETATM   13  N   UNL     1     -10.740  14.816  64.614  1.00  0.00    -0.606 NA 
HETATM   14  C   UNL     1      -9.852  11.598  66.258  1.00  0.00    -0.245 A  
HETATM   15  H   UNL     1     -10.868  14.723  63.607  1.00  0.00     0.000 HD 
HETATM   16  C   UNL     1     -10.869  15.984  65.312  1.00  0.00    -0.362 A  
HETATM   17  C   UNL     1     -10.649  15.717  66.652  1.00  0.00    -0.307 A  
BRANCH  17  18
HETATM   18  C   UNL     1     -10.735  16.716  67.776  1.00  0.00    -0.327 C  
BRANCH  18  19
HETATM   19  C   UNL     1      -9.466  17.591  67.875  1.00  0.00    -0.277 C  
BRANCH  19  20
HETATM   20  N   UNL     1      -8.201  16.938  67.472  1.00  0.00    -0.176 NA 
HETATM   21  C   UNL     1      -7.362  16.734  68.660  1.00  0.00    -0.218 C  
HETATM   22  C   UNL     1      -7.459  17.723  66.484  1.00  0.00    -0.249 C  
ENDBRANCH  19  20
ENDBRANCH  18  19
ENDBRANCH  17  18
ENDBRANCH   7   8
ENDBRANCH   4   7
ENDBRANCH   2   4
TORSDOF 6
ENDMDL
MODEL      171
REMARK 921   NORMALIZED FREE ENERGY PREDICTED BY IDOCK:   -3.97 KCAL/MOL
REMARK 922        TOTAL FREE ENERGY PREDICTED BY IDOCK:   -5.39 KCAL/MOL
REMARK 923 INTER-LIGAND FREE ENERGY PREDICTED BY IDOCK:   -4.90 KCAL/MOL
REMARK 924 INTRA-LIGAND FREE ENERGY PREDICTED BY IDOCK:   -0.49 KCAL/MOL
REMARK 927      BINDING AFFINITY PREDICTED BY RF-SCORE:    0.00 PKD
ROOT
HETATM    1  C   UNL     1      -9.601  20.422  67.072  1.00  0.00    -0.431 C  
HETATM    2  N   UNL     1      -8.436  20.029  66.269  1.00  0.00    -0.485 N  
HETATM    3  H   UNL     1      -8.523  19.791  65.282  1.00  0.00     0.000 HD 
ENDROOT
BRANCH   2   4
HETATM    4  S   UNL     1      -6.938  19.990  67.062  1.00  0.00    -0.229 S  
HETATM    5  O   UNL     1      -6.218  18.895  66.448  1.00  0.00    -0.174 OA 
HETATM    6  O   UNL     1      -6.435  21.346  67.007  1.00  0.00    -0.468 OA 
BRANCH   4   7
HETATM    7  C   UNL     1      -7.423  19.543  68.740  1.00  0.00    -0.352 C  
BRANCH   7   8
HETATM    8  C   UNL     1      -7.439  18.047  68.923  1.00  0.00    -0.235 A  
HETATM    9  C   UNL     1      -8.558  17.281  68.539  1.00  0.00    -0.270 A  
HETATM   10  C   UNL     1      -8.537  15.875  68.652  1.00  0.00    -0.198 A  
HETATM   11  C   UNL     1      -7.368  15.272  69.111  1.00  0.00    -0.172 A  
HETATM   12  C   UNL     1      -6.235  15.998  69.493  1.00  0.00    -0.172 A  
HETATM   13  N   UNL     1      -7.582  13.915  69.094  1.00  0.00    -0.321 NA 
HETATM   14  C   UNL     1      -6.293  17.392  69.394  1.00  0.00    -0.246 A  
HETATM   15  H   UNL     1      -6.896  13.214  69.374  1.00  0.00     0.000 HD 
HETATM   16  C   UNL     1      -8.844  13.637  68.649  1.00  0.00    -0.023 A  
HETATM   17  C   UNL     1      -9.488  14.834  68.391  1.00  0.00    -0.213 A  
BRANCH  17  18
HETATM   18  C   UNL     1     -10.911  14.988  67.923  1.00  0.00    -0.291 C  
BRANCH  18  19
HETATM   19  C   UNL     1     -11.790  13.783  68.328  1.00  0.00    -0.378 C  
BRANCH  19  20
HETATM   20  N   UNL     1     -12.648  13.983  69.516  1.00  0.00    -0.110 NA 
HETATM   21  C   UNL     1     -12.856  15.422  69.725  1.00  0.00     0.115 C  
HETATM   22  C   UNL     1     -12.071  13.397  70.726  1.00  0.00    -0.250 C  
ENDBRANCH  19  20
ENDBRANCH  18  19
ENDBRANCH  17  18
ENDBRANCH   7   8
ENDBRANCH   4   7
ENDBRANCH   2   4
TORSDOF 6
ENDMDL
MODEL      172
REMARK 921   NORMALIZED FREE ENERGY PREDICTED BY IDOCK:   -3.96 KCAL/MOL
REMARK 922        TOTAL FREE ENERGY PREDICTED BY IDOCK:   -5.38 KCAL/MOL
REMARK 923 INTER-LIGAND FREE ENERGY PREDICTED BY IDOCK:   -5.19 KCAL/MOL
REMARK 924 INTRA-LIGAND FREE ENERGY PREDICTED BY IDOCK:   -0.19 KCAL/MOL
REMARK 927      BINDING AFFINITY PREDICTED BY RF-SCORE:    0.00 PKD
ROOT
HETATM    1  C   UNL     1     -10.187  13.923  68.010  1.00  0.00    -0.246 C  
HETATM    2  N   UNL     1     -10.835  13.026  67.045  1.00  0.00    -0.258 N  
HETATM    3  H   UNL     1     -11.448  13.383  66.312  1.00  0.00     0.000 HD 
ENDROOT
BRANCH   2   4
HETATM    4  S   UNL     1     -10.513  11.369  67.203  1.00  0.00    -0.236 S  
HETATM    5  O   UNL     1     -11.814  10.739  67.251  1.00  0.00    -0.298 OA 
HETATM    6  O   UNL     1      -9.562  11.057  66.158  1.00  0.00    -0.194 OA 
BRANCH   4   7
HETATM    7  C   UNL     1      -9.738  11.301  68.829  1.00  0.00    -0.174 C  
BRANCH   7   8
HETATM    8  C   UNL     1     -10.571  10.500  69.798  1.00  0.00    -0.274 A  
HETATM    9  C   UNL     1     -10.072   9.317  70.379  1.00  0.00    -0.287 A  
HETATM   10  C   UNL     1     -10.833   8.612  71.335  1.00  0.00    -0.339 A  
HETATM   11  C   UNL     1     -12.064   9.144  71.715  1.00  0.00    -0.376 A  
HETATM   12  C   UNL     1     -12.587  10.319  71.167  1.00  0.00    -0.501 A  
HETATM   13  N   UNL     1     -12.585   8.307  72.671  1.00  0.00    -0.607 NA 
HETATM   14  C   UNL     1     -11.822  10.984  70.203  1.00  0.00    -0.441 A  
HETATM   15  H   UNL     1     -13.480   8.446  73.140  1.00  0.00     0.000 HD 
HETATM   16  C   UNL     1     -11.734   7.264  72.907  1.00  0.00    -0.015 A  
HETATM   17  C   UNL     1     -10.640   7.396  72.070  1.00  0.00    -0.241 A  
BRANCH  17  18
HETATM   18  C   UNL     1      -9.482   6.438  71.973  1.00  0.00    -0.154 C  
BRANCH  18  19
HETATM   19  C   UNL     1      -9.942   4.999  71.651  1.00  0.00    -0.187 C  
BRANCH  19  20
HETATM   20  N   UNL     1      -9.262   4.346  70.511  1.00  0.00    -0.113 NA 
HETATM   21  C   UNL     1      -7.843   4.727  70.513  1.00  0.00    -0.062 C  
HETATM   22  C   UNL     1      -9.858   4.706  69.224  1.00  0.00    -0.190 C  
ENDBRANCH  19  20
ENDBRANCH  18  19
ENDBRANCH  17  18
ENDBRANCH   7   8
ENDBRANCH   4   7
ENDBRANCH   2   4
TORSDOF 6
ENDMDL
MODEL      173
REMARK 921   NORMALIZED FREE ENERGY PREDICTED BY IDOCK:   -3.94 KCAL/MOL
REMARK 922        TOTAL FREE ENERGY PREDICTED BY IDOCK:   -5.35 KCAL/MOL
REMARK 923 INTER-LIGAND FREE ENERGY PREDICTED BY IDOCK:   -4.86 KCAL/MOL
REMARK 924 INTRA-LIGAND FREE ENERGY PREDICTED BY IDOCK:   -0.49 KCAL/MOL
REMARK 927      BINDING AFFINITY PREDICTED BY RF-SCORE:    0.00 PKD
ROOT
HETATM    1  C   UNL     1     -10.205  18.891  68.351  1.00  0.00    -0.373 C  
HETATM    2  N   UNL     1      -8.938  18.156  68.253  1.00  0.00    -0.290 N  
HETATM    3  H   UNL     1      -8.107  18.576  67.837  1.00  0.00     0.000 HD 
ENDROOT
BRANCH   2   4
HETATM    4  S   UNL     1      -8.921  16.575  68.866  1.00  0.00    -0.220 S  
HETATM    5  O   UNL     1      -7.607  16.413  69.447  1.00  0.00    -0.229 OA 
HETATM    6  O   UNL     1     -10.120  16.458  69.668  1.00  0.00    -0.235 OA 
BRANCH   4   7
HETATM    7  C   UNL     1      -9.051  15.597  67.357  1.00  0.00    -0.194 C  
BRANCH   7   8
HETATM    8  C   UNL     1      -9.877  14.355  67.581  1.00  0.00    -0.224 A  
HETATM    9  C   UNL     1      -9.350  13.248  68.275  1.00  0.00    -0.205 A  
HETATM   10  C   UNL     1     -10.152  12.119  68.538  1.00  0.00    -0.192 A  
HETATM   11  C   UNL     1     -11.484  12.152  68.131  1.00  0.00    -0.317 A  
HETATM   12  C   UNL     1     -12.045  13.236  67.448  1.00  0.00    -0.327 A  
HETATM   13  N   UNL     1     -12.057  10.969  68.531  1.00  0.00    -0.770 NA 
HETATM   14  C   UNL     1     -11.219  14.332  67.179  1.00  0.00    -0.333 A  
HETATM   15  H   UNL     1     -13.031  10.712  68.374  1.00  0.00     0.000 HD 
HETATM   16  C   UNL     1     -11.137  10.186  69.169  1.00  0.00    -0.212 A  
HETATM   17  C   UNL     1      -9.924  10.851  69.169  1.00  0.00    -0.181 A  
BRANCH  17  18
HETATM   18  C   UNL     1      -8.629  10.327  69.733  1.00  0.00    -0.078 C  
BRANCH  18  19
HETATM   19  C   UNL     1      -8.773   8.891  70.284  1.00  0.00    -0.169 C  
BRANCH  19  20
HETATM   20  N   UNL     1      -8.110   7.830  69.495  1.00  0.00    -0.123 NA 
HETATM   21  C   UNL     1      -6.875   8.365  68.907  1.00  0.00    -0.061 C  
HETATM   22  C   UNL     1      -8.967   7.308  68.430  1.00  0.00    -0.126 C  
ENDBRANCH  19  20
ENDBRANCH  18  19
ENDBRANCH  17  18
ENDBRANCH   7   8
ENDBRANCH   4   7
ENDBRANCH   2   4
TORSDOF 6
ENDMDL
MODEL      174
REMARK 921   NORMALIZED FREE ENERGY PREDICTED BY IDOCK:   -3.93 KCAL/MOL
REMARK 922        TOTAL FREE ENERGY PREDICTED BY IDOCK:   -5.34 KCAL/MOL
REMARK 923 INTER-LIGAND FREE ENERGY PREDICTED BY IDOCK:   -4.99 KCAL/MOL
REMARK 924 INTRA-LIGAND FREE ENERGY PREDICTED BY IDOCK:   -0.35 KCAL/MOL
REMARK 927      BINDING AFFINITY PREDICTED BY RF-SCORE:    0.00 PKD
ROOT
HETATM    1  C   UNL     1      -8.746   7.415  65.996  1.00  0.00    -0.153 C  
HETATM    2  N   UNL     1      -8.892   8.763  66.559  1.00  0.00    -0.126 N  
HETATM    3  H   UNL     1      -9.804   9.213  66.642  1.00  0.00     0.000 HD 
ENDROOT
BRANCH   2   4
HETATM    4  S   UNL     1      -7.472   9.539  67.067  1.00  0.00    -0.091 S  
HETATM    5  O   UNL     1      -6.947   8.702  68.124  1.00  0.00    -0.071 OA 
HETATM    6  O   UNL     1      -6.716   9.792  65.860  1.00  0.00    -0.083 OA 
BRANCH   4   7
HETATM    7  C   UNL     1      -8.121  11.071  67.762  1.00  0.00    -0.116 C  
BRANCH   7   8
HETATM    8  C   UNL     1      -9.453  10.846  68.432  1.00  0.00    -0.178 A  
HETATM    9  C   UNL     1      -9.547  10.109  69.629  1.00  0.00    -0.237 A  
HETATM   10  C   UNL     1     -10.788   9.961  70.284  1.00  0.00    -0.367 A  
HETATM   11  C   UNL     1     -11.898  10.598  69.736  1.00  0.00    -0.304 A  
HETATM   12  C   UNL     1     -11.842  11.345  68.555  1.00  0.00    -0.364 A  
HETATM   13  N   UNL     1     -12.961  10.339  70.566  1.00  0.00    -0.549 NA 
HETATM   14  C   UNL     1     -10.603  11.454  67.913  1.00  0.00    -0.224 A  
HETATM   15  H   UNL     1     -13.910  10.682  70.420  1.00  0.00     0.000 HD 
HETATM   16  C   UNL     1     -12.568   9.556  71.614  1.00  0.00    -0.388 A  
HETATM   17  C   UNL     1     -11.223   9.268  71.462  1.00  0.00    -0.457 A  
BRANCH  17  18
HETATM   18  C   UNL     1     -10.397   8.399  72.374  1.00  0.00    -0.399 C  
BRANCH  18  19
HETATM   19  C   UNL     1     -11.234   7.271  73.018  1.00  0.00    -0.264 C  
BRANCH  19  20
HETATM   20  N   UNL     1     -10.820   5.891  72.684  1.00  0.00    -0.235 NA 
HETATM   21  C   UNL     1      -9.499   5.629  73.268  1.00  0.00    -0.142 C  
HETATM   22  C   UNL     1     -10.767   5.659  71.240  1.00  0.00    -0.244 C  
ENDBRANCH  19  20
ENDBRANCH  18  19
ENDBRANCH  17  18
ENDBRANCH   7   8
ENDBRANCH   4   7
ENDBRANCH   2   4
TORSDOF 6
ENDMDL
MODEL      175
REMARK 921   NORMALIZED FREE ENERGY PREDICTED BY IDOCK:   -3.92 KCAL/MOL
REMARK 922        TOTAL FREE ENERGY PREDICTED BY IDOCK:   -5.33 KCAL/MOL
REMARK 923 INTER-LIGAND FREE ENERGY PREDICTED BY IDOCK:   -5.43 KCAL/MOL
REMARK 924 INTRA-LIGAND FREE ENERGY PREDICTED BY IDOCK:    0.10 KCAL/MOL
REMARK 927      BINDING AFFINITY PREDICTED BY RF-SCORE:    0.00 PKD
ROOT
HETATM    1  C   UNL     1      -8.142   8.321  66.909  1.00  0.00    -0.103 C  
HETATM    2  N   UNL     1      -8.862   7.300  67.679  1.00  0.00    -0.124 N  
HETATM    3  H   UNL     1      -8.457   6.381  67.859  1.00  0.00     0.000 HD 
ENDROOT
BRANCH   2   4
HETATM    4  S   UNL     1     -10.400   7.718  68.256  1.00  0.00    -0.177 S  
HETATM    5  O   UNL     1     -10.826   8.821  67.422  1.00  0.00    -0.213 OA 
HETATM    6  O   UNL     1     -11.146   6.478  68.304  1.00  0.00    -0.290 OA 
BRANCH   4   7
HETATM    7  C   UNL     1     -10.020   8.312  69.915  1.00  0.00    -0.190 C  
BRANCH   7   8
HETATM    8  C   UNL     1     -10.728   9.611  70.205  1.00  0.00    -0.321 A  
HETATM    9  C   UNL     1     -10.511  10.751  69.405  1.00  0.00    -0.229 A  
HETATM   10  C   UNL     1     -11.229  11.941  69.643  1.00  0.00    -0.184 A  
HETATM   11  C   UNL     1     -12.182  11.939  70.659  1.00  0.00    -0.331 A  
HETATM   12  C   UNL     1     -12.432  10.826  71.467  1.00  0.00    -0.447 A  
HETATM   13  N   UNL     1     -12.764  13.184  70.666  1.00  0.00    -0.188 NA 
HETATM   14  C   UNL     1     -11.688   9.667  71.225  1.00  0.00    -0.458 A  
HETATM   15  H   UNL     1     -13.504  13.476  71.304  1.00  0.00     0.000 HD 
HETATM   16  C   UNL     1     -12.210  13.975  69.700  1.00  0.00    -0.332 A  
HETATM   17  C   UNL     1     -11.223  13.250  69.056  1.00  0.00    -0.320 A  
BRANCH  17  18
HETATM   18  C   UNL     1     -10.333  13.756  67.951  1.00  0.00    -0.244 C  
BRANCH  18  19
HETATM   19  C   UNL     1     -11.144  14.317  66.762  1.00  0.00    -0.314 C  
BRANCH  19  20
HETATM   20  N   UNL     1     -10.473  15.366  65.963  1.00  0.00    -0.305 NA 
HETATM   21  C   UNL     1     -10.286  16.561  66.795  1.00  0.00    -0.295 C  
HETATM   22  C   UNL     1     -11.232  15.725  64.764  1.00  0.00    -0.366 C  
ENDBRANCH  19  20
ENDBRANCH  18  19
ENDBRANCH  17  18
ENDBRANCH   7   8
ENDBRANCH   4   7
ENDBRANCH   2   4
TORSDOF 6
ENDMDL
MODEL      176
REMARK 921   NORMALIZED FREE ENERGY PREDICTED BY IDOCK:   -3.92 KCAL/MOL
REMARK 922        TOTAL FREE ENERGY PREDICTED BY IDOCK:   -5.32 KCAL/MOL
REMARK 923 INTER-LIGAND FREE ENERGY PREDICTED BY IDOCK:   -5.29 KCAL/MOL
REMARK 924 INTRA-LIGAND FREE ENERGY PREDICTED BY IDOCK:   -0.03 KCAL/MOL
REMARK 927      BINDING AFFINITY PREDICTED BY RF-SCORE:    0.00 PKD
ROOT
HETATM    1  C   UNL     1     -11.104  16.201  69.371  1.00  0.00    -0.335 C  
HETATM    2  N   UNL     1      -9.762  16.481  68.844  1.00  0.00    -0.248 N  
HETATM    3  H   UNL     1      -8.954  15.920  69.115  1.00  0.00     0.000 HD 
ENDROOT
BRANCH   2   4
HETATM    4  S   UNL     1      -9.619  17.779  67.764  1.00  0.00    -0.280 S  
HETATM    5  O   UNL     1     -10.979  18.179  67.477  1.00  0.00    -0.324 OA 
HETATM    6  O   UNL     1      -8.678  18.692  68.378  1.00  0.00    -0.316 OA 
BRANCH   4   7
HETATM    7  C   UNL     1      -8.897  16.976  66.320  1.00  0.00    -0.254 C  
BRANCH   7   8
HETATM    8  C   UNL     1      -9.733  15.804  65.873  1.00  0.00    -0.389 A  
HETATM    9  C   UNL     1      -9.461  14.500  66.334  1.00  0.00    -0.316 A  
HETATM   10  C   UNL     1     -10.290  13.421  65.963  1.00  0.00    -0.297 A  
HETATM   11  C   UNL     1     -11.402  13.692  65.168  1.00  0.00    -0.309 A  
HETATM   12  C   UNL     1     -11.709  14.973  64.699  1.00  0.00    -0.383 A  
HETATM   13  N   UNL     1     -12.061  12.502  64.980  1.00  0.00    -0.435 NA 
HETATM   14  C   UNL     1     -10.855  16.020  65.062  1.00  0.00    -0.421 A  
HETATM   15  H   UNL     1     -12.918  12.390  64.440  1.00  0.00     0.000 HD 
HETATM   16  C   UNL     1     -11.405  11.487  65.619  1.00  0.00    -0.085 A  
HETATM   17  C   UNL     1     -10.275  12.010  66.221  1.00  0.00    -0.251 A  
BRANCH  17  18
HETATM   18  C   UNL     1      -9.245  11.230  66.996  1.00  0.00    -0.173 C  
BRANCH  18  19
HETATM   19  C   UNL     1      -7.804  11.678  66.663  1.00  0.00    -0.083 C  
BRANCH  19  20
HETATM   20  N   UNL     1      -6.853  10.593  66.334  1.00  0.00    -0.121 NA 
HETATM   21  C   UNL     1      -5.491  11.141  66.296  1.00  0.00    -0.142 C  
HETATM   22  C   UNL     1      -7.155   9.957  65.052  1.00  0.00    -0.131 C  
ENDBRANCH  19  20
ENDBRANCH  18  19
ENDBRANCH  17  18
ENDBRANCH   7   8
ENDBRANCH   4   7
ENDBRANCH   2   4
TORSDOF 6
ENDMDL
MODEL      177
REMARK 921   NORMALIZED FREE ENERGY PREDICTED BY IDOCK:   -3.90 KCAL/MOL
REMARK 922        TOTAL FREE ENERGY PREDICTED BY IDOCK:   -5.30 KCAL/MOL
REMARK 923 INTER-LIGAND FREE ENERGY PREDICTED BY IDOCK:   -4.92 KCAL/MOL
REMARK 924 INTRA-LIGAND FREE ENERGY PREDICTED BY IDOCK:   -0.38 KCAL/MOL
REMARK 927      BINDING AFFINITY PREDICTED BY RF-SCORE:    0.00 PKD
ROOT
HETATM    1  C   UNL     1      -6.498  12.577  68.727  1.00  0.00    -0.084 C  
HETATM    2  N   UNL     1      -7.353  11.602  69.417  1.00  0.00    -0.340 N  
HETATM    3  H   UNL     1      -7.899  11.858  70.239  1.00  0.00     0.000 HD 
ENDROOT
BRANCH   2   4
HETATM    4  S   UNL     1      -7.391  10.031  68.781  1.00  0.00    -0.082 S  
HETATM    5  O   UNL     1      -6.791  10.144  67.469  1.00  0.00    -0.075 OA 
HETATM    6  O   UNL     1      -6.814   9.186  69.804  1.00  0.00    -0.047 OA 
BRANCH   4   7
HETATM    7  C   UNL     1      -9.164   9.743  68.623  1.00  0.00    -0.137 C  
BRANCH   7   8
HETATM    8  C   UNL     1      -9.700  10.330  67.342  1.00  0.00    -0.189 A  
HETATM    9  C   UNL     1     -10.262  11.622  67.315  1.00  0.00    -0.226 A  
HETATM   10  C   UNL     1     -10.700  12.188  66.099  1.00  0.00    -0.307 A  
HETATM   11  C   UNL     1     -10.519  11.452  64.931  1.00  0.00    -0.305 A  
HETATM   12  C   UNL     1      -9.957  10.171  64.917  1.00  0.00    -0.358 A  
HETATM   13  N   UNL     1     -10.982  12.223  63.894  1.00  0.00    -0.367 NA 
HETATM   14  C   UNL     1      -9.555   9.624  66.140  1.00  0.00    -0.295 A  
HETATM   15  H   UNL     1     -10.974  11.945  62.913  1.00  0.00     0.000 HD 
HETATM   16  C   UNL     1     -11.456  13.417  64.361  1.00  0.00    -0.384 A  
HETATM   17  C   UNL     1     -11.329  13.426  65.739  1.00  0.00    -0.322 A  
BRANCH  17  18
HETATM   18  C   UNL     1     -11.768  14.534  66.659  1.00  0.00    -0.384 C  
BRANCH  18  19
HETATM   19  C   UNL     1     -10.672  15.608  66.841  1.00  0.00    -0.307 C  
BRANCH  19  20
HETATM   20  N   UNL     1     -10.185  15.804  68.224  1.00  0.00    -0.222 NA 
HETATM   21  C   UNL     1     -10.718  17.067  68.750  1.00  0.00    -0.313 C  
HETATM   22  C   UNL     1      -8.724  15.825  68.302  1.00  0.00    -0.172 C  
ENDBRANCH  19  20
ENDBRANCH  18  19
ENDBRANCH  17  18
ENDBRANCH   7   8
ENDBRANCH   4   7
ENDBRANCH   2   4
TORSDOF 6
ENDMDL
MODEL      178
REMARK 921   NORMALIZED FREE ENERGY PREDICTED BY IDOCK:   -3.88 KCAL/MOL
REMARK 922        TOTAL FREE ENERGY PREDICTED BY IDOCK:   -5.27 KCAL/MOL
REMARK 923 INTER-LIGAND FREE ENERGY PREDICTED BY IDOCK:   -4.84 KCAL/MOL
REMARK 924 INTRA-LIGAND FREE ENERGY PREDICTED BY IDOCK:   -0.43 KCAL/MOL
REMARK 927      BINDING AFFINITY PREDICTED BY RF-SCORE:    0.00 PKD
ROOT
HETATM    1  C   UNL     1      -6.863   8.024  67.823  1.00  0.00    -0.070 C  
HETATM    2  N   UNL     1      -7.513   7.596  69.068  1.00  0.00    -0.093 N  
HETATM    3  H   UNL     1      -7.646   8.238  69.850  1.00  0.00     0.000 HD 
ENDROOT
BRANCH   2   4
HETATM    4  S   UNL     1      -8.033   5.984  69.146  1.00  0.00    -0.104 S  
HETATM    5  O   UNL     1      -7.286   5.300  68.113  1.00  0.00    -0.070 OA 
HETATM    6  O   UNL     1      -7.914   5.606  70.538  1.00  0.00    -0.099 OA 
BRANCH   4   7
HETATM    7  C   UNL     1      -9.762   6.134  68.658  1.00  0.00    -0.128 C  
BRANCH   7   8
HETATM    8  C   UNL     1     -10.562   6.868  69.704  1.00  0.00    -0.258 A  
HETATM    9  C   UNL     1     -10.753   8.262  69.626  1.00  0.00    -0.196 A  
HETATM   10  C   UNL     1     -11.559   8.929  70.572  1.00  0.00    -0.189 A  
HETATM   11  C   UNL     1     -12.190   8.165  71.550  1.00  0.00    -0.301 A  
HETATM   12  C   UNL     1     -12.032   6.779  71.654  1.00  0.00    -0.391 A  
HETATM   13  N   UNL     1     -12.937   9.028  72.314  1.00  0.00    -0.413 NA 
HETATM   14  C   UNL     1     -11.207   6.147  70.718  1.00  0.00    -0.373 A  
HETATM   15  H   UNL     1     -13.515   8.751  73.108  1.00  0.00     0.000 HD 
HETATM   16  C   UNL     1     -12.798  10.309  71.861  1.00  0.00    -0.426 A  
HETATM   17  C   UNL     1     -11.920  10.300  70.792  1.00  0.00    -0.456 A  
BRANCH  17  18
HETATM   18  C   UNL     1     -11.453  11.507  70.022  1.00  0.00    -0.304 C  
BRANCH  18  19
HETATM   19  C   UNL     1     -11.962  11.499  68.563  1.00  0.00    -0.224 C  
BRANCH  19  20
HETATM   20  N   UNL     1     -10.971  11.105  67.538  1.00  0.00    -0.256 NA 
HETATM   21  C   UNL     1      -9.618  11.342  68.057  1.00  0.00    -0.180 C  
HETATM   22  C   UNL     1     -11.144  11.839  66.284  1.00  0.00    -0.311 C  
ENDBRANCH  19  20
ENDBRANCH  18  19
ENDBRANCH  17  18
ENDBRANCH   7   8
ENDBRANCH   4   7
ENDBRANCH   2   4
TORSDOF 6
ENDMDL
MODEL      179
REMARK 921   NORMALIZED FREE ENERGY PREDICTED BY IDOCK:   -3.88 KCAL/MOL
REMARK 922        TOTAL FREE ENERGY PREDICTED BY IDOCK:   -5.27 KCAL/MOL
REMARK 923 INTER-LIGAND FREE ENERGY PREDICTED BY IDOCK:   -4.78 KCAL/MOL
REMARK 924 INTRA-LIGAND FREE ENERGY PREDICTED BY IDOCK:   -0.49 KCAL/MOL
REMARK 927      BINDING AFFINITY PREDICTED BY RF-SCORE:    0.00 PKD
ROOT
HETATM    1  C   UNL     1      -8.266   3.265  68.187  1.00  0.00    -0.077 C  
HETATM    2  N   UNL     1      -8.256   3.856  66.842  1.00  0.00    -0.099 N  
HETATM    3  H   UNL     1      -8.168   3.279  66.006  1.00  0.00     0.000 HD 
ENDROOT
BRANCH   2   4
HETATM    4  S   UNL     1      -8.399   5.542  66.746  1.00  0.00    -0.108 S  
HETATM    5  O   UNL     1      -7.700   6.043  67.909  1.00  0.00    -0.095 OA 
HETATM    6  O   UNL     1      -7.978   5.890  65.406  1.00  0.00    -0.106 OA 
BRANCH   4   7
HETATM    7  C   UNL     1     -10.175   5.771  66.950  1.00  0.00    -0.218 C  
BRANCH   7   8
HETATM    8  C   UNL     1     -10.487   6.509  68.228  1.00  0.00    -0.263 A  
HETATM    9  C   UNL     1     -10.512   7.917  68.266  1.00  0.00    -0.212 A  
HETATM   10  C   UNL     1     -10.870   8.596  69.448  1.00  0.00    -0.108 A  
HETATM   11  C   UNL     1     -11.239   7.835  70.555  1.00  0.00    -0.257 A  
HETATM   12  C   UNL     1     -11.236   6.436  70.553  1.00  0.00    -0.414 A  
HETATM   13  N   UNL     1     -11.577   8.715  71.554  1.00  0.00    -0.282 NA 
HETATM   14  C   UNL     1     -10.851   5.789  69.374  1.00  0.00    -0.393 A  
HETATM   15  H   UNL     1     -11.894   8.444  72.485  1.00  0.00     0.000 HD 
HETATM   16  C   UNL     1     -11.430  10.004  71.124  1.00  0.00    -0.354 A  
HETATM   17  C   UNL     1     -10.960   9.978  69.823  1.00  0.00    -0.317 A  
BRANCH  17  18
HETATM   18  C   UNL     1     -10.620  11.181  68.983  1.00  0.00    -0.251 C  
BRANCH  18  19
HETATM   19  C   UNL     1     -11.649  11.412  67.855  1.00  0.00    -0.266 C  
BRANCH  19  20
HETATM   20  N   UNL     1     -11.106  11.950  66.588  1.00  0.00    -0.295 NA 
HETATM   21  C   UNL     1     -10.006  12.875  66.889  1.00  0.00    -0.238 C  
HETATM   22  C   UNL     1     -12.122  12.646  65.797  1.00  0.00    -0.423 C  
ENDBRANCH  19  20
ENDBRANCH  18  19
ENDBRANCH  17  18
ENDBRANCH   7   8
ENDBRANCH   4   7
ENDBRANCH   2   4
TORSDOF 6
ENDMDL
MODEL      180
REMARK 921   NORMALIZED FREE ENERGY PREDICTED BY IDOCK:   -3.79 KCAL/MOL
REMARK 922        TOTAL FREE ENERGY PREDICTED BY IDOCK:   -5.15 KCAL/MOL
REMARK 923 INTER-LIGAND FREE ENERGY PREDICTED BY IDOCK:   -4.94 KCAL/MOL
REMARK 924 INTRA-LIGAND FREE ENERGY PREDICTED BY IDOCK:   -0.21 KCAL/MOL
REMARK 927      BINDING AFFINITY PREDICTED BY RF-SCORE:    0.00 PKD
ROOT
HETATM    1  C   UNL     1     -12.282   8.568  71.582  1.00  0.00    -0.322 C  
HETATM    2  N   UNL     1     -11.838   8.734  70.193  1.00  0.00    -0.439 N  
HETATM    3  H   UNL     1     -12.078   8.056  69.470  1.00  0.00     0.000 HD 
ENDROOT
BRANCH   2   4
HETATM    4  S   UNL     1     -10.907  10.108  69.845  1.00  0.00    -0.317 S  
HETATM    5  O   UNL     1     -11.750  11.230  70.196  1.00  0.00    -0.309 OA 
HETATM    6  O   UNL     1      -9.634   9.888  70.499  1.00  0.00    -0.180 OA 
BRANCH   4   7
HETATM    7  C   UNL     1     -10.745   9.996  68.053  1.00  0.00    -0.256 C  
BRANCH   7   8
HETATM    8  C   UNL     1     -10.669  11.366  67.426  1.00  0.00    -0.274 A  
HETATM    9  C   UNL     1     -10.022  12.430  68.085  1.00  0.00    -0.215 A  
HETATM   10  C   UNL     1      -9.897  13.689  67.461  1.00  0.00    -0.227 A  
HETATM   11  C   UNL     1     -10.392  13.831  66.166  1.00  0.00    -0.301 A  
HETATM   12  C   UNL     1     -11.031  12.795  65.478  1.00  0.00    -0.310 A  
HETATM   13  N   UNL     1     -10.118  15.117  65.770  1.00  0.00    -0.320 NA 
HETATM   14  C   UNL     1     -11.163  11.565  66.131  1.00  0.00    -0.265 A  
HETATM   15  H   UNL     1     -10.360  15.509  64.860  1.00  0.00     0.000 HD 
HETATM   16  C   UNL     1      -9.476  15.797  66.767  1.00  0.00    -0.240 A  
HETATM   17  C   UNL     1      -9.345  14.953  67.855  1.00  0.00    -0.191 A  
BRANCH  17  18
HETATM   18  C   UNL     1      -8.733  15.313  69.183  1.00  0.00    -0.238 C  
BRANCH  18  19
HETATM   19  C   UNL     1      -7.444  16.149  69.022  1.00  0.00    -0.210 C  
BRANCH  19  20
HETATM   20  N   UNL     1      -6.174  15.393  69.082  1.00  0.00    -0.106 NA 
HETATM   21  C   UNL     1      -5.640  15.236  67.723  1.00  0.00    -0.096 C  
HETATM   22  C   UNL     1      -6.339  14.074  69.694  1.00  0.00    -0.130 C  
ENDBRANCH  19  20
ENDBRANCH  18  19
ENDBRANCH  17  18
ENDBRANCH   7   8
ENDBRANCH   4   7
ENDBRANCH   2   4
TORSDOF 6
ENDMDL
MODEL      181
REMARK 921   NORMALIZED FREE ENERGY PREDICTED BY IDOCK:   -3.79 KCAL/MOL
REMARK 922        TOTAL FREE ENERGY PREDICTED BY IDOCK:   -5.15 KCAL/MOL
REMARK 923 INTER-LIGAND FREE ENERGY PREDICTED BY IDOCK:   -4.82 KCAL/MOL
REMARK 924 INTRA-LIGAND FREE ENERGY PREDICTED BY IDOCK:   -0.33 KCAL/MOL
REMARK 927      BINDING AFFINITY PREDICTED BY RF-SCORE:    0.00 PKD
ROOT
HETATM    1  C   UNL     1     -10.161   8.382  66.709  1.00  0.00    -0.303 C  
HETATM    2  N   UNL     1      -9.318   8.364  67.911  1.00  0.00    -0.135 N  
HETATM    3  H   UNL     1      -9.208   7.521  68.475  1.00  0.00     0.000 HD 
ENDROOT
BRANCH   2   4
HETATM    4  S   UNL     1      -8.536   9.812  68.319  1.00  0.00    -0.115 S  
HETATM    5  O   UNL     1      -8.963  10.100  69.671  1.00  0.00    -0.202 OA 
HETATM    6  O   UNL     1      -7.140   9.602  67.999  1.00  0.00    -0.078 OA 
BRANCH   4   7
HETATM    7  C   UNL     1      -9.298  10.975  67.172  1.00  0.00    -0.164 C  
BRANCH   7   8
HETATM    8  C   UNL     1      -9.979  12.101  67.909  1.00  0.00    -0.200 A  
HETATM    9  C   UNL     1      -9.356  13.356  68.054  1.00  0.00    -0.217 A  
HETATM   10  C   UNL     1     -10.029  14.423  68.686  1.00  0.00    -0.241 A  
HETATM   11  C   UNL     1     -11.335  14.208  69.119  1.00  0.00    -0.279 A  
HETATM   12  C   UNL     1     -11.990  12.980  68.985  1.00  0.00    -0.312 A  
HETATM   13  N   UNL     1     -11.780  15.391  69.657  1.00  0.00    -0.315 NA 
HETATM   14  C   UNL     1     -11.289  11.932  68.377  1.00  0.00    -0.331 A  
HETATM   15  H   UNL     1     -12.708  15.538  70.052  1.00  0.00     0.000 HD 
HETATM   16  C   UNL     1     -10.803  16.344  69.587  1.00  0.00    -0.346 A  
HETATM   17  C   UNL     1      -9.679  15.774  69.016  1.00  0.00    -0.242 A  
BRANCH  17  18
HETATM   18  C   UNL     1      -8.358  16.461  68.790  1.00  0.00    -0.242 C  
BRANCH  18  19
HETATM   19  C   UNL     1      -8.533  17.880  68.205  1.00  0.00    -0.278 C  
BRANCH  19  20
HETATM   20  N   UNL     1      -7.688  18.934  68.809  1.00  0.00    -0.338 NA 
HETATM   21  C   UNL     1      -7.252  19.864  67.760  1.00  0.00    -0.278 C  
HETATM   22  C   UNL     1      -6.514  18.386  69.489  1.00  0.00    -0.202 C  
ENDBRANCH  19  20
ENDBRANCH  18  19
ENDBRANCH  17  18
ENDBRANCH   7   8
ENDBRANCH   4   7
ENDBRANCH   2   4
TORSDOF 6
ENDMDL
MODEL      182
REMARK 921   NORMALIZED FREE ENERGY PREDICTED BY IDOCK:   -3.78 KCAL/MOL
REMARK 922        TOTAL FREE ENERGY PREDICTED BY IDOCK:   -5.13 KCAL/MOL
REMARK 923 INTER-LIGAND FREE ENERGY PREDICTED BY IDOCK:   -4.78 KCAL/MOL
REMARK 924 INTRA-LIGAND FREE ENERGY PREDICTED BY IDOCK:   -0.35 KCAL/MOL
REMARK 927      BINDING AFFINITY PREDICTED BY RF-SCORE:    0.00 PKD
ROOT
HETATM    1  C   UNL     1     -14.304   8.538  72.222  1.00  0.00    -0.390 C  
HETATM    2  N   UNL     1     -13.007   9.083  72.641  1.00  0.00    -0.468 N  
HETATM    3  H   UNL     1     -12.938   9.954  73.168  1.00  0.00     0.000 HD 
ENDROOT
BRANCH   2   4
HETATM    4  S   UNL     1     -11.628   8.197  72.209  1.00  0.00    -0.396 S  
HETATM    5  O   UNL     1     -10.777   9.141  71.520  1.00  0.00    -0.318 OA 
HETATM    6  O   UNL     1     -11.195   7.538  73.423  1.00  0.00    -0.296 OA 
BRANCH   4   7
HETATM    7  C   UNL     1     -12.309   7.011  71.034  1.00  0.00    -0.356 C  
BRANCH   7   8
HETATM    8  C   UNL     1     -11.215   6.321  70.259  1.00  0.00    -0.455 A  
HETATM    9  C   UNL     1     -10.696   6.887  69.077  1.00  0.00    -0.259 A  
HETATM   10  C   UNL     1      -9.627   6.268  68.396  1.00  0.00    -0.121 A  
HETATM   11  C   UNL     1      -9.078   5.114  68.949  1.00  0.00    -0.107 A  
HETATM   12  C   UNL     1      -9.559   4.529  70.124  1.00  0.00    -0.264 A  
HETATM   13  N   UNL     1      -8.041   4.731  68.134  1.00  0.00    -0.085 NA 
HETATM   14  C   UNL     1     -10.637   5.150  70.765  1.00  0.00    -0.205 A  
HETATM   15  H   UNL     1      -7.447   3.917  68.291  1.00  0.00     0.000 HD 
HETATM   16  C   UNL     1      -7.918   5.594  67.081  1.00  0.00    -0.102 A  
HETATM   17  C   UNL     1      -8.909   6.554  67.187  1.00  0.00    -0.110 A  
BRANCH  17  18
HETATM   18  C   UNL     1      -9.162   7.673  66.212  1.00  0.00    -0.204 C  
BRANCH  18  19
HETATM   19  C   UNL     1      -7.961   7.905  65.268  1.00  0.00    -0.126 C  
BRANCH  19  20
HETATM   20  N   UNL     1      -8.100   9.026  64.313  1.00  0.00    -0.143 NA 
HETATM   21  C   UNL     1      -6.851   9.799  64.291  1.00  0.00    -0.120 C  
HETATM   22  C   UNL     1      -9.213   9.913  64.653  1.00  0.00    -0.258 C  
ENDBRANCH  19  20
ENDBRANCH  18  19
ENDBRANCH  17  18
ENDBRANCH   7   8
ENDBRANCH   4   7
ENDBRANCH   2   4
TORSDOF 6
ENDMDL
MODEL      183
REMARK 921   NORMALIZED FREE ENERGY PREDICTED BY IDOCK:   -3.77 KCAL/MOL
REMARK 922        TOTAL FREE ENERGY PREDICTED BY IDOCK:   -5.13 KCAL/MOL
REMARK 923 INTER-LIGAND FREE ENERGY PREDICTED BY IDOCK:   -4.53 KCAL/MOL
REMARK 924 INTRA-LIGAND FREE ENERGY PREDICTED BY IDOCK:   -0.60 KCAL/MOL
REMARK 927      BINDING AFFINITY PREDICTED BY RF-SCORE:    0.00 PKD
ROOT
HETATM    1  C   UNL     1     -12.426  13.333  65.392  1.00  0.00    -0.489 C  
HETATM    2  N   UNL     1     -11.667  13.842  66.541  1.00  0.00    -0.364 N  
HETATM    3  H   UNL     1     -11.217  14.757  66.522  1.00  0.00     0.000 HD 
ENDROOT
BRANCH   2   4
HETATM    4  S   UNL     1     -11.574  12.837  67.904  1.00  0.00    -0.364 S  
HETATM    5  O   UNL     1     -11.884  13.697  69.025  1.00  0.00    -0.310 OA 
HETATM    6  O   UNL     1     -12.390  11.684  67.590  1.00  0.00    -0.301 OA 
BRANCH   4   7
HETATM    7  C   UNL     1      -9.823  12.409  67.923  1.00  0.00    -0.202 C  
BRANCH   7   8
HETATM    8  C   UNL     1      -9.570  11.113  67.195  1.00  0.00    -0.192 A  
HETATM    9  C   UNL     1      -9.493   9.891  67.894  1.00  0.00    -0.149 A  
HETATM   10  C   UNL     1      -9.323   8.677  67.197  1.00  0.00    -0.190 A  
HETATM   11  C   UNL     1      -9.279   8.720  65.805  1.00  0.00    -0.206 A  
HETATM   12  C   UNL     1      -9.361   9.912  65.077  1.00  0.00    -0.323 A  
HETATM   13  N   UNL     1      -9.150   7.425  65.366  1.00  0.00    -0.364 NA 
HETATM   14  C   UNL     1      -9.503  11.104  65.796  1.00  0.00    -0.248 A  
HETATM   15  H   UNL     1      -9.096   7.145  64.387  1.00  0.00     0.000 HD 
HETATM   16  C   UNL     1      -9.104   6.565  66.427  1.00  0.00    -0.155 A  
HETATM   17  C   UNL     1      -9.177   7.306  67.593  1.00  0.00    -0.130 A  
BRANCH  17  18
HETATM   18  C   UNL     1      -9.118   6.756  68.994  1.00  0.00    -0.137 C  
BRANCH  18  19
HETATM   19  C   UNL     1      -7.718   6.923  69.626  1.00  0.00    -0.110 C  
BRANCH  19  20
HETATM   20  N   UNL     1      -7.627   7.887  70.743  1.00  0.00    -0.076 NA 
HETATM   21  C   UNL     1      -6.855   7.286  71.839  1.00  0.00    -0.059 C  
HETATM   22  C   UNL     1      -8.942   8.290  71.242  1.00  0.00    -0.160 C  
ENDBRANCH  19  20
ENDBRANCH  18  19
ENDBRANCH  17  18
ENDBRANCH   7   8
ENDBRANCH   4   7
ENDBRANCH   2   4
TORSDOF 6
ENDMDL
MODEL      184
REMARK 921   NORMALIZED FREE ENERGY PREDICTED BY IDOCK:   -3.76 KCAL/MOL
REMARK 922        TOTAL FREE ENERGY PREDICTED BY IDOCK:   -5.11 KCAL/MOL
REMARK 923 INTER-LIGAND FREE ENERGY PREDICTED BY IDOCK:   -4.75 KCAL/MOL
REMARK 924 INTRA-LIGAND FREE ENERGY PREDICTED BY IDOCK:   -0.36 KCAL/MOL
REMARK 927      BINDING AFFINITY PREDICTED BY RF-SCORE:    0.00 PKD
ROOT
HETATM    1  C   UNL     1      -7.225   8.453  68.460  1.00  0.00    -0.081 C  
HETATM    2  N   UNL     1      -8.020   8.278  69.682  1.00  0.00    -0.108 N  
HETATM    3  H   UNL     1      -8.075   9.007  70.394  1.00  0.00     0.000 HD 
ENDROOT
BRANCH   2   4
HETATM    4  S   UNL     1      -8.844   6.806  69.855  1.00  0.00    -0.141 S  
HETATM    5  O   UNL     1      -8.143   5.881  68.992  1.00  0.00    -0.101 OA 
HETATM    6  O   UNL     1      -8.938   6.581  71.282  1.00  0.00    -0.141 OA 
BRANCH   4   7
HETATM    7  C   UNL     1     -10.455   7.204  69.152  1.00  0.00    -0.211 C  
BRANCH   7   8
HETATM    8  C   UNL     1     -11.032   8.449  69.778  1.00  0.00    -0.130 A  
HETATM    9  C   UNL     1     -10.874   9.709  69.167  1.00  0.00    -0.212 A  
HETATM   10  C   UNL     1     -11.474  10.857  69.725  1.00  0.00    -0.390 A  
HETATM   11  C   UNL     1     -12.257  10.698  70.866  1.00  0.00    -0.395 A  
HETATM   12  C   UNL     1     -12.444   9.463  71.496  1.00  0.00    -0.450 A  
HETATM   13  N   UNL     1     -12.755  11.936  71.188  1.00  0.00    -0.344 NA 
HETATM   14  C   UNL     1     -11.816   8.346  70.934  1.00  0.00    -0.237 A  
HETATM   15  H   UNL     1     -13.369  12.129  71.979  1.00  0.00     0.000 HD 
HETATM   16  C   UNL     1     -12.312  12.875  70.298  1.00  0.00    -0.223 A  
HETATM   17  C   UNL     1     -11.482  12.250  69.384  1.00  0.00    -0.341 A  
BRANCH  17  18
HETATM   18  C   UNL     1     -10.745  12.923  68.256  1.00  0.00    -0.261 C  
BRANCH  18  19
HETATM   19  C   UNL     1     -11.150  12.357  66.877  1.00  0.00    -0.287 C  
BRANCH  19  20
HETATM   20  N   UNL     1     -10.176  11.440  66.246  1.00  0.00    -0.225 NA 
HETATM   21  C   UNL     1      -8.820  11.806  66.677  1.00  0.00    -0.189 C  
HETATM   22  C   UNL     1     -10.245  11.471  64.785  1.00  0.00    -0.281 C  
ENDBRANCH  19  20
ENDBRANCH  18  19
ENDBRANCH  17  18
ENDBRANCH   7   8
ENDBRANCH   4   7
ENDBRANCH   2   4
TORSDOF 6
ENDMDL
MODEL      185
REMARK 921   NORMALIZED FREE ENERGY PREDICTED BY IDOCK:   -3.74 KCAL/MOL
REMARK 922        TOTAL FREE ENERGY PREDICTED BY IDOCK:   -5.08 KCAL/MOL
REMARK 923 INTER-LIGAND FREE ENERGY PREDICTED BY IDOCK:   -4.95 KCAL/MOL
REMARK 924 INTRA-LIGAND FREE ENERGY PREDICTED BY IDOCK:   -0.13 KCAL/MOL
REMARK 927      BINDING AFFINITY PREDICTED BY RF-SCORE:    0.00 PKD
ROOT
HETATM    1  C   UNL     1     -14.410   8.511  71.843  1.00  0.00    -0.448 C  
HETATM    2  N   UNL     1     -13.248   8.703  72.720  1.00  0.00    -0.658 N  
HETATM    3  H   UNL     1     -13.332   9.167  73.624  1.00  0.00     0.000 HD 
ENDROOT
BRANCH   2   4
HETATM    4  S   UNL     1     -11.760   8.117  72.159  1.00  0.00    -0.384 S  
HETATM    5  O   UNL     1     -11.213   9.191  71.358  1.00  0.00    -0.292 OA 
HETATM    6  O   UNL     1     -11.070   7.625  73.332  1.00  0.00    -0.337 OA 
BRANCH   4   7
HETATM    7  C   UNL     1     -12.280   6.759  71.093  1.00  0.00    -0.360 C  
BRANCH   7   8
HETATM    8  C   UNL     1     -11.093   5.981  70.583  1.00  0.00    -0.371 A  
HETATM    9  C   UNL     1     -10.792   5.934  69.208  1.00  0.00    -0.414 A  
HETATM   10  C   UNL     1      -9.642   5.259  68.748  1.00  0.00    -0.187 A  
HETATM   11  C   UNL     1      -8.798   4.682  69.695  1.00  0.00    -0.083 A  
HETATM   12  C   UNL     1      -9.059   4.716  71.068  1.00  0.00    -0.181 A  
HETATM   13  N   UNL     1      -7.745   4.128  69.010  1.00  0.00    -0.054 NA 
HETATM   14  C   UNL     1     -10.220   5.370  71.494  1.00  0.00    -0.280 A  
HETATM   15  H   UNL     1      -6.962   3.638  69.443  1.00  0.00     0.000 HD 
HETATM   16  C   UNL     1      -7.893   4.326  67.666  1.00  0.00    -0.088 A  
HETATM   17  C   UNL     1      -9.082   5.001  67.453  1.00  0.00    -0.120 A  
BRANCH  17  18
HETATM   18  C   UNL     1      -9.652   5.385  66.113  1.00  0.00    -0.169 C  
BRANCH  18  19
HETATM   19  C   UNL     1      -8.777   4.883  64.943  1.00  0.00    -0.150 C  
BRANCH  19  20
HETATM   20  N   UNL     1      -9.434   3.952  64.001  1.00  0.00    -0.150 NA 
HETATM   21  C   UNL     1      -9.008   4.270  62.631  1.00  0.00    -0.115 C  
HETATM   22  C   UNL     1     -10.893   4.014  64.082  1.00  0.00    -0.110 C  
ENDBRANCH  19  20
ENDBRANCH  18  19
ENDBRANCH  17  18
ENDBRANCH   7   8
ENDBRANCH   4   7
ENDBRANCH   2   4
TORSDOF 6
ENDMDL
MODEL      186
REMARK 921   NORMALIZED FREE ENERGY PREDICTED BY IDOCK:   -3.73 KCAL/MOL
REMARK 922        TOTAL FREE ENERGY PREDICTED BY IDOCK:   -5.07 KCAL/MOL
REMARK 923 INTER-LIGAND FREE ENERGY PREDICTED BY IDOCK:   -4.60 KCAL/MOL
REMARK 924 INTRA-LIGAND FREE ENERGY PREDICTED BY IDOCK:   -0.48 KCAL/MOL
REMARK 927      BINDING AFFINITY PREDICTED BY RF-SCORE:    0.00 PKD
ROOT
HETATM    1  C   UNL     1      -5.543  11.000  66.552  1.00  0.00    -0.113 C  
HETATM    2  N   UNL     1      -6.746  11.655  67.080  1.00  0.00    -0.129 N  
HETATM    3  H   UNL     1      -6.803  12.669  67.179  1.00  0.00     0.000 HD 
ENDROOT
BRANCH   2   4
HETATM    4  S   UNL     1      -8.037  10.648  67.518  1.00  0.00    -0.111 S  
HETATM    5  O   UNL     1      -7.674   9.338  67.025  1.00  0.00    -0.094 OA 
HETATM    6  O   UNL     1      -8.256  10.889  68.928  1.00  0.00    -0.140 OA 
BRANCH   4   7
HETATM    7  C   UNL     1      -9.382  11.326  66.527  1.00  0.00    -0.185 C  
BRANCH   7   8
HETATM    8  C   UNL     1     -10.100  12.430  67.263  1.00  0.00    -0.214 A  
HETATM    9  C   UNL     1      -9.661  13.766  67.174  1.00  0.00    -0.244 A  
HETATM   10  C   UNL     1     -10.379  14.800  67.811  1.00  0.00    -0.244 A  
HETATM   11  C   UNL     1     -11.549  14.464  68.489  1.00  0.00    -0.314 A  
HETATM   12  C   UNL     1     -12.020  13.151  68.591  1.00  0.00    -0.319 A  
HETATM   13  N   UNL     1     -12.077  15.632  68.982  1.00  0.00    -0.583 NA 
HETATM   14  C   UNL     1     -11.274  12.143  67.970  1.00  0.00    -0.319 A  
HETATM   15  H   UNL     1     -12.940  15.698  69.521  1.00  0.00     0.000 HD 
HETATM   16  C   UNL     1     -11.282  16.693  68.649  1.00  0.00    -0.235 A  
HETATM   17  C   UNL     1     -10.192  16.215  67.943  1.00  0.00    -0.261 A  
BRANCH  17  18
HETATM   18  C   UNL     1      -9.047  17.043  67.421  1.00  0.00    -0.225 C  
BRANCH  18  19
HETATM   19  C   UNL     1      -8.015  17.370  68.524  1.00  0.00    -0.266 C  
BRANCH  19  20
HETATM   20  N   UNL     1      -6.707  17.874  68.052  1.00  0.00    -0.192 NA 
HETATM   21  C   UNL     1      -6.237  17.033  66.943  1.00  0.00    -0.200 C  
HETATM   22  C   UNL     1      -5.698  17.884  69.112  1.00  0.00    -0.206 C  
ENDBRANCH  19  20
ENDBRANCH  18  19
ENDBRANCH  17  18
ENDBRANCH   7   8
ENDBRANCH   4   7
ENDBRANCH   2   4
TORSDOF 6
ENDMDL
MODEL      187
REMARK 921   NORMALIZED FREE ENERGY PREDICTED BY IDOCK:   -3.72 KCAL/MOL
REMARK 922        TOTAL FREE ENERGY PREDICTED BY IDOCK:   -5.05 KCAL/MOL
REMARK 923 INTER-LIGAND FREE ENERGY PREDICTED BY IDOCK:   -4.94 KCAL/MOL
REMARK 924 INTRA-LIGAND FREE ENERGY PREDICTED BY IDOCK:   -0.11 KCAL/MOL
REMARK 927      BINDING AFFINITY PREDICTED BY RF-SCORE:    0.00 PKD
ROOT
HETATM    1  C   UNL     1      -9.277   9.736  62.404  1.00  0.00    -0.269 C  
HETATM    2  N   UNL     1      -8.935   9.163  63.712  1.00  0.00    -0.426 N  
HETATM    3  H   UNL     1      -9.623   9.097  64.463  1.00  0.00     0.000 HD 
ENDROOT
BRANCH   2   4
HETATM    4  S   UNL     1      -7.344   8.617  63.917  1.00  0.00    -0.104 S  
HETATM    5  O   UNL     1      -7.202   7.519  62.986  1.00  0.00    -0.074 OA 
HETATM    6  O   UNL     1      -6.513   9.798  63.820  1.00  0.00    -0.107 OA 
BRANCH   4   7
HETATM    7  C   UNL     1      -7.387   7.989  65.606  1.00  0.00    -0.079 C  
BRANCH   7   8
HETATM    8  C   UNL     1      -8.550   8.565  66.373  1.00  0.00    -0.136 A  
HETATM    9  C   UNL     1      -8.666   9.954  66.581  1.00  0.00    -0.138 A  
HETATM   10  C   UNL     1      -9.792  10.489  67.241  1.00  0.00    -0.209 A  
HETATM   11  C   UNL     1     -10.797   9.610  67.638  1.00  0.00    -0.212 A  
HETATM   12  C   UNL     1     -10.722   8.228  67.442  1.00  0.00    -0.236 A  
HETATM   13  N   UNL     1     -11.788  10.367  68.214  1.00  0.00    -0.760 NA 
HETATM   14  C   UNL     1      -9.582   7.723  66.807  1.00  0.00    -0.274 A  
HETATM   15  H   UNL     1     -12.657   9.994  68.596  1.00  0.00     0.000 HD 
HETATM   16  C   UNL     1     -11.446  11.690  68.202  1.00  0.00    -0.313 A  
HETATM   17  C   UNL     1     -10.191  11.810  67.632  1.00  0.00    -0.216 A  
BRANCH  17  18
HETATM   18  C   UNL     1      -9.417  13.091  67.461  1.00  0.00    -0.198 C  
BRANCH  18  19
HETATM   19  C   UNL     1      -9.738  13.790  66.121  1.00  0.00    -0.264 C  
BRANCH  19  20
HETATM   20  N   UNL     1     -10.998  14.564  66.084  1.00  0.00    -0.315 NA 
HETATM   21  C   UNL     1     -11.544  14.533  64.721  1.00  0.00    -0.413 C  
HETATM   22  C   UNL     1     -10.811  15.954  66.500  1.00  0.00    -0.198 C  
ENDBRANCH  19  20
ENDBRANCH  18  19
ENDBRANCH  17  18
ENDBRANCH   7   8
ENDBRANCH   4   7
ENDBRANCH   2   4
TORSDOF 6
ENDMDL
MODEL      188
REMARK 921   NORMALIZED FREE ENERGY PREDICTED BY IDOCK:   -3.71 KCAL/MOL
REMARK 922        TOTAL FREE ENERGY PREDICTED BY IDOCK:   -5.05 KCAL/MOL
REMARK 923 INTER-LIGAND FREE ENERGY PREDICTED BY IDOCK:   -4.90 KCAL/MOL
REMARK 924 INTRA-LIGAND FREE ENERGY PREDICTED BY IDOCK:   -0.14 KCAL/MOL
REMARK 927      BINDING AFFINITY PREDICTED BY RF-SCORE:    0.00 PKD
ROOT
HETATM    1  C   UNL     1     -10.895   6.015  67.974  1.00  0.00    -0.287 C  
HETATM    2  N   UNL     1      -9.931   6.840  68.713  1.00  0.00    -0.143 N  
HETATM    3  H   UNL     1      -9.685   6.637  69.681  1.00  0.00     0.000 HD 
ENDROOT
BRANCH   2   4
HETATM    4  S   UNL     1      -9.246   8.148  67.880  1.00  0.00    -0.131 S  
HETATM    5  O   UNL     1      -7.818   7.923  67.940  1.00  0.00    -0.121 OA 
HETATM    6  O   UNL     1      -9.946   8.211  66.614  1.00  0.00    -0.247 OA 
BRANCH   4   7
HETATM    7  C   UNL     1      -9.695   9.534  68.941  1.00  0.00    -0.164 C  
BRANCH   7   8
HETATM    8  C   UNL     1      -9.429  10.852  68.259  1.00  0.00    -0.168 A  
HETATM    9  C   UNL     1     -10.238  11.978  68.514  1.00  0.00    -0.218 A  
HETATM   10  C   UNL     1      -9.940  13.223  67.923  1.00  0.00    -0.233 A  
HETATM   11  C   UNL     1      -8.804  13.313  67.121  1.00  0.00    -0.222 A  
HETATM   12  C   UNL     1      -7.973  12.221  66.852  1.00  0.00    -0.068 A  
HETATM   13  N   UNL     1      -8.710  14.617  66.701  1.00  0.00    -0.424 NA 
HETATM   14  C   UNL     1      -8.307  10.992  67.432  1.00  0.00    -0.126 A  
HETATM   15  H   UNL     1      -7.972  14.984  66.102  1.00  0.00     0.000 HD 
HETATM   16  C   UNL     1      -9.747  15.355  67.201  1.00  0.00    -0.216 A  
HETATM   17  C   UNL     1     -10.558  14.517  67.945  1.00  0.00    -0.243 A  
BRANCH  17  18
HETATM   18  C   UNL     1     -11.836  14.912  68.639  1.00  0.00    -0.332 C  
BRANCH  18  19
HETATM   19  C   UNL     1     -11.574  15.777  69.891  1.00  0.00    -0.351 C  
BRANCH  19  20
HETATM   20  N   UNL     1     -12.063  15.221  71.172  1.00  0.00    -0.315 NA 
HETATM   21  C   UNL     1     -13.444  14.753  70.999  1.00  0.00    -0.347 C  
HETATM   22  C   UNL     1     -12.015  16.199  72.259  1.00  0.00    -0.546 C  
ENDBRANCH  19  20
ENDBRANCH  18  19
ENDBRANCH  17  18
ENDBRANCH   7   8
ENDBRANCH   4   7
ENDBRANCH   2   4
TORSDOF 6
ENDMDL
MODEL      189
REMARK 921   NORMALIZED FREE ENERGY PREDICTED BY IDOCK:   -3.70 KCAL/MOL
REMARK 922        TOTAL FREE ENERGY PREDICTED BY IDOCK:   -5.04 KCAL/MOL
REMARK 923 INTER-LIGAND FREE ENERGY PREDICTED BY IDOCK:   -5.02 KCAL/MOL
REMARK 924 INTRA-LIGAND FREE ENERGY PREDICTED BY IDOCK:   -0.01 KCAL/MOL
REMARK 927      BINDING AFFINITY PREDICTED BY RF-SCORE:    0.00 PKD
ROOT
HETATM    1  C   UNL     1      -8.445   5.431  71.361  1.00  0.00    -0.126 C  
HETATM    2  N   UNL     1      -9.206   6.346  70.501  1.00  0.00    -0.158 N  
HETATM    3  H   UNL     1      -9.403   6.123  69.525  1.00  0.00     0.000 HD 
ENDROOT
BRANCH   2   4
HETATM    4  S   UNL     1      -9.743   7.792  71.205  1.00  0.00    -0.157 S  
HETATM    5  O   UNL     1     -10.185   7.420  72.531  1.00  0.00    -0.193 OA 
HETATM    6  O   UNL     1      -8.669   8.741  71.007  1.00  0.00    -0.165 OA 
BRANCH   4   7
HETATM    7  C   UNL     1     -11.166   8.195  70.174  1.00  0.00    -0.134 C  
BRANCH   7   8
HETATM    8  C   UNL     1     -10.763   8.365  68.731  1.00  0.00    -0.086 A  
HETATM    9  C   UNL     1     -10.493   9.641  68.198  1.00  0.00    -0.266 A  
HETATM   10  C   UNL     1     -10.052   9.783  66.866  1.00  0.00    -0.287 A  
HETATM   11  C   UNL     1      -9.852   8.626  66.115  1.00  0.00    -0.198 A  
HETATM   12  C   UNL     1     -10.100   7.343  66.612  1.00  0.00    -0.253 A  
HETATM   13  N   UNL     1      -9.391   9.021  64.883  1.00  0.00    -0.435 NA 
HETATM   14  C   UNL     1     -10.561   7.234  67.929  1.00  0.00    -0.266 A  
HETATM   15  H   UNL     1      -9.151   8.388  64.121  1.00  0.00     0.000 HD 
HETATM   16  C   UNL     1      -9.298  10.383  64.823  1.00  0.00    -0.251 A  
HETATM   17  C   UNL     1      -9.731  10.903  66.030  1.00  0.00    -0.268 A  
BRANCH  17  18
HETATM   18  C   UNL     1      -9.833  12.365  66.376  1.00  0.00    -0.249 C  
BRANCH  18  19
HETATM   19  C   UNL     1     -10.619  13.162  65.311  1.00  0.00    -0.313 C  
BRANCH  19  20
HETATM   20  N   UNL     1     -11.310  14.376  65.796  1.00  0.00    -0.325 NA 
HETATM   21  C   UNL     1     -12.761  14.197  65.650  1.00  0.00    -0.441 C  
HETATM   22  C   UNL     1     -10.897  15.580  65.074  1.00  0.00    -0.450 C  
ENDBRANCH  19  20
ENDBRANCH  18  19
ENDBRANCH  17  18
ENDBRANCH   7   8
ENDBRANCH   4   7
ENDBRANCH   2   4
TORSDOF 6
ENDMDL
MODEL      190
REMARK 921   NORMALIZED FREE ENERGY PREDICTED BY IDOCK:   -3.69 KCAL/MOL
REMARK 922        TOTAL FREE ENERGY PREDICTED BY IDOCK:   -5.02 KCAL/MOL
REMARK 923 INTER-LIGAND FREE ENERGY PREDICTED BY IDOCK:   -4.68 KCAL/MOL
REMARK 924 INTRA-LIGAND FREE ENERGY PREDICTED BY IDOCK:   -0.34 KCAL/MOL
REMARK 927      BINDING AFFINITY PREDICTED BY RF-SCORE:    0.00 PKD
ROOT
HETATM    1  C   UNL     1      -7.855   3.249  72.393  1.00  0.00    -0.059 C  
HETATM    2  N   UNL     1      -8.462   3.782  71.168  1.00  0.00    -0.071 N  
HETATM    3  H   UNL     1      -8.632   3.191  70.354  1.00  0.00     0.000 HD 
ENDROOT
BRANCH   2   4
HETATM    4  S   UNL     1      -8.867   5.428  71.167  1.00  0.00    -0.138 S  
HETATM    5  O   UNL     1      -9.103   5.756  72.556  1.00  0.00    -0.137 OA 
HETATM    6  O   UNL     1      -7.826   6.084  70.405  1.00  0.00    -0.101 OA 
BRANCH   4   7
HETATM    7  C   UNL     1     -10.427   5.421  70.264  1.00  0.00    -0.285 C  
BRANCH   7   8
HETATM    8  C   UNL     1     -10.363   6.322  69.057  1.00  0.00    -0.251 A  
HETATM    9  C   UNL     1     -10.508   7.718  69.185  1.00  0.00    -0.219 A  
HETATM   10  C   UNL     1     -10.379   8.559  68.060  1.00  0.00    -0.272 A  
HETATM   11  C   UNL     1     -10.064   7.972  66.836  1.00  0.00    -0.292 A  
HETATM   12  C   UNL     1      -9.904   6.592  66.672  1.00  0.00    -0.208 A  
HETATM   13  N   UNL     1      -9.956   8.988  65.919  1.00  0.00    -0.436 NA 
HETATM   14  C   UNL     1     -10.062   5.781  67.800  1.00  0.00    -0.196 A  
HETATM   15  H   UNL     1      -9.728   8.860  64.933  1.00  0.00     0.000 HD 
HETATM   16  C   UNL     1     -10.198  10.195  66.513  1.00  0.00    -0.223 A  
HETATM   17  C   UNL     1     -10.498   9.972  67.845  1.00  0.00    -0.276 A  
BRANCH  17  18
HETATM   18  C   UNL     1     -10.869  11.026  68.855  1.00  0.00    -0.262 C  
BRANCH  18  19
HETATM   19  C   UNL     1     -11.743  12.140  68.238  1.00  0.00    -0.342 C  
BRANCH  19  20
HETATM   20  N   UNL     1     -11.034  13.385  67.869  1.00  0.00    -0.249 NA 
HETATM   21  C   UNL     1     -10.813  14.191  69.077  1.00  0.00    -0.251 C  
HETATM   22  C   UNL     1     -11.774  14.177  66.886  1.00  0.00    -0.414 C  
ENDBRANCH  19  20
ENDBRANCH  18  19
ENDBRANCH  17  18
ENDBRANCH   7   8
ENDBRANCH   4   7
ENDBRANCH   2   4
TORSDOF 6
ENDMDL
MODEL      191
REMARK 921   NORMALIZED FREE ENERGY PREDICTED BY IDOCK:   -3.68 KCAL/MOL
REMARK 922        TOTAL FREE ENERGY PREDICTED BY IDOCK:   -5.00 KCAL/MOL
REMARK 923 INTER-LIGAND FREE ENERGY PREDICTED BY IDOCK:   -4.90 KCAL/MOL
REMARK 924 INTRA-LIGAND FREE ENERGY PREDICTED BY IDOCK:   -0.10 KCAL/MOL
REMARK 927      BINDING AFFINITY PREDICTED BY RF-SCORE:    0.00 PKD
ROOT
HETATM    1  C   UNL     1     -10.337   5.768  67.192  1.00  0.00    -0.240 C  
HETATM    2  N   UNL     1      -9.622   6.919  67.759  1.00  0.00    -0.122 N  
HETATM    3  H   UNL     1      -9.329   6.938  68.735  1.00  0.00     0.000 HD 
ENDROOT
BRANCH   2   4
HETATM    4  S   UNL     1      -9.307   8.215  66.713  1.00  0.00    -0.197 S  
HETATM    5  O   UNL     1      -8.103   8.829  67.230  1.00  0.00    -0.100 OA 
HETATM    6  O   UNL     1      -9.355   7.657  65.379  1.00  0.00     0.249 OA 
BRANCH   4   7
HETATM    7  C   UNL     1     -10.724   9.287  67.021  1.00  0.00    -0.129 C  
BRANCH   7   8
HETATM    8  C   UNL     1     -10.636  10.554  66.209  1.00  0.00    -0.203 A  
HETATM    9  C   UNL     1     -10.938  11.806  66.782  1.00  0.00    -0.336 A  
HETATM   10  C   UNL     1     -10.789  12.992  66.033  1.00  0.00    -0.290 A  
HETATM   11  C   UNL     1     -10.294  12.889  64.735  1.00  0.00    -0.323 A  
HETATM   12  C   UNL     1      -9.975  11.666  64.135  1.00  0.00    -0.311 A  
HETATM   13  N   UNL     1     -10.204  14.166  64.237  1.00  0.00    -0.602 NA 
HETATM   14  C   UNL     1     -10.157  10.504  64.893  1.00  0.00    -0.403 A  
HETATM   15  H   UNL     1      -9.867  14.404  63.304  1.00  0.00     0.000 HD 
HETATM   16  C   UNL     1     -10.629  15.072  65.168  1.00  0.00    -0.418 A  
HETATM   17  C   UNL     1     -11.034  14.380  66.295  1.00  0.00    -0.318 A  
BRANCH  17  18
HETATM   18  C   UNL     1     -11.611  14.990  67.545  1.00  0.00    -0.315 C  
BRANCH  18  19
HETATM   19  C   UNL     1     -11.008  16.380  67.847  1.00  0.00    -0.298 C  
BRANCH  19  20
HETATM   20  N   UNL     1      -9.849  16.393  68.766  1.00  0.00    -0.239 NA 
HETATM   21  C   UNL     1     -10.231  15.759  70.034  1.00  0.00    -0.233 C  
HETATM   22  C   UNL     1      -9.362  17.748  69.029  1.00  0.00    -0.068 C  
ENDBRANCH  19  20
ENDBRANCH  18  19
ENDBRANCH  17  18
ENDBRANCH   7   8
ENDBRANCH   4   7
ENDBRANCH   2   4
TORSDOF 6
ENDMDL
MODEL      192
REMARK 921   NORMALIZED FREE ENERGY PREDICTED BY IDOCK:   -3.67 KCAL/MOL
REMARK 922        TOTAL FREE ENERGY PREDICTED BY IDOCK:   -4.98 KCAL/MOL
REMARK 923 INTER-LIGAND FREE ENERGY PREDICTED BY IDOCK:   -4.58 KCAL/MOL
REMARK 924 INTRA-LIGAND FREE ENERGY PREDICTED BY IDOCK:   -0.41 KCAL/MOL
REMARK 927      BINDING AFFINITY PREDICTED BY RF-SCORE:    0.00 PKD
ROOT
HETATM    1  C   UNL     1      -5.867  14.671  70.603  1.00  0.00    -0.167 C  
HETATM    2  N   UNL     1      -6.767  15.208  69.574  1.00  0.00    -0.157 N  
HETATM    3  H   UNL     1      -7.259  16.092  69.702  1.00  0.00     0.000 HD 
ENDROOT
BRANCH   2   4
HETATM    4  S   UNL     1      -6.948  14.289  68.160  1.00  0.00    -0.148 S  
HETATM    5  O   UNL     1      -6.623  15.195  67.081  1.00  0.00    -0.285 OA 
HETATM    6  O   UNL     1      -6.186  13.079  68.385  1.00  0.00    -0.070 OA 
BRANCH   4   7
HETATM    7  C   UNL     1      -8.719  13.953  68.168  1.00  0.00    -0.182 C  
BRANCH   7   8
HETATM    8  C   UNL     1      -9.014  12.568  67.649  1.00  0.00    -0.185 A  
HETATM    9  C   UNL     1      -9.483  11.555  68.509  1.00  0.00    -0.175 A  
HETATM   10  C   UNL     1      -9.819  10.283  68.002  1.00  0.00    -0.171 A  
HETATM   11  C   UNL     1      -9.714  10.076  66.628  1.00  0.00    -0.194 A  
HETATM   12  C   UNL     1      -9.262  11.059  65.743  1.00  0.00    -0.226 A  
HETATM   13  N   UNL     1     -10.130   8.791  66.382  1.00  0.00    -0.335 NA 
HETATM   14  C   UNL     1      -8.911  12.304  66.277  1.00  0.00    -0.068 A  
HETATM   15  H   UNL     1     -10.167   8.358  65.460  1.00  0.00     0.000 HD 
HETATM   16  C   UNL     1     -10.487   8.173  67.548  1.00  0.00    -0.256 A  
HETATM   17  C   UNL     1     -10.279   9.058  68.591  1.00  0.00    -0.226 A  
BRANCH  17  18
HETATM   18  C   UNL     1     -10.503   8.770  70.052  1.00  0.00    -0.222 C  
BRANCH  18  19
HETATM   19  C   UNL     1     -11.604   9.668  70.660  1.00  0.00    -0.299 C  
BRANCH  19  20
HETATM   20  N   UNL     1     -11.973   9.374  72.062  1.00  0.00    -0.332 NA 
HETATM   21  C   UNL     1     -11.268   8.164  72.503  1.00  0.00    -0.391 C  
HETATM   22  C   UNL     1     -13.414   9.183  72.230  1.00  0.00    -0.486 C  
ENDBRANCH  19  20
ENDBRANCH  18  19
ENDBRANCH  17  18
ENDBRANCH   7   8
ENDBRANCH   4   7
ENDBRANCH   2   4
TORSDOF 6
ENDMDL
MODEL      193
REMARK 921   NORMALIZED FREE ENERGY PREDICTED BY IDOCK:   -3.66 KCAL/MOL
REMARK 922        TOTAL FREE ENERGY PREDICTED BY IDOCK:   -4.98 KCAL/MOL
REMARK 923 INTER-LIGAND FREE ENERGY PREDICTED BY IDOCK:   -5.52 KCAL/MOL
REMARK 924 INTRA-LIGAND FREE ENERGY PREDICTED BY IDOCK:    0.54 KCAL/MOL
REMARK 927      BINDING AFFINITY PREDICTED BY RF-SCORE:    0.00 PKD
ROOT
HETATM    1  C   UNL     1      -8.280   6.400  65.926  1.00  0.00    -0.130 C  
HETATM    2  N   UNL     1      -8.760   7.347  64.911  1.00  0.00    -0.350 N  
HETATM    3  H   UNL     1      -9.724   7.330  64.578  1.00  0.00     0.000 HD 
ENDROOT
BRANCH   2   4
HETATM    4  S   UNL     1      -7.638   8.472  64.321  1.00  0.00    -0.129 S  
HETATM    5  O   UNL     1      -7.073   9.091  65.500  1.00  0.00    -0.079 OA 
HETATM    6  O   UNL     1      -6.812   7.740  63.385  1.00  0.00    -0.068 OA 
BRANCH   4   7
HETATM    7  C   UNL     1      -8.709   9.643  63.465  1.00  0.00    -0.222 C  
BRANCH   7   8
HETATM    8  C   UNL     1      -9.643  10.332  64.428  1.00  0.00    -0.378 A  
HETATM    9  C   UNL     1      -9.539  10.120  65.817  1.00  0.00    -0.288 A  
HETATM   10  C   UNL     1     -10.373  10.821  66.713  1.00  0.00    -0.294 A  
HETATM   11  C   UNL     1     -11.265  11.752  66.186  1.00  0.00    -0.306 A  
HETATM   12  C   UNL     1     -11.391  11.996  64.815  1.00  0.00    -0.369 A  
HETATM   13  N   UNL     1     -11.926  12.321  67.247  1.00  0.00    -0.559 NA 
HETATM   14  C   UNL     1     -10.568  11.268  63.948  1.00  0.00    -0.455 A  
HETATM   15  H   UNL     1     -12.640  13.045  67.168  1.00  0.00     0.000 HD 
HETATM   16  C   UNL     1     -11.492  11.780  68.425  1.00  0.00    -0.294 A  
HETATM   17  C   UNL     1     -10.543  10.815  68.137  1.00  0.00    -0.238 A  
BRANCH  17  18
HETATM   18  C   UNL     1      -9.837   9.944  69.142  1.00  0.00    -0.204 C  
BRANCH  18  19
HETATM   19  C   UNL     1     -10.602   8.629  69.413  1.00  0.00    -0.199 C  
BRANCH  19  20
HETATM   20  N   UNL     1     -10.959   8.371  70.825  1.00  0.00    -0.242 NA 
HETATM   21  C   UNL     1     -11.910   7.254  70.886  1.00  0.00    -0.316 C  
HETATM   22  C   UNL     1     -11.546   9.543  71.475  1.00  0.00    -0.395 C  
ENDBRANCH  19  20
ENDBRANCH  18  19
ENDBRANCH  17  18
ENDBRANCH   7   8
ENDBRANCH   4   7
ENDBRANCH   2   4
TORSDOF 6
ENDMDL
MODEL      194
REMARK 921   NORMALIZED FREE ENERGY PREDICTED BY IDOCK:   -3.65 KCAL/MOL
REMARK 922        TOTAL FREE ENERGY PREDICTED BY IDOCK:   -4.96 KCAL/MOL
REMARK 923 INTER-LIGAND FREE ENERGY PREDICTED BY IDOCK:   -4.47 KCAL/MOL
REMARK 924 INTRA-LIGAND FREE ENERGY PREDICTED BY IDOCK:   -0.49 KCAL/MOL
REMARK 927      BINDING AFFINITY PREDICTED BY RF-SCORE:    0.00 PKD
ROOT
HETATM    1  C   UNL     1     -11.025   6.388  68.600  1.00  0.00    -0.330 C  
HETATM    2  N   UNL     1     -11.069   7.201  67.378  1.00  0.00    -0.583 N  
HETATM    3  H   UNL     1     -11.624   6.922  66.570  1.00  0.00     0.000 HD 
ENDROOT
BRANCH   2   4
HETATM    4  S   UNL     1     -10.154   8.628  67.375  1.00  0.00    -0.251 S  
HETATM    5  O   UNL     1      -8.829   8.224  67.792  1.00  0.00    -0.136 OA 
HETATM    6  O   UNL     1     -10.385   9.233  66.080  1.00  0.00    -0.229 OA 
BRANCH   4   7
HETATM    7  C   UNL     1     -10.949   9.576  68.686  1.00  0.00    -0.072 C  
BRANCH   7   8
HETATM    8  C   UNL     1     -10.722  11.056  68.505  1.00  0.00    -0.236 A  
HETATM    9  C   UNL     1      -9.441  11.562  68.207  1.00  0.00    -0.189 A  
HETATM   10  C   UNL     1      -9.252  12.940  67.973  1.00  0.00    -0.212 A  
HETATM   11  C   UNL     1     -10.371  13.770  68.003  1.00  0.00    -0.246 A  
HETATM   12  C   UNL     1     -11.659  13.302  68.285  1.00  0.00    -0.369 A  
HETATM   13  N   UNL     1      -9.938  15.040  67.709  1.00  0.00    -0.228 NA 
HETATM   14  C   UNL     1     -11.812  11.935  68.538  1.00  0.00    -0.357 A  
HETATM   15  H   UNL     1     -10.540  15.861  67.654  1.00  0.00     0.000 HD 
HETATM   16  C   UNL     1      -8.587  15.047  67.503  1.00  0.00    -0.180 A  
HETATM   17  C   UNL     1      -8.111  13.761  67.689  1.00  0.00    -0.181 A  
BRANCH  17  18
HETATM   18  C   UNL     1      -6.670  13.332  67.599  1.00  0.00    -0.171 C  
BRANCH  18  19
HETATM   19  C   UNL     1      -5.878  13.681  68.878  1.00  0.00    -0.083 C  
BRANCH  19  20
HETATM   20  N   UNL     1      -6.280  12.956  70.103  1.00  0.00    -0.084 NA 
HETATM   21  C   UNL     1      -5.764  13.669  71.279  1.00  0.00    -0.184 C  
HETATM   22  C   UNL     1      -5.791  11.577  70.120  1.00  0.00    -0.150 C  
ENDBRANCH  19  20
ENDBRANCH  18  19
ENDBRANCH  17  18
ENDBRANCH   7   8
ENDBRANCH   4   7
ENDBRANCH   2   4
TORSDOF 6
ENDMDL
MODEL      195
REMARK 921   NORMALIZED FREE ENERGY PREDICTED BY IDOCK:   -3.61 KCAL/MOL
REMARK 922        TOTAL FREE ENERGY PREDICTED BY IDOCK:   -4.91 KCAL/MOL
REMARK 923 INTER-LIGAND FREE ENERGY PREDICTED BY IDOCK:   -5.05 KCAL/MOL
REMARK 924 INTRA-LIGAND FREE ENERGY PREDICTED BY IDOCK:    0.14 KCAL/MOL
REMARK 927      BINDING AFFINITY PREDICTED BY RF-SCORE:    0.00 PKD
ROOT
HETATM    1  C   UNL     1      -6.079  10.866  66.374  1.00  0.00    -0.131 C  
HETATM    2  N   UNL     1      -6.930   9.726  66.739  1.00  0.00    -0.084 N  
HETATM    3  H   UNL     1      -7.275   9.071  66.038  1.00  0.00     0.000 HD 
ENDROOT
BRANCH   2   4
HETATM    4  S   UNL     1      -7.311   9.550  68.381  1.00  0.00    -0.076 S  
HETATM    5  O   UNL     1      -8.431   8.635  68.409  1.00  0.00    -0.128 OA 
HETATM    6  O   UNL     1      -6.061   9.232  69.037  1.00  0.00    -0.042 OA 
BRANCH   4   7
HETATM    7  C   UNL     1      -7.864  11.212  68.809  1.00  0.00    -0.142 C  
BRANCH   7   8
HETATM    8  C   UNL     1      -9.122  11.578  68.061  1.00  0.00    -0.174 A  
HETATM    9  C   UNL     1      -9.173  12.726  67.245  1.00  0.00    -0.203 A  
HETATM   10  C   UNL     1     -10.331  13.023  66.497  1.00  0.00    -0.278 A  
HETATM   11  C   UNL     1     -11.397  12.127  66.557  1.00  0.00    -0.350 A  
HETATM   12  C   UNL     1     -11.379  10.974  67.347  1.00  0.00    -0.306 A  
HETATM   13  N   UNL     1     -12.375  12.611  65.724  1.00  0.00    -0.619 NA 
HETATM   14  C   UNL     1     -10.227  10.718  68.098  1.00  0.00    -0.194 A  
HETATM   15  H   UNL     1     -13.275  12.161  65.560  1.00  0.00     0.000 HD 
HETATM   16  C   UNL     1     -11.973  13.782  65.144  1.00  0.00    -0.379 A  
HETATM   17  C   UNL     1     -10.713  14.094  65.624  1.00  0.00    -0.317 A  
BRANCH  17  18
HETATM   18  C   UNL     1      -9.916  15.323  65.276  1.00  0.00    -0.322 C  
BRANCH  18  19
HETATM   19  C   UNL     1     -10.635  16.623  65.701  1.00  0.00    -0.270 C  
BRANCH  19  20
HETATM   20  N   UNL     1     -10.215  17.196  66.999  1.00  0.00    -0.306 NA 
HETATM   21  C   UNL     1     -11.004  16.583  68.075  1.00  0.00    -0.320 C  
HETATM   22  C   UNL     1     -10.379  18.650  67.045  1.00  0.00    -0.404 C  
ENDBRANCH  19  20
ENDBRANCH  18  19
ENDBRANCH  17  18
ENDBRANCH   7   8
ENDBRANCH   4   7
ENDBRANCH   2   4
TORSDOF 6
ENDMDL
MODEL      196
REMARK 921   NORMALIZED FREE ENERGY PREDICTED BY IDOCK:   -3.59 KCAL/MOL
REMARK 922        TOTAL FREE ENERGY PREDICTED BY IDOCK:   -4.87 KCAL/MOL
REMARK 923 INTER-LIGAND FREE ENERGY PREDICTED BY IDOCK:   -5.94 KCAL/MOL
REMARK 924 INTRA-LIGAND FREE ENERGY PREDICTED BY IDOCK:    1.06 KCAL/MOL
REMARK 927      BINDING AFFINITY PREDICTED BY RF-SCORE:    0.00 PKD
ROOT
HETATM    1  C   UNL     1     -11.943  16.229  72.771  1.00  0.00    -0.537 C  
HETATM    2  N   UNL     1     -11.780  14.845  72.307  1.00  0.00    -0.325 N  
HETATM    3  H   UNL     1     -10.983  14.276  72.592  1.00  0.00     0.000 HD 
ENDROOT
BRANCH   2   4
HETATM    4  S   UNL     1     -12.980  14.236  71.276  1.00  0.00    -0.364 S  
HETATM    5  O   UNL     1     -14.055  13.827  72.154  1.00  0.00    -0.504 OA 
HETATM    6  O   UNL     1     -13.177  15.254  70.267  1.00  0.00    -0.194 OA 
BRANCH   4   7
HETATM    7  C   UNL     1     -12.166  12.784  70.585  1.00  0.00    -0.288 C  
BRANCH   7   8
HETATM    8  C   UNL     1     -11.855  12.977  69.122  1.00  0.00    -0.360 A  
HETATM    9  C   UNL     1     -11.356  11.917  68.339  1.00  0.00    -0.331 A  
HETATM   10  C   UNL     1     -11.133  12.089  66.957  1.00  0.00    -0.351 A  
HETATM   11  C   UNL     1     -11.461  13.318  66.389  1.00  0.00    -0.329 A  
HETATM   12  C   UNL     1     -11.966  14.390  67.131  1.00  0.00    -0.419 A  
HETATM   13  N   UNL     1     -11.192  13.224  65.045  1.00  0.00    -0.298 NA 
HETATM   14  C   UNL     1     -12.154  14.199  68.504  1.00  0.00    -0.312 A  
HETATM   15  H   UNL     1     -11.339  13.972  64.368  1.00  0.00     0.000 HD 
HETATM   16  C   UNL     1     -10.701  11.985  64.743  1.00  0.00    -0.306 A  
HETATM   17  C   UNL     1     -10.617  11.252  65.913  1.00  0.00    -0.309 A  
BRANCH  17  18
HETATM   18  C   UNL     1     -10.087   9.848  66.040  1.00  0.00    -0.314 C  
BRANCH  18  19
HETATM   19  C   UNL     1      -8.735   9.668  65.315  1.00  0.00    -0.160 C  
BRANCH  19  20
HETATM   20  N   UNL     1      -7.769   8.759  65.970  1.00  0.00    -0.096 NA 
HETATM   21  C   UNL     1      -6.801   9.553  66.737  1.00  0.00    -0.080 C  
HETATM   22  C   UNL     1      -7.054   7.920  65.008  1.00  0.00    -0.060 C  
ENDBRANCH  19  20
ENDBRANCH  18  19
ENDBRANCH  17  18
ENDBRANCH   7   8
ENDBRANCH   4   7
ENDBRANCH   2   4
TORSDOF 6
ENDMDL
MODEL      197
REMARK 921   NORMALIZED FREE ENERGY PREDICTED BY IDOCK:   -3.58 KCAL/MOL
REMARK 922        TOTAL FREE ENERGY PREDICTED BY IDOCK:   -4.87 KCAL/MOL
REMARK 923 INTER-LIGAND FREE ENERGY PREDICTED BY IDOCK:   -4.37 KCAL/MOL
REMARK 924 INTRA-LIGAND FREE ENERGY PREDICTED BY IDOCK:   -0.50 KCAL/MOL
REMARK 927      BINDING AFFINITY PREDICTED BY RF-SCORE:    0.00 PKD
ROOT
HETATM    1  C   UNL     1     -10.857  15.388  66.632  1.00  0.00    -0.302 C  
HETATM    2  N   UNL     1     -10.504  14.135  65.954  1.00  0.00    -0.296 N  
HETATM    3  H   UNL     1     -10.019  14.130  65.057  1.00  0.00     0.000 HD 
ENDROOT
BRANCH   2   4
HETATM    4  S   UNL     1     -10.941  12.694  66.733  1.00  0.00    -0.272 S  
HETATM    5  O   UNL     1     -11.100  13.054  68.125  1.00  0.00    -0.234 OA 
HETATM    6  O   UNL     1     -12.042  12.156  65.963  1.00  0.00    -0.612 OA 
BRANCH   4   7
HETATM    7  C   UNL     1      -9.453  11.698  66.522  1.00  0.00    -0.206 C  
BRANCH   7   8
HETATM    8  C   UNL     1      -9.064  11.018  67.810  1.00  0.00    -0.147 A  
HETATM    9  C   UNL     1      -9.736   9.861  68.252  1.00  0.00    -0.159 A  
HETATM   10  C   UNL     1      -9.321   9.194  69.423  1.00  0.00    -0.160 A  
HETATM   11  C   UNL     1      -8.207   9.688  70.099  1.00  0.00    -0.187 A  
HETATM   12  C   UNL     1      -7.509  10.828  69.686  1.00  0.00    -0.082 A  
HETATM   13  N   UNL     1      -7.983   8.855  71.168  1.00  0.00    -0.154 NA 
HETATM   14  C   UNL     1      -7.959  11.483  68.535  1.00  0.00    -0.143 A  
HETATM   15  H   UNL     1      -7.227   8.965  71.843  1.00  0.00     0.000 HD 
HETATM   16  C   UNL     1      -8.916   7.857  71.198  1.00  0.00    -0.138 A  
HETATM   17  C   UNL     1      -9.792   8.047  70.144  1.00  0.00    -0.184 A  
BRANCH  17  18
HETATM   18  C   UNL     1     -10.997   7.198  69.833  1.00  0.00    -0.278 C  
BRANCH  18  19
HETATM   19  C   UNL     1     -10.623   5.715  69.617  1.00  0.00    -0.331 C  
BRANCH  19  20
HETATM   20  N   UNL     1     -10.342   5.319  68.220  1.00  0.00    -0.145 NA 
HETATM   21  C   UNL     1      -8.909   5.495  67.947  1.00  0.00    -0.105 C  
HETATM   22  C   UNL     1     -11.118   6.096  67.253  1.00  0.00    -0.236 C  
ENDBRANCH  19  20
ENDBRANCH  18  19
ENDBRANCH  17  18
ENDBRANCH   7   8
ENDBRANCH   4   7
ENDBRANCH   2   4
TORSDOF 6
ENDMDL
MODEL      198
REMARK 921   NORMALIZED FREE ENERGY PREDICTED BY IDOCK:   -3.56 KCAL/MOL
REMARK 922        TOTAL FREE ENERGY PREDICTED BY IDOCK:   -4.83 KCAL/MOL
REMARK 923 INTER-LIGAND FREE ENERGY PREDICTED BY IDOCK:   -4.55 KCAL/MOL
REMARK 924 INTRA-LIGAND FREE ENERGY PREDICTED BY IDOCK:   -0.28 KCAL/MOL
REMARK 927      BINDING AFFINITY PREDICTED BY RF-SCORE:    0.00 PKD
ROOT
HETATM    1  C   UNL     1     -11.446  16.560  71.001  1.00  0.00    -0.040 C  
HETATM    2  N   UNL     1     -12.787  15.981  71.161  1.00  0.00    -0.558 N  
HETATM    3  H   UNL     1     -13.557  16.238  70.544  1.00  0.00     0.000 HD 
ENDROOT
BRANCH   2   4
HETATM    4  S   UNL     1     -12.993  14.864  72.419  1.00  0.00    -0.386 S  
HETATM    5  O   UNL     1     -11.653  14.466  72.790  1.00  0.00     0.333 OA 
HETATM    6  O   UNL     1     -13.878  15.508  73.367  1.00  0.00    -0.267 OA 
BRANCH   4   7
HETATM    7  C   UNL     1     -13.825  13.508  71.572  1.00  0.00     0.007 C  
BRANCH   7   8
HETATM    8  C   UNL     1     -12.841  12.651  70.816  1.00  0.00    -0.102 A  
HETATM    9  C   UNL     1     -12.136  13.161  69.708  1.00  0.00    -0.336 A  
HETATM   10  C   UNL     1     -11.169  12.374  69.049  1.00  0.00    -0.320 A  
HETATM   11  C   UNL     1     -10.905  11.102  69.554  1.00  0.00    -0.188 A  
HETATM   12  C   UNL     1     -11.577  10.566  70.657  1.00  0.00    -0.445 A  
HETATM   13  N   UNL     1      -9.912  10.559  68.776  1.00  0.00    -0.183 NA 
HETATM   14  C   UNL     1     -12.549  11.360  71.275  1.00  0.00    -0.480 A  
HETATM   15  H   UNL     1      -9.508   9.633  68.912  1.00  0.00     0.000 HD 
HETATM   16  C   UNL     1      -9.543  11.435  67.794  1.00  0.00    -0.172 A  
HETATM   17  C   UNL     1     -10.325  12.571  67.907  1.00  0.00    -0.219 A  
BRANCH  17  18
HETATM   18  C   UNL     1     -10.276  13.770  66.997  1.00  0.00    -0.254 C  
BRANCH  18  19
HETATM   19  C   UNL     1      -9.139  14.744  67.379  1.00  0.00    -0.195 C  
BRANCH  19  20
HETATM   20  N   UNL     1      -9.528  15.881  68.241  1.00  0.00    -0.199 NA 
HETATM   21  C   UNL     1     -10.746  16.500  67.703  1.00  0.00    -0.311 C  
HETATM   22  C   UNL     1      -8.474  16.892  68.339  1.00  0.00    -0.239 C  
ENDBRANCH  19  20
ENDBRANCH  18  19
ENDBRANCH  17  18
ENDBRANCH   7   8
ENDBRANCH   4   7
ENDBRANCH   2   4
TORSDOF 6
ENDMDL
MODEL      199
REMARK 921   NORMALIZED FREE ENERGY PREDICTED BY IDOCK:   -3.52 KCAL/MOL
REMARK 922        TOTAL FREE ENERGY PREDICTED BY IDOCK:   -4.79 KCAL/MOL
REMARK 923 INTER-LIGAND FREE ENERGY PREDICTED BY IDOCK:   -4.47 KCAL/MOL
REMARK 924 INTRA-LIGAND FREE ENERGY PREDICTED BY IDOCK:   -0.32 KCAL/MOL
REMARK 927      BINDING AFFINITY PREDICTED BY RF-SCORE:    0.00 PKD
ROOT
HETATM    1  C   UNL     1      -7.883   5.194  72.499  1.00  0.00    -0.101 C  
HETATM    2  N   UNL     1      -8.342   6.573  72.290  1.00  0.00    -0.106 N  
HETATM    3  H   UNL     1      -8.086   7.102  71.456  1.00  0.00     0.000 HD 
ENDROOT
BRANCH   2   4
HETATM    4  S   UNL     1      -9.318   7.247  73.502  1.00  0.00    -0.232 S  
HETATM    5  O   UNL     1      -9.474   6.197  74.484  1.00  0.00    -0.166 OA 
HETATM    6  O   UNL     1      -8.698   8.510  73.841  1.00  0.00    -0.227 OA 
BRANCH   4   7
HETATM    7  C   UNL     1     -10.871   7.500  72.621  1.00  0.00    -0.315 C  
BRANCH   7   8
HETATM    8  C   UNL     1     -10.632   8.081  71.250  1.00  0.00    -0.245 A  
HETATM    9  C   UNL     1     -10.686   7.270  70.099  1.00  0.00    -0.260 A  
HETATM   10  C   UNL     1     -10.528   7.835  68.816  1.00  0.00    -0.201 A  
HETATM   11  C   UNL     1     -10.362   9.215  68.724  1.00  0.00    -0.214 A  
HETATM   12  C   UNL     1     -10.312  10.053  69.842  1.00  0.00    -0.315 A  
HETATM   13  N   UNL     1     -10.271   9.520  67.388  1.00  0.00    -0.212 NA 
HETATM   14  C   UNL     1     -10.447   9.462  71.103  1.00  0.00    -0.392 A  
HETATM   15  H   UNL     1     -10.150  10.461  67.013  1.00  0.00     0.000 HD 
HETATM   16  C   UNL     1     -10.366   8.386  66.632  1.00  0.00    -0.228 A  
HETATM   17  C   UNL     1     -10.496   7.304  67.484  1.00  0.00    -0.337 A  
BRANCH  17  18
HETATM   18  C   UNL     1     -10.589   5.859  67.070  1.00  0.00    -0.376 C  
BRANCH  18  19
HETATM   19  C   UNL     1      -9.405   5.023  67.603  1.00  0.00    -0.126 C  
BRANCH  19  20
HETATM   20  N   UNL     1      -8.656   4.248  66.590  1.00  0.00    -0.111 NA 
HETATM   21  C   UNL     1      -8.982   4.760  65.252  1.00  0.00    -0.151 C  
HETATM   22  C   UNL     1      -8.957   2.817  66.647  1.00  0.00    -0.151 C  
ENDBRANCH  19  20
ENDBRANCH  18  19
ENDBRANCH  17  18
ENDBRANCH   7   8
ENDBRANCH   4   7
ENDBRANCH   2   4
TORSDOF 6
ENDMDL
MODEL      200
REMARK 921   NORMALIZED FREE ENERGY PREDICTED BY IDOCK:   -3.48 KCAL/MOL
REMARK 922        TOTAL FREE ENERGY PREDICTED BY IDOCK:   -4.73 KCAL/MOL
REMARK 923 INTER-LIGAND FREE ENERGY PREDICTED BY IDOCK:   -4.16 KCAL/MOL
REMARK 924 INTRA-LIGAND FREE ENERGY PREDICTED BY IDOCK:   -0.57 KCAL/MOL
REMARK 927      BINDING AFFINITY PREDICTED BY RF-SCORE:    0.00 PKD
ROOT
HETATM    1  C   UNL     1      -7.116   4.310  70.016  1.00  0.00    -0.042 C  
HETATM    2  N   UNL     1      -7.928   5.264  69.251  1.00  0.00    -0.087 N  
HETATM    3  H   UNL     1      -7.673   5.546  68.305  1.00  0.00     0.000 HD 
ENDROOT
BRANCH   2   4
HETATM    4  S   UNL     1      -9.312   5.876  70.015  1.00  0.00    -0.149 S  
HETATM    5  O   UNL     1     -10.202   6.247  68.937  1.00  0.00    -0.156 OA 
HETATM    6  O   UNL     1      -9.688   4.878  70.993  1.00  0.00    -0.163 OA 
BRANCH   4   7
HETATM    7  C   UNL     1      -8.664   7.357  70.814  1.00  0.00    -0.145 C  
BRANCH   7   8
HETATM    8  C   UNL     1      -9.652   8.494  70.739  1.00  0.00    -0.217 A  
HETATM    9  C   UNL     1      -9.572   9.458  69.713  1.00  0.00    -0.216 A  
HETATM   10  C   UNL     1     -10.540  10.479  69.613  1.00  0.00    -0.281 A  
HETATM   11  C   UNL     1     -11.592  10.476  70.526  1.00  0.00    -0.350 A  
HETATM   12  C   UNL     1     -11.710   9.532  71.550  1.00  0.00    -0.472 A  
HETATM   13  N   UNL     1     -12.410  11.530  70.199  1.00  0.00    -0.271 NA 
HETATM   14  C   UNL     1     -10.722   8.546  71.642  1.00  0.00    -0.351 A  
HETATM   15  H   UNL     1     -13.268  11.776  70.693  1.00  0.00     0.000 HD 
HETATM   16  C   UNL     1     -11.912  12.204  69.119  1.00  0.00    -0.255 A  
HETATM   17  C   UNL     1     -10.727  11.600  68.738  1.00  0.00    -0.254 A  
BRANCH  17  18
HETATM   18  C   UNL     1      -9.828  12.049  67.617  1.00  0.00    -0.191 C  
BRANCH  18  19
HETATM   19  C   UNL     1      -8.505  12.654  68.138  1.00  0.00    -0.177 C  
BRANCH  19  20
HETATM   20  N   UNL     1      -7.291  11.842  67.908  1.00  0.00    -0.091 NA 
HETATM   21  C   UNL     1      -6.175  12.729  67.557  1.00  0.00    -0.159 C  
HETATM   22  C   UNL     1      -7.475  10.852  66.846  1.00  0.00    -0.128 C  
ENDBRANCH  19  20
ENDBRANCH  18  19
ENDBRANCH  17  18
ENDBRANCH   7   8
ENDBRANCH   4   7
ENDBRANCH   2   4
TORSDOF 6
ENDMDL
MODEL      201
REMARK 921   NORMALIZED FREE ENERGY PREDICTED BY IDOCK:   -3.45 KCAL/MOL
REMARK 922        TOTAL FREE ENERGY PREDICTED BY IDOCK:   -4.70 KCAL/MOL
REMARK 923 INTER-LIGAND FREE ENERGY PREDICTED BY IDOCK:   -4.19 KCAL/MOL
REMARK 924 INTRA-LIGAND FREE ENERGY PREDICTED BY IDOCK:   -0.51 KCAL/MOL
REMARK 927      BINDING AFFINITY PREDICTED BY RF-SCORE:    0.00 PKD
ROOT
HETATM    1  C   UNL     1     -11.538  14.668  67.710  1.00  0.00    -0.359 C  
HETATM    2  N   UNL     1     -12.198  13.416  67.316  1.00  0.00    -0.295 N  
HETATM    3  H   UNL     1     -13.143  13.408  66.934  1.00  0.00     0.000 HD 
ENDROOT
BRANCH   2   4
HETATM    4  S   UNL     1     -11.314  11.985  67.527  1.00  0.00    -0.333 S  
HETATM    5  O   UNL     1     -10.009  12.415  67.979  1.00  0.00    -0.195 OA 
HETATM    6  O   UNL     1     -12.150  11.129  68.341  1.00  0.00    -0.605 OA 
BRANCH   4   7
HETATM    7  C   UNL     1     -11.205  11.370  65.835  1.00  0.00    -0.107 C  
BRANCH   7   8
HETATM    8  C   UNL     1     -10.064  10.397  65.680  1.00  0.00    -0.337 A  
HETATM    9  C   UNL     1     -10.180   9.066  66.127  1.00  0.00    -0.141 A  
HETATM   10  C   UNL     1      -9.132   8.146  65.917  1.00  0.00    -0.183 A  
HETATM   11  C   UNL     1      -8.006   8.582  65.221  1.00  0.00    -0.120 A  
HETATM   12  C   UNL     1      -7.859   9.892  64.755  1.00  0.00    -0.141 A  
HETATM   13  N   UNL     1      -7.159   7.507  65.113  1.00  0.00    -0.062 NA 
HETATM   14  C   UNL     1      -8.904  10.790  65.000  1.00  0.00    -0.190 A  
HETATM   15  H   UNL     1      -6.252   7.525  64.646  1.00  0.00     0.000 HD 
HETATM   16  C   UNL     1      -7.701   6.409  65.720  1.00  0.00    -0.092 A  
HETATM   17  C   UNL     1      -8.921   6.770  66.264  1.00  0.00    -0.170 A  
BRANCH  17  18
HETATM   18  C   UNL     1      -9.834   5.874  67.058  1.00  0.00    -0.173 C  
BRANCH  18  19
HETATM   19  C   UNL     1      -9.901   4.446  66.472  1.00  0.00    -0.229 C  
BRANCH  19  20
HETATM   20  N   UNL     1      -9.486   3.356  67.382  1.00  0.00    -0.208 NA 
HETATM   21  C   UNL     1      -9.352   3.889  68.744  1.00  0.00    -0.166 C  
HETATM   22  C   UNL     1      -8.221   2.741  66.976  1.00  0.00    -0.085 C  
ENDBRANCH  19  20
ENDBRANCH  18  19
ENDBRANCH  17  18
ENDBRANCH   7   8
ENDBRANCH   4   7
ENDBRANCH   2   4
TORSDOF 6
ENDMDL
MODEL      202
REMARK 921   NORMALIZED FREE ENERGY PREDICTED BY IDOCK:   -3.44 KCAL/MOL
REMARK 922        TOTAL FREE ENERGY PREDICTED BY IDOCK:   -4.67 KCAL/MOL
REMARK 923 INTER-LIGAND FREE ENERGY PREDICTED BY IDOCK:   -4.48 KCAL/MOL
REMARK 924 INTRA-LIGAND FREE ENERGY PREDICTED BY IDOCK:   -0.20 KCAL/MOL
REMARK 927      BINDING AFFINITY PREDICTED BY RF-SCORE:    0.00 PKD
ROOT
HETATM    1  C   UNL     1     -12.070   8.981  71.794  1.00  0.00    -0.368 C  
HETATM    2  N   UNL     1     -12.145   9.272  70.357  1.00  0.00    -0.468 N  
HETATM    3  H   UNL     1     -12.751   8.738  69.734  1.00  0.00     0.000 HD 
ENDROOT
BRANCH   2   4
HETATM    4  S   UNL     1     -11.176  10.538  69.780  1.00  0.00    -0.318 S  
HETATM    5  O   UNL     1     -11.556  11.689  70.570  1.00  0.00    -0.212 OA 
HETATM    6  O   UNL     1      -9.822  10.028  69.795  1.00  0.00    -0.227 OA 
BRANCH   4   7
HETATM    7  C   UNL     1     -11.783  10.724  68.093  1.00  0.00    -0.092 C  
BRANCH   7   8
HETATM    8  C   UNL     1     -10.676  10.519  67.089  1.00  0.00    -0.323 A  
HETATM    9  C   UNL     1     -10.123   9.242  66.869  1.00  0.00    -0.324 A  
HETATM   10  C   UNL     1      -9.135   9.049  65.881  1.00  0.00    -0.264 A  
HETATM   11  C   UNL     1      -8.759  10.145  65.108  1.00  0.00    -0.173 A  
HETATM   12  C   UNL     1      -9.292  11.425  65.291  1.00  0.00    -0.192 A  
HETATM   13  N   UNL     1      -7.826   9.698  64.204  1.00  0.00    -0.123 NA 
HETATM   14  C   UNL     1     -10.252  11.592  66.295  1.00  0.00    -0.268 A  
HETATM   15  H   UNL     1      -7.372  10.280  63.500  1.00  0.00     0.000 HD 
HETATM   16  C   UNL     1      -7.592   8.363  64.381  1.00  0.00    -0.115 A  
HETATM   17  C   UNL     1      -8.365   7.922  65.440  1.00  0.00    -0.146 A  
BRANCH  17  18
HETATM   18  C   UNL     1      -8.382   6.524  65.999  1.00  0.00    -0.133 C  
BRANCH  18  19
HETATM   19  C   UNL     1      -8.365   5.452  64.886  1.00  0.00    -0.142 C  
BRANCH  19  20
HETATM   20  N   UNL     1      -9.532   4.543  64.851  1.00  0.00    -0.157 NA 
HETATM   21  C   UNL     1     -10.323   4.725  66.075  1.00  0.00    -0.293 C  
HETATM   22  C   UNL     1      -9.140   3.138  64.732  1.00  0.00    -0.140 C  
ENDBRANCH  19  20
ENDBRANCH  18  19
ENDBRANCH  17  18
ENDBRANCH   7   8
ENDBRANCH   4   7
ENDBRANCH   2   4
TORSDOF 6
ENDMDL
MODEL      203
REMARK 921   NORMALIZED FREE ENERGY PREDICTED BY IDOCK:   -3.42 KCAL/MOL
REMARK 922        TOTAL FREE ENERGY PREDICTED BY IDOCK:   -4.65 KCAL/MOL
REMARK 923 INTER-LIGAND FREE ENERGY PREDICTED BY IDOCK:   -4.56 KCAL/MOL
REMARK 924 INTRA-LIGAND FREE ENERGY PREDICTED BY IDOCK:   -0.09 KCAL/MOL
REMARK 927      BINDING AFFINITY PREDICTED BY RF-SCORE:    0.00 PKD
ROOT
HETATM    1  C   UNL     1      -5.991  10.106  65.222  1.00  0.00    -0.112 C  
HETATM    2  N   UNL     1      -7.011   9.360  65.970  1.00  0.00    -0.089 N  
HETATM    3  H   UNL     1      -7.627   8.689  65.510  1.00  0.00     0.000 HD 
ENDROOT
BRANCH   2   4
HETATM    4  S   UNL     1      -7.119   9.666  67.634  1.00  0.00    -0.089 S  
HETATM    5  O   UNL     1      -8.478   9.323  67.990  1.00  0.00    -0.119 OA 
HETATM    6  O   UNL     1      -5.988   8.984  68.226  1.00  0.00    -0.041 OA 
BRANCH   4   7
HETATM    7  C   UNL     1      -6.901  11.455  67.691  1.00  0.00    -0.080 C  
BRANCH   7   8
HETATM    8  C   UNL     1      -8.206  12.172  67.454  1.00  0.00    -0.175 A  
HETATM    9  C   UNL     1      -8.683  13.133  68.368  1.00  0.00    -0.120 A  
HETATM   10  C   UNL     1      -9.871  13.846  68.104  1.00  0.00    -0.240 A  
HETATM   11  C   UNL     1     -10.528  13.601  66.900  1.00  0.00    -0.272 A  
HETATM   12  C   UNL     1     -10.081  12.662  65.965  1.00  0.00    -0.274 A  
HETATM   13  N   UNL     1     -11.619  14.435  66.861  1.00  0.00    -0.373 NA 
HETATM   14  C   UNL     1      -8.914  11.952  66.265  1.00  0.00    -0.157 A  
HETATM   15  H   UNL     1     -12.288  14.482  66.093  1.00  0.00     0.000 HD 
HETATM   16  C   UNL     1     -11.681  15.192  67.997  1.00  0.00    -0.285 A  
HETATM   17  C   UNL     1     -10.626  14.835  68.817  1.00  0.00    -0.251 A  
BRANCH  17  18
HETATM   18  C   UNL     1     -10.343  15.394  70.187  1.00  0.00    -0.258 C  
BRANCH  18  19
HETATM   19  C   UNL     1     -11.636  15.807  70.925  1.00  0.00    -0.405 C  
BRANCH  19  20
HETATM   20  N   UNL     1     -12.042  14.934  72.048  1.00  0.00    -0.362 NA 
HETATM   21  C   UNL     1     -12.711  13.740  71.513  1.00  0.00    -0.346 C  
HETATM   22  C   UNL     1     -12.938  15.612  72.985  1.00  0.00    -0.510 C  
ENDBRANCH  19  20
ENDBRANCH  18  19
ENDBRANCH  17  18
ENDBRANCH   7   8
ENDBRANCH   4   7
ENDBRANCH   2   4
TORSDOF 6
ENDMDL
MODEL      204
REMARK 921   NORMALIZED FREE ENERGY PREDICTED BY IDOCK:   -3.42 KCAL/MOL
REMARK 922        TOTAL FREE ENERGY PREDICTED BY IDOCK:   -4.65 KCAL/MOL
REMARK 923 INTER-LIGAND FREE ENERGY PREDICTED BY IDOCK:   -4.54 KCAL/MOL
REMARK 924 INTRA-LIGAND FREE ENERGY PREDICTED BY IDOCK:   -0.11 KCAL/MOL
REMARK 927      BINDING AFFINITY PREDICTED BY RF-SCORE:    0.00 PKD
ROOT
HETATM    1  C   UNL     1      -8.109   2.837  68.119  1.00  0.00    -0.061 C  
HETATM    2  N   UNL     1      -8.850   3.349  66.959  1.00  0.00    -0.124 N  
HETATM    3  H   UNL     1      -9.404   2.733  66.365  1.00  0.00     0.000 HD 
ENDROOT
BRANCH   2   4
HETATM    4  S   UNL     1      -8.741   5.013  66.655  1.00  0.00    -0.108 S  
HETATM    5  O   UNL     1      -7.467   5.413  67.211  1.00  0.00    -0.082 OA 
HETATM    6  O   UNL     1      -9.031   5.169  65.246  1.00  0.00    -0.156 OA 
BRANCH   4   7
HETATM    7  C   UNL     1     -10.084   5.659  67.670  1.00  0.00    -0.172 C  
BRANCH   7   8
HETATM    8  C   UNL     1     -10.177   7.160  67.562  1.00  0.00    -0.272 A  
HETATM    9  C   UNL     1     -10.578   7.944  68.662  1.00  0.00    -0.145 A  
HETATM   10  C   UNL     1     -10.597   9.351  68.571  1.00  0.00    -0.234 A  
HETATM   11  C   UNL     1     -10.168   9.937  67.382  1.00  0.00    -0.222 A  
HETATM   12  C   UNL     1      -9.755   9.193  66.272  1.00  0.00    -0.344 A  
HETATM   13  N   UNL     1     -10.241  11.297  67.554  1.00  0.00    -0.186 NA 
HETATM   14  C   UNL     1      -9.770   7.798  66.383  1.00  0.00    -0.219 A  
HETATM   15  H   UNL     1      -9.985  11.988  66.849  1.00  0.00     0.000 HD 
HETATM   16  C   UNL     1     -10.707  11.595  68.804  1.00  0.00    -0.219 A  
HETATM   17  C   UNL     1     -10.973  10.409  69.464  1.00  0.00    -0.307 A  
BRANCH  17  18
HETATM   18  C   UNL     1     -11.541  10.279  70.853  1.00  0.00    -0.454 C  
BRANCH  18  19
HETATM   19  C   UNL     1     -13.028   9.857  70.836  1.00  0.00    -0.276 C  
BRANCH  19  20
HETATM   20  N   UNL     1     -13.416   8.828  71.825  1.00  0.00    -0.373 NA 
HETATM   21  C   UNL     1     -12.207   8.293  72.465  1.00  0.00    -0.307 C  
HETATM   22  C   UNL     1     -14.170   7.730  71.220  1.00  0.00    -0.283 C  
ENDBRANCH  19  20
ENDBRANCH  18  19
ENDBRANCH  17  18
ENDBRANCH   7   8
ENDBRANCH   4   7
ENDBRANCH   2   4
TORSDOF 6
ENDMDL
MODEL      205
REMARK 921   NORMALIZED FREE ENERGY PREDICTED BY IDOCK:   -3.42 KCAL/MOL
REMARK 922        TOTAL FREE ENERGY PREDICTED BY IDOCK:   -4.65 KCAL/MOL
REMARK 923 INTER-LIGAND FREE ENERGY PREDICTED BY IDOCK:   -4.34 KCAL/MOL
REMARK 924 INTRA-LIGAND FREE ENERGY PREDICTED BY IDOCK:   -0.31 KCAL/MOL
REMARK 927      BINDING AFFINITY PREDICTED BY RF-SCORE:    0.00 PKD
ROOT
HETATM    1  C   UNL     1      -7.844   5.366  72.367  1.00  0.00    -0.103 C  
HETATM    2  N   UNL     1      -8.259   6.681  71.863  1.00  0.00    -0.103 N  
HETATM    3  H   UNL     1      -8.111   6.951  70.891  1.00  0.00     0.000 HD 
ENDROOT
BRANCH   2   4
HETATM    4  S   UNL     1      -8.995   7.730  72.973  1.00  0.00    -0.227 S  
HETATM    5  O   UNL     1      -8.936   7.035  74.240  1.00  0.00    -0.178 OA 
HETATM    6  O   UNL     1      -8.347   9.010  72.784  1.00  0.00    -0.301 OA 
BRANCH   4   7
HETATM    7  C   UNL     1     -10.694   7.766  72.370  1.00  0.00    -0.290 C  
BRANCH   7   8
HETATM    8  C   UNL     1     -10.743   7.632  70.869  1.00  0.00    -0.243 A  
HETATM    9  C   UNL     1     -10.493   8.739  70.033  1.00  0.00    -0.222 A  
HETATM   10  C   UNL     1     -10.475   8.588  68.630  1.00  0.00    -0.200 A  
HETATM   11  C   UNL     1     -10.668   7.312  68.106  1.00  0.00    -0.134 A  
HETATM   12  C   UNL     1     -10.910   6.189  68.904  1.00  0.00    -0.406 A  
HETATM   13  N   UNL     1     -10.568   7.419  66.740  1.00  0.00    -0.503 NA 
HETATM   14  C   UNL     1     -10.947   6.373  70.290  1.00  0.00    -0.378 A  
HETATM   15  H   UNL     1     -10.661   6.642  66.087  1.00  0.00     0.000 HD 
HETATM   16  C   UNL     1     -10.326   8.715  66.380  1.00  0.00    -0.057 A  
HETATM   17  C   UNL     1     -10.292   9.487  67.528  1.00  0.00    -0.306 A  
BRANCH  17  18
HETATM   18  C   UNL     1     -10.093  10.979  67.583  1.00  0.00    -0.208 C  
BRANCH  18  19
HETATM   19  C   UNL     1      -8.616  11.378  67.371  1.00  0.00    -0.142 C  
BRANCH  19  20
HETATM   20  N   UNL     1      -7.891  11.831  68.578  1.00  0.00    -0.143 NA 
HETATM   21  C   UNL     1      -7.476  13.228  68.396  1.00  0.00    -0.124 C  
HETATM   22  C   UNL     1      -6.715  11.009  68.864  1.00  0.00    -0.074 C  
ENDBRANCH  19  20
ENDBRANCH  18  19
ENDBRANCH  17  18
ENDBRANCH   7   8
ENDBRANCH   4   7
ENDBRANCH   2   4
TORSDOF 6
ENDMDL
MODEL      206
REMARK 921   NORMALIZED FREE ENERGY PREDICTED BY IDOCK:   -3.40 KCAL/MOL
REMARK 922        TOTAL FREE ENERGY PREDICTED BY IDOCK:   -4.62 KCAL/MOL
REMARK 923 INTER-LIGAND FREE ENERGY PREDICTED BY IDOCK:   -4.19 KCAL/MOL
REMARK 924 INTRA-LIGAND FREE ENERGY PREDICTED BY IDOCK:   -0.43 KCAL/MOL
REMARK 927      BINDING AFFINITY PREDICTED BY RF-SCORE:    0.00 PKD
ROOT
HETATM    1  C   UNL     1      -9.146   7.608  72.909  1.00  0.00    -0.178 C  
HETATM    2  N   UNL     1     -10.554   8.025  72.913  1.00  0.00    -0.356 N  
HETATM    3  H   UNL     1     -11.100   8.056  73.774  1.00  0.00     0.000 HD 
ENDROOT
BRANCH   2   4
HETATM    4  S   UNL     1     -11.230   8.452  71.418  1.00  0.00    -0.277 S  
HETATM    5  O   UNL     1     -12.258   9.418  71.735  1.00  0.00    -0.353 OA 
HETATM    6  O   UNL     1     -10.109   8.795  70.570  1.00  0.00    -0.182 OA 
BRANCH   4   7
HETATM    7  C   UNL     1     -11.985   6.898  70.901  1.00  0.00    -0.381 C  
BRANCH   7   8
HETATM    8  C   UNL     1     -11.170   6.227  69.825  1.00  0.00    -0.499 A  
HETATM    9  C   UNL     1     -10.364   5.108  70.117  1.00  0.00    -0.340 A  
HETATM   10  C   UNL     1      -9.658   4.447  69.090  1.00  0.00    -0.252 A  
HETATM   11  C   UNL     1      -9.818   4.905  67.784  1.00  0.00    -0.147 A  
HETATM   12  C   UNL     1     -10.615   6.005  67.455  1.00  0.00    -0.345 A  
HETATM   13  N   UNL     1      -9.070   4.084  66.976  1.00  0.00    -0.137 NA 
HETATM   14  C   UNL     1     -11.284   6.658  68.497  1.00  0.00    -0.227 A  
HETATM   15  H   UNL     1      -8.997   4.174  65.963  1.00  0.00     0.000 HD 
HETATM   16  C   UNL     1      -8.438   3.128  67.721  1.00  0.00    -0.089 A  
HETATM   17  C   UNL     1      -8.751   3.336  69.052  1.00  0.00    -0.137 A  
BRANCH  17  18
HETATM   18  C   UNL     1      -8.233   2.534  70.217  1.00  0.00    -0.064 C  
BRANCH  18  19
HETATM   19  C   UNL     1      -7.395   3.395  71.189  1.00  0.00    -0.033 C  
BRANCH  19  20
HETATM   20  N   UNL     1      -7.657   3.179  72.629  1.00  0.00    -0.052 NA 
HETATM   21  C   UNL     1      -9.070   3.461  72.911  1.00  0.00    -0.088 C  
HETATM   22  C   UNL     1      -6.816   4.022  73.481  1.00  0.00    -0.054 C  
ENDBRANCH  19  20
ENDBRANCH  18  19
ENDBRANCH  17  18
ENDBRANCH   7   8
ENDBRANCH   4   7
ENDBRANCH   2   4
TORSDOF 6
ENDMDL
MODEL      207
REMARK 921   NORMALIZED FREE ENERGY PREDICTED BY IDOCK:   -3.39 KCAL/MOL
REMARK 922        TOTAL FREE ENERGY PREDICTED BY IDOCK:   -4.61 KCAL/MOL
REMARK 923 INTER-LIGAND FREE ENERGY PREDICTED BY IDOCK:   -4.16 KCAL/MOL
REMARK 924 INTRA-LIGAND FREE ENERGY PREDICTED BY IDOCK:   -0.45 KCAL/MOL
REMARK 927      BINDING AFFINITY PREDICTED BY RF-SCORE:    0.00 PKD
ROOT
HETATM    1  C   UNL     1      -8.530   9.441  67.833  1.00  0.00    -0.116 C  
HETATM    2  N   UNL     1      -8.979   8.103  67.429  1.00  0.00    -0.136 N  
HETATM    3  H   UNL     1      -9.909   7.945  67.042  1.00  0.00     0.000 HD 
ENDROOT
BRANCH   2   4
HETATM    4  S   UNL     1      -7.877   6.831  67.637  1.00  0.00    -0.113 S  
HETATM    5  O   UNL     1      -8.690   5.636  67.682  1.00  0.00    -0.109 OA 
HETATM    6  O   UNL     1      -6.871   7.019  66.614  1.00  0.00    -0.063 OA 
BRANCH   4   7
HETATM    7  C   UNL     1      -7.213   7.186  69.275  1.00  0.00    -0.085 C  
BRANCH   7   8
HETATM    8  C   UNL     1      -8.006   6.484  70.349  1.00  0.00    -0.115 A  
HETATM    9  C   UNL     1      -9.368   6.781  70.557  1.00  0.00    -0.162 A  
HETATM   10  C   UNL     1     -10.117   6.072  71.518  1.00  0.00    -0.232 A  
HETATM   11  C   UNL     1      -9.483   5.047  72.218  1.00  0.00    -0.139 A  
HETATM   12  C   UNL     1      -8.137   4.718  72.033  1.00  0.00    -0.106 A  
HETATM   13  N   UNL     1     -10.420   4.491  73.054  1.00  0.00    -0.183 NA 
HETATM   14  C   UNL     1      -7.411   5.455  71.090  1.00  0.00    -0.085 A  
HETATM   15  H   UNL     1     -10.245   3.713  73.688  1.00  0.00     0.000 HD 
HETATM   16  C   UNL     1     -11.621   5.129  72.915  1.00  0.00    -0.205 A  
HETATM   17  C   UNL     1     -11.470   6.145  71.989  1.00  0.00    -0.366 A  
BRANCH  17  18
HETATM   18  C   UNL     1     -12.536   7.123  71.568  1.00  0.00    -0.418 C  
BRANCH  18  19
HETATM   19  C   UNL     1     -12.277   8.541  72.122  1.00  0.00    -0.382 C  
BRANCH  19  20
HETATM   20  N   UNL     1     -12.473   9.652  71.166  1.00  0.00    -0.324 NA 
HETATM   21  C   UNL     1     -11.168  10.067  70.634  1.00  0.00    -0.350 C  
HETATM   22  C   UNL     1     -13.135  10.805  71.778  1.00  0.00    -0.468 C  
ENDBRANCH  19  20
ENDBRANCH  18  19
ENDBRANCH  17  18
ENDBRANCH   7   8
ENDBRANCH   4   7
ENDBRANCH   2   4
TORSDOF 6
ENDMDL
MODEL      208
REMARK 921   NORMALIZED FREE ENERGY PREDICTED BY IDOCK:   -3.30 KCAL/MOL
REMARK 922        TOTAL FREE ENERGY PREDICTED BY IDOCK:   -4.48 KCAL/MOL
REMARK 923 INTER-LIGAND FREE ENERGY PREDICTED BY IDOCK:   -4.26 KCAL/MOL
REMARK 924 INTRA-LIGAND FREE ENERGY PREDICTED BY IDOCK:   -0.23 KCAL/MOL
REMARK 927      BINDING AFFINITY PREDICTED BY RF-SCORE:    0.00 PKD
ROOT
HETATM    1  C   UNL     1      -8.624   8.889  62.330  1.00  0.00    -0.208 C  
HETATM    2  N   UNL     1      -8.292   9.019  63.754  1.00  0.00    -0.181 N  
HETATM    3  H   UNL     1      -8.944   8.733  64.484  1.00  0.00     0.000 HD 
ENDROOT
BRANCH   2   4
HETATM    4  S   UNL     1      -6.772   9.669  64.130  1.00  0.00    -0.118 S  
HETATM    5  O   UNL     1      -5.826   8.627  63.795  1.00  0.00    -0.070 OA 
HETATM    6  O   UNL     1      -6.731  10.961  63.479  1.00  0.00     0.216 OA 
BRANCH   4   7
HETATM    7  C   UNL     1      -6.882   9.847  65.921  1.00  0.00    -0.101 C  
BRANCH   7   8
HETATM    8  C   UNL     1      -8.223  10.400  66.332  1.00  0.00    -0.141 A  
HETATM    9  C   UNL     1      -8.530  11.764  66.156  1.00  0.00     0.048 A  
HETATM   10  C   UNL     1      -9.810  12.259  66.482  1.00  0.00    -0.240 A  
HETATM   11  C   UNL     1     -10.765  11.353  66.939  1.00  0.00    -0.265 A  
HETATM   12  C   UNL     1     -10.500   9.992  67.118  1.00  0.00    -0.305 A  
HETATM   13  N   UNL     1     -11.923  12.062  67.147  1.00  0.00    -0.598 NA 
HETATM   14  C   UNL     1      -9.215   9.534  66.810  1.00  0.00    -0.184 A  
HETATM   15  H   UNL     1     -12.800  11.660  67.479  1.00  0.00     0.000 HD 
HETATM   16  C   UNL     1     -11.736  13.382  66.846  1.00  0.00    -0.389 A  
HETATM   17  C   UNL     1     -10.420  13.556  66.456  1.00  0.00    -0.284 A  
BRANCH  17  18
HETATM   18  C   UNL     1      -9.777  14.865  66.078  1.00  0.00    -0.358 C  
BRANCH  18  19
HETATM   19  C   UNL     1     -10.407  16.060  66.828  1.00  0.00    -0.300 C  
BRANCH  19  20
HETATM   20  N   UNL     1      -9.614  16.606  67.951  1.00  0.00    -0.231 NA 
HETATM   21  C   UNL     1     -10.078  17.966  68.254  1.00  0.00    -0.375 C  
HETATM   22  C   UNL     1      -8.181  16.637  67.658  1.00  0.00    -0.172 C  
ENDBRANCH  19  20
ENDBRANCH  18  19
ENDBRANCH  17  18
ENDBRANCH   7   8
ENDBRANCH   4   7
ENDBRANCH   2   4
TORSDOF 6
ENDMDL
MODEL      209
REMARK 921   NORMALIZED FREE ENERGY PREDICTED BY IDOCK:   -3.28 KCAL/MOL
REMARK 922        TOTAL FREE ENERGY PREDICTED BY IDOCK:   -4.46 KCAL/MOL
REMARK 923 INTER-LIGAND FREE ENERGY PREDICTED BY IDOCK:   -5.29 KCAL/MOL
REMARK 924 INTRA-LIGAND FREE ENERGY PREDICTED BY IDOCK:    0.83 KCAL/MOL
REMARK 927      BINDING AFFINITY PREDICTED BY RF-SCORE:    0.00 PKD
ROOT
HETATM    1  C   UNL     1     -12.206  16.187  72.923  1.00  0.00    -0.541 C  
HETATM    2  N   UNL     1     -11.880  14.917  72.261  1.00  0.00    -0.324 N  
HETATM    3  H   UNL     1     -10.936  14.532  72.279  1.00  0.00     0.000 HD 
ENDROOT
BRANCH   2   4
HETATM    4  S   UNL     1     -13.147  14.121  71.466  1.00  0.00    -0.368 S  
HETATM    5  O   UNL     1     -14.289  14.265  72.343  1.00  0.00    -0.551 OA 
HETATM    6  O   UNL     1     -13.158  14.655  70.121  1.00  0.00    -0.156 OA 
BRANCH   4   7
HETATM    7  C   UNL     1     -12.572  12.412  71.481  1.00  0.00    -0.144 C  
BRANCH   7   8
HETATM    8  C   UNL     1     -11.835  12.073  70.210  1.00  0.00    -0.356 A  
HETATM    9  C   UNL     1     -11.415  10.754  69.945  1.00  0.00    -0.398 A  
HETATM   10  C   UNL     1     -10.787  10.434  68.724  1.00  0.00    -0.269 A  
HETATM   11  C   UNL     1     -10.635  11.447  67.780  1.00  0.00    -0.195 A  
HETATM   12  C   UNL     1     -11.047  12.765  68.003  1.00  0.00    -0.284 A  
HETATM   13  N   UNL     1     -10.041  10.884  66.677  1.00  0.00    -0.211 NA 
HETATM   14  C   UNL     1     -11.645  13.058  69.233  1.00  0.00    -0.367 A  
HETATM   15  H   UNL     1      -9.809  11.386  65.821  1.00  0.00     0.000 HD 
HETATM   16  C   UNL     1      -9.803   9.555  66.890  1.00  0.00    -0.204 A  
HETATM   17  C   UNL     1     -10.225   9.237  68.169  1.00  0.00    -0.246 A  
BRANCH  17  18
HETATM   18  C   UNL     1     -10.110   7.886  68.827  1.00  0.00    -0.203 C  
BRANCH  18  19
HETATM   19  C   UNL     1      -8.639   7.478  69.063  1.00  0.00    -0.136 C  
BRANCH  19  20
HETATM   20  N   UNL     1      -8.024   7.980  70.312  1.00  0.00    -0.102 NA 
HETATM   21  C   UNL     1      -9.030   7.973  71.382  1.00  0.00    -0.141 C  
HETATM   22  C   UNL     1      -7.484   9.332  70.163  1.00  0.00    -0.098 C  
ENDBRANCH  19  20
ENDBRANCH  18  19
ENDBRANCH  17  18
ENDBRANCH   7   8
ENDBRANCH   4   7
ENDBRANCH   2   4
TORSDOF 6
ENDMDL
MODEL      210
REMARK 921   NORMALIZED FREE ENERGY PREDICTED BY IDOCK:   -3.27 KCAL/MOL
REMARK 922        TOTAL FREE ENERGY PREDICTED BY IDOCK:   -4.45 KCAL/MOL
REMARK 923 INTER-LIGAND FREE ENERGY PREDICTED BY IDOCK:   -4.88 KCAL/MOL
REMARK 924 INTRA-LIGAND FREE ENERGY PREDICTED BY IDOCK:    0.42 KCAL/MOL
REMARK 927      BINDING AFFINITY PREDICTED BY RF-SCORE:    0.00 PKD
ROOT
HETATM    1  C   UNL     1     -10.140  19.995  69.306  1.00  0.00    -0.116 C  
HETATM    2  N   UNL     1     -10.519  18.978  68.316  1.00  0.00    -0.385 N  
HETATM    3  H   UNL     1     -11.159  18.219  68.547  1.00  0.00     0.000 HD 
ENDROOT
BRANCH   2   4
HETATM    4  S   UNL     1      -9.843  19.127  66.768  1.00  0.00    -0.369 S  
HETATM    5  O   UNL     1     -10.247  17.928  66.067  1.00  0.00    -0.471 OA 
HETATM    6  O   UNL     1     -10.230  20.441  66.301  1.00  0.00    -0.369 OA 
BRANCH   4   7
HETATM    7  C   UNL     1      -8.078  19.060  67.133  1.00  0.00    -0.264 C  
BRANCH   7   8
HETATM    8  C   UNL     1      -7.654  17.667  67.523  1.00  0.00    -0.210 A  
HETATM    9  C   UNL     1      -8.544  16.580  67.415  1.00  0.00    -0.193 A  
HETATM   10  C   UNL     1      -8.117  15.270  67.718  1.00  0.00    -0.158 A  
HETATM   11  C   UNL     1      -6.785  15.083  68.082  1.00  0.00    -0.128 A  
HETATM   12  C   UNL     1      -5.870  16.135  68.191  1.00  0.00    -0.114 A  
HETATM   13  N   UNL     1      -6.610  13.737  68.285  1.00  0.00    -0.096 NA 
HETATM   14  C   UNL     1      -6.329  17.427  67.909  1.00  0.00    -0.160 A  
HETATM   15  H   UNL     1      -5.730  13.299  68.558  1.00  0.00     0.000 HD 
HETATM   16  C   UNL     1      -7.780  13.065  68.071  1.00  0.00    -0.145 A  
HETATM   17  C   UNL     1      -8.758  13.988  67.745  1.00  0.00    -0.185 A  
BRANCH  17  18
HETATM   18  C   UNL     1     -10.207  13.680  67.470  1.00  0.00    -0.241 C  
BRANCH  18  19
HETATM   19  C   UNL     1     -10.973  13.292  68.754  1.00  0.00    -0.260 C  
BRANCH  19  20
HETATM   20  N   UNL     1     -11.265  14.401  69.689  1.00  0.00    -0.249 NA 
HETATM   21  C   UNL     1     -12.266  13.956  70.668  1.00  0.00    -0.373 C  
HETATM   22  C   UNL     1     -11.758  15.595  69.001  1.00  0.00    -0.395 C  
ENDBRANCH  19  20
ENDBRANCH  18  19
ENDBRANCH  17  18
ENDBRANCH   7   8
ENDBRANCH   4   7
ENDBRANCH   2   4
TORSDOF 6
ENDMDL
MODEL      211
REMARK 921   NORMALIZED FREE ENERGY PREDICTED BY IDOCK:   -3.24 KCAL/MOL
REMARK 922        TOTAL FREE ENERGY PREDICTED BY IDOCK:   -4.42 KCAL/MOL
REMARK 923 INTER-LIGAND FREE ENERGY PREDICTED BY IDOCK:   -5.49 KCAL/MOL
REMARK 924 INTRA-LIGAND FREE ENERGY PREDICTED BY IDOCK:    1.07 KCAL/MOL
REMARK 927      BINDING AFFINITY PREDICTED BY RF-SCORE:    0.00 PKD
ROOT
HETATM    1  C   UNL     1      -5.575  13.982  71.389  1.00  0.00    -0.232 C  
HETATM    2  N   UNL     1      -6.574  13.979  70.313  1.00  0.00    -0.396 N  
HETATM    3  H   UNL     1      -7.456  14.483  70.401  1.00  0.00     0.000 HD 
ENDROOT
BRANCH   2   4
HETATM    4  S   UNL     1      -6.191  13.100  68.915  1.00  0.00    -0.095 S  
HETATM    5  O   UNL     1      -5.401  14.004  68.109  1.00  0.00    -0.105 OA 
HETATM    6  O   UNL     1      -5.652  11.841  69.385  1.00  0.00    -0.056 OA 
BRANCH   4   7
HETATM    7  C   UNL     1      -7.817  12.872  68.169  1.00  0.00    -0.147 C  
BRANCH   7   8
HETATM    8  C   UNL     1      -8.264  14.117  67.446  1.00  0.00    -0.207 A  
HETATM    9  C   UNL     1      -9.391  14.100  66.600  1.00  0.00    -0.299 A  
HETATM   10  C   UNL     1      -9.841  15.284  65.981  1.00  0.00    -0.357 A  
HETATM   11  C   UNL     1      -9.166  16.470  66.265  1.00  0.00    -0.310 A  
HETATM   12  C   UNL     1      -8.050  16.528  67.106  1.00  0.00    -0.213 A  
HETATM   13  N   UNL     1      -9.810  17.473  65.583  1.00  0.00    -0.534 NA 
HETATM   14  C   UNL     1      -7.611  15.333  67.687  1.00  0.00    -0.193 A  
HETATM   15  H   UNL     1      -9.542  18.456  65.604  1.00  0.00     0.000 HD 
HETATM   16  C   UNL     1     -10.862  16.967  64.872  1.00  0.00     0.003 A  
HETATM   17  C   UNL     1     -10.900  15.597  65.065  1.00  0.00    -0.468 A  
BRANCH  17  18
HETATM   18  C   UNL     1     -11.877  14.642  64.431  1.00  0.00    -0.405 C  
BRANCH  18  19
HETATM   19  C   UNL     1     -11.960  13.302  65.195  1.00  0.00    -0.381 C  
BRANCH  19  20
HETATM   20  N   UNL     1     -11.684  12.088  64.397  1.00  0.00    -0.338 NA 
HETATM   21  C   UNL     1     -10.443  12.283  63.636  1.00  0.00    -0.450 C  
HETATM   22  C   UNL     1     -12.773  11.767  63.475  1.00  0.00    -0.306 C  
ENDBRANCH  19  20
ENDBRANCH  18  19
ENDBRANCH  17  18
ENDBRANCH   7   8
ENDBRANCH   4   7
ENDBRANCH   2   4
TORSDOF 6
ENDMDL
MODEL      212
REMARK 921   NORMALIZED FREE ENERGY PREDICTED BY IDOCK:   -3.24 KCAL/MOL
REMARK 922        TOTAL FREE ENERGY PREDICTED BY IDOCK:   -4.41 KCAL/MOL
REMARK 923 INTER-LIGAND FREE ENERGY PREDICTED BY IDOCK:   -4.04 KCAL/MOL
REMARK 924 INTRA-LIGAND FREE ENERGY PREDICTED BY IDOCK:   -0.37 KCAL/MOL
REMARK 927      BINDING AFFINITY PREDICTED BY RF-SCORE:    0.00 PKD
ROOT
HETATM    1  C   UNL     1      -7.370   4.267  72.675  1.00  0.00    -0.073 C  
HETATM    2  N   UNL     1      -8.156   5.500  72.546  1.00  0.00    -0.103 N  
HETATM    3  H   UNL     1      -7.944   6.198  71.833  1.00  0.00     0.000 HD 
ENDROOT
BRANCH   2   4
HETATM    4  S   UNL     1      -9.435   5.710  73.639  1.00  0.00    -0.141 S  
HETATM    5  O   UNL     1      -9.529   4.455  74.351  1.00  0.00    -0.108 OA 
HETATM    6  O   UNL     1      -9.154   6.950  74.331  1.00  0.00    -0.187 OA 
BRANCH   4   7
HETATM    7  C   UNL     1     -10.842   5.892  72.526  1.00  0.00    -0.247 C  
BRANCH   7   8
HETATM    8  C   UNL     1     -10.830   7.239  71.848  1.00  0.00    -0.255 A  
HETATM    9  C   UNL     1     -10.266   7.402  70.567  1.00  0.00    -0.196 A  
HETATM   10  C   UNL     1     -10.320   8.651  69.914  1.00  0.00    -0.213 A  
HETATM   11  C   UNL     1     -10.984   9.696  70.552  1.00  0.00    -0.313 A  
HETATM   12  C   UNL     1     -11.563   9.570  71.819  1.00  0.00    -0.382 A  
HETATM   13  N   UNL     1     -10.934  10.779  69.708  1.00  0.00    -0.326 NA 
HETATM   14  C   UNL     1     -11.472   8.327  72.454  1.00  0.00    -0.463 A  
HETATM   15  H   UNL     1     -11.343  11.691  69.908  1.00  0.00     0.000 HD 
HETATM   16  C   UNL     1     -10.259  10.460  68.563  1.00  0.00    -0.173 A  
HETATM   17  C   UNL     1      -9.830   9.149  68.662  1.00  0.00    -0.175 A  
BRANCH  17  18
HETATM   18  C   UNL     1      -9.011   8.409  67.637  1.00  0.00    -0.141 C  
BRANCH  18  19
HETATM   19  C   UNL     1      -9.864   7.411  66.821  1.00  0.00    -0.220 C  
BRANCH  19  20
HETATM   20  N   UNL     1      -9.118   6.542  65.884  1.00  0.00    -0.095 NA 
HETATM   21  C   UNL     1      -8.853   5.251  66.531  1.00  0.00    -0.116 C  
HETATM   22  C   UNL     1      -7.852   7.140  65.458  1.00  0.00    -0.115 C  
ENDBRANCH  19  20
ENDBRANCH  18  19
ENDBRANCH  17  18
ENDBRANCH   7   8
ENDBRANCH   4   7
ENDBRANCH   2   4
TORSDOF 6
ENDMDL
MODEL      213
REMARK 921   NORMALIZED FREE ENERGY PREDICTED BY IDOCK:   -3.24 KCAL/MOL
REMARK 922        TOTAL FREE ENERGY PREDICTED BY IDOCK:   -4.41 KCAL/MOL
REMARK 923 INTER-LIGAND FREE ENERGY PREDICTED BY IDOCK:   -3.98 KCAL/MOL
REMARK 924 INTRA-LIGAND FREE ENERGY PREDICTED BY IDOCK:   -0.43 KCAL/MOL
REMARK 927      BINDING AFFINITY PREDICTED BY RF-SCORE:    0.00 PKD
ROOT
HETATM    1  C   UNL     1     -14.104   8.444  71.628  1.00  0.00    -0.419 C  
HETATM    2  N   UNL     1     -13.190   8.604  72.766  1.00  0.00    -0.658 N  
HETATM    3  H   UNL     1     -13.494   9.036  73.638  1.00  0.00     0.000 HD 
ENDROOT
BRANCH   2   4
HETATM    4  S   UNL     1     -11.606   8.035  72.562  1.00  0.00    -0.380 S  
HETATM    5  O   UNL     1     -10.950   9.039  71.753  1.00  0.00    -0.335 OA 
HETATM    6  O   UNL     1     -11.136   7.714  73.893  1.00  0.00     0.045 OA 
BRANCH   4   7
HETATM    7  C   UNL     1     -11.876   6.541  71.590  1.00  0.00    -0.333 C  
BRANCH   7   8
HETATM    8  C   UNL     1     -10.654   5.658  71.596  1.00  0.00    -0.301 A  
HETATM    9  C   UNL     1      -9.660   5.788  70.606  1.00  0.00    -0.214 A  
HETATM   10  C   UNL     1      -8.489   5.003  70.658  1.00  0.00    -0.111 A  
HETATM   11  C   UNL     1      -8.329   4.136  71.737  1.00  0.00    -0.095 A  
HETATM   12  C   UNL     1      -9.289   3.986  72.743  1.00  0.00    -0.150 A  
HETATM   13  N   UNL     1      -7.110   3.523  71.583  1.00  0.00    -0.034 NA 
HETATM   14  C   UNL     1     -10.452   4.759  72.651  1.00  0.00    -0.260 A  
HETATM   15  H   UNL     1      -6.718   2.836  72.227  1.00  0.00     0.000 HD 
HETATM   16  C   UNL     1      -6.494   3.965  70.445  1.00  0.00    -0.031 A  
HETATM   17  C   UNL     1      -7.334   4.868  69.818  1.00  0.00    -0.056 A  
BRANCH  17  18
HETATM   18  C   UNL     1      -7.064   5.564  68.511  1.00  0.00    -0.066 C  
BRANCH  18  19
HETATM   19  C   UNL     1      -7.730   4.843  67.318  1.00  0.00    -0.091 C  
BRANCH  19  20
HETATM   20  N   UNL     1      -8.928   5.502  66.754  1.00  0.00    -0.113 NA 
HETATM   21  C   UNL     1      -9.809   4.483  66.169  1.00  0.00    -0.230 C  
HETATM   22  C   UNL     1      -8.590   6.495  65.734  1.00  0.00    -0.144 C  
ENDBRANCH  19  20
ENDBRANCH  18  19
ENDBRANCH  17  18
ENDBRANCH   7   8
ENDBRANCH   4   7
ENDBRANCH   2   4
TORSDOF 6
ENDMDL
MODEL      214
REMARK 921   NORMALIZED FREE ENERGY PREDICTED BY IDOCK:   -3.21 KCAL/MOL
REMARK 922        TOTAL FREE ENERGY PREDICTED BY IDOCK:   -4.36 KCAL/MOL
REMARK 923 INTER-LIGAND FREE ENERGY PREDICTED BY IDOCK:   -3.91 KCAL/MOL
REMARK 924 INTRA-LIGAND FREE ENERGY PREDICTED BY IDOCK:   -0.45 KCAL/MOL
REMARK 927      BINDING AFFINITY PREDICTED BY RF-SCORE:    0.00 PKD
ROOT
HETATM    1  C   UNL     1      -8.072   6.607  68.913  1.00  0.00    -0.116 C  
HETATM    2  N   UNL     1      -7.796   7.266  70.196  1.00  0.00    -0.098 N  
HETATM    3  H   UNL     1      -7.614   6.730  71.044  1.00  0.00     0.000 HD 
ENDROOT
BRANCH   2   4
HETATM    4  S   UNL     1      -7.794   8.961  70.201  1.00  0.00    -0.110 S  
HETATM    5  O   UNL     1      -8.870   9.334  71.092  1.00  0.00    -0.257 OA 
HETATM    6  O   UNL     1      -6.425   9.346  70.471  1.00  0.00    -0.059 OA 
BRANCH   4   7
HETATM    7  C   UNL     1      -8.250   9.333  68.497  1.00  0.00    -0.114 C  
BRANCH   7   8
HETATM    8  C   UNL     1      -9.328  10.385  68.438  1.00  0.00    -0.150 A  
HETATM    9  C   UNL     1      -9.020  11.750  68.603  1.00  0.00    -0.069 A  
HETATM   10  C   UNL     1     -10.025  12.732  68.479  1.00  0.00    -0.168 A  
HETATM   11  C   UNL     1     -11.312  12.314  68.147  1.00  0.00    -0.295 A  
HETATM   12  C   UNL     1     -11.654  10.970  67.967  1.00  0.00    -0.326 A  
HETATM   13  N   UNL     1     -12.088  13.443  68.048  1.00  0.00    -0.313 NA 
HETATM   14  C   UNL     1     -10.642  10.016  68.121  1.00  0.00    -0.268 A  
HETATM   15  H   UNL     1     -13.080  13.448  67.811  1.00  0.00     0.000 HD 
HETATM   16  C   UNL     1     -11.344  14.558  68.311  1.00  0.00    -0.297 A  
HETATM   17  C   UNL     1     -10.055  14.159  68.617  1.00  0.00    -0.229 A  
BRANCH  17  18
HETATM   18  C   UNL     1      -8.919  15.067  69.010  1.00  0.00    -0.205 C  
BRANCH  18  19
HETATM   19  C   UNL     1      -8.181  15.642  67.780  1.00  0.00    -0.145 C  
BRANCH  19  20
HETATM   20  N   UNL     1      -8.748  16.884  67.212  1.00  0.00    -0.191 NA 
HETATM   21  C   UNL     1      -9.482  16.562  65.981  1.00  0.00    -0.282 C  
HETATM   22  C   UNL     1      -7.719  17.881  66.915  1.00  0.00    -0.219 C  
ENDBRANCH  19  20
ENDBRANCH  18  19
ENDBRANCH  17  18
ENDBRANCH   7   8
ENDBRANCH   4   7
ENDBRANCH   2   4
TORSDOF 6
ENDMDL
MODEL      215
REMARK 921   NORMALIZED FREE ENERGY PREDICTED BY IDOCK:   -3.18 KCAL/MOL
REMARK 922        TOTAL FREE ENERGY PREDICTED BY IDOCK:   -4.32 KCAL/MOL
REMARK 923 INTER-LIGAND FREE ENERGY PREDICTED BY IDOCK:   -3.79 KCAL/MOL
REMARK 924 INTRA-LIGAND FREE ENERGY PREDICTED BY IDOCK:   -0.54 KCAL/MOL
REMARK 927      BINDING AFFINITY PREDICTED BY RF-SCORE:    0.00 PKD
ROOT
HETATM    1  C   UNL     1     -12.035   8.497  72.417  1.00  0.00    -0.364 C  
HETATM    2  N   UNL     1     -10.851   7.631  72.464  1.00  0.00    -0.284 N  
HETATM    3  H   UNL     1     -10.653   7.038  73.270  1.00  0.00     0.000 HD 
ENDROOT
BRANCH   2   4
HETATM    4  S   UNL     1      -9.826   7.661  71.114  1.00  0.00    -0.172 S  
HETATM    5  O   UNL     1      -9.288   9.003  71.083  1.00  0.00    -0.235 OA 
HETATM    6  O   UNL     1      -8.965   6.507  71.255  1.00  0.00    -0.141 OA 
BRANCH   4   7
HETATM    7  C   UNL     1     -10.997   7.438  69.761  1.00  0.00    -0.200 C  
BRANCH   7   8
HETATM    8  C   UNL     1     -10.435   7.958  68.462  1.00  0.00    -0.202 A  
HETATM    9  C   UNL     1      -9.564   7.172  67.682  1.00  0.00    -0.152 A  
HETATM   10  C   UNL     1      -9.097   7.640  66.436  1.00  0.00    -0.214 A  
HETATM   11  C   UNL     1      -9.558   8.876  65.986  1.00  0.00    -0.250 A  
HETATM   12  C   UNL     1     -10.429   9.680  66.728  1.00  0.00    -0.257 A  
HETATM   13  N   UNL     1      -8.999   9.088  64.750  1.00  0.00    -0.401 NA 
HETATM   14  C   UNL     1     -10.856   9.201  67.971  1.00  0.00    -0.135 A  
HETATM   15  H   UNL     1      -9.159   9.913  64.172  1.00  0.00     0.000 HD 
HETATM   16  C   UNL     1      -8.197   8.037  64.403  1.00  0.00    -0.081 A  
HETATM   17  C   UNL     1      -8.203   7.123  65.441  1.00  0.00    -0.137 A  
BRANCH  17  18
HETATM   18  C   UNL     1      -7.419   5.838  65.491  1.00  0.00    -0.077 C  
BRANCH  18  19
HETATM   19  C   UNL     1      -8.314   4.601  65.255  1.00  0.00    -0.124 C  
BRANCH  19  20
HETATM   20  N   UNL     1      -8.107   3.469  66.185  1.00  0.00    -0.092 NA 
HETATM   21  C   UNL     1      -8.047   2.218  65.418  1.00  0.00    -0.080 C  
HETATM   22  C   UNL     1      -9.166   3.372  67.190  1.00  0.00    -0.191 C  
ENDBRANCH  19  20
ENDBRANCH  18  19
ENDBRANCH  17  18
ENDBRANCH   7   8
ENDBRANCH   4   7
ENDBRANCH   2   4
TORSDOF 6
ENDMDL
MODEL      216
REMARK 921   NORMALIZED FREE ENERGY PREDICTED BY IDOCK:   -3.17 KCAL/MOL
REMARK 922        TOTAL FREE ENERGY PREDICTED BY IDOCK:   -4.32 KCAL/MOL
REMARK 923 INTER-LIGAND FREE ENERGY PREDICTED BY IDOCK:   -3.88 KCAL/MOL
REMARK 924 INTRA-LIGAND FREE ENERGY PREDICTED BY IDOCK:   -0.44 KCAL/MOL
REMARK 927      BINDING AFFINITY PREDICTED BY RF-SCORE:    0.00 PKD
ROOT
HETATM    1  C   UNL     1     -10.999   6.124  68.750  1.00  0.00    -0.348 C  
HETATM    2  N   UNL     1     -11.339   6.832  67.509  1.00  0.00    -0.707 N  
HETATM    3  H   UNL     1     -12.164   6.586  66.962  1.00  0.00     0.000 HD 
ENDROOT
BRANCH   2   4
HETATM    4  S   UNL     1     -10.295   8.078  67.028  1.00  0.00    -0.340 S  
HETATM    5  O   UNL     1      -9.242   7.419  66.287  1.00  0.00    -0.169 OA 
HETATM    6  O   UNL     1     -11.143   9.075  66.408  1.00  0.00     0.495 OA 
BRANCH   4   7
HETATM    7  C   UNL     1      -9.662   8.658  68.613  1.00  0.00    -0.163 C  
BRANCH   7   8
HETATM    8  C   UNL     1      -8.787   9.873  68.439  1.00  0.00    -0.120 A  
HETATM    9  C   UNL     1      -9.331  11.172  68.489  1.00  0.00    -0.190 A  
HETATM   10  C   UNL     1      -8.494  12.304  68.392  1.00  0.00    -0.138 A  
HETATM   11  C   UNL     1      -7.120  12.096  68.292  1.00  0.00    -0.084 A  
HETATM   12  C   UNL     1      -6.543  10.823  68.249  1.00  0.00    -0.058 A  
HETATM   13  N   UNL     1      -6.528  13.335  68.252  1.00  0.00    -0.087 NA 
HETATM   14  C   UNL     1      -7.400   9.719  68.321  1.00  0.00    -0.079 A  
HETATM   15  H   UNL     1      -5.524  13.498  68.185  1.00  0.00     0.000 HD 
HETATM   16  C   UNL     1      -7.475  14.318  68.317  1.00  0.00    -0.125 A  
HETATM   17  C   UNL     1      -8.721  13.720  68.373  1.00  0.00    -0.162 A  
BRANCH  17  18
HETATM   18  C   UNL     1     -10.045  14.438  68.412  1.00  0.00    -0.244 C  
BRANCH  18  19
HETATM   19  C   UNL     1     -10.992  13.973  67.283  1.00  0.00    -0.295 C  
BRANCH  19  20
HETATM   20  N   UNL     1     -11.038  14.839  66.085  1.00  0.00    -0.336 NA 
HETATM   21  C   UNL     1     -10.318  14.182  64.987  1.00  0.00    -0.418 C  
HETATM   22  C   UNL     1     -10.452  16.158  66.327  1.00  0.00    -0.315 C  
ENDBRANCH  19  20
ENDBRANCH  18  19
ENDBRANCH  17  18
ENDBRANCH   7   8
ENDBRANCH   4   7
ENDBRANCH   2   4
TORSDOF 6
ENDMDL
MODEL      217
REMARK 921   NORMALIZED FREE ENERGY PREDICTED BY IDOCK:   -3.14 KCAL/MOL
REMARK 922        TOTAL FREE ENERGY PREDICTED BY IDOCK:   -4.27 KCAL/MOL
REMARK 923 INTER-LIGAND FREE ENERGY PREDICTED BY IDOCK:   -3.81 KCAL/MOL
REMARK 924 INTRA-LIGAND FREE ENERGY PREDICTED BY IDOCK:   -0.47 KCAL/MOL
REMARK 927      BINDING AFFINITY PREDICTED BY RF-SCORE:    0.00 PKD
ROOT
HETATM    1  C   UNL     1      -8.196   7.711  67.366  1.00  0.00    -0.116 C  
HETATM    2  N   UNL     1      -7.909   8.263  68.696  1.00  0.00    -0.118 N  
HETATM    3  H   UNL     1      -7.720   7.660  69.496  1.00  0.00     0.000 HD 
ENDROOT
BRANCH   2   4
HETATM    4  S   UNL     1      -7.905   9.952  68.839  1.00  0.00    -0.097 S  
HETATM    5  O   UNL     1      -9.170  10.278  69.462  1.00  0.00    -0.208 OA 
HETATM    6  O   UNL     1      -6.646  10.285  69.471  1.00  0.00    -0.050 OA 
BRANCH   4   7
HETATM    7  C   UNL     1      -7.921  10.466  67.111  1.00  0.00    -0.115 C  
BRANCH   7   8
HETATM    8  C   UNL     1      -8.710  11.738  66.927  1.00  0.00    -0.189 A  
HETATM    9  C   UNL     1      -8.357  12.917  67.613  1.00  0.00    -0.176 A  
HETATM   10  C   UNL     1      -9.060  14.118  67.383  1.00  0.00    -0.199 A  
HETATM   11  C   UNL     1     -10.077  14.110  66.431  1.00  0.00    -0.293 A  
HETATM   12  C   UNL     1     -10.450  12.962  65.725  1.00  0.00    -0.293 A  
HETATM   13  N   UNL     1     -10.574  15.388  66.363  1.00  0.00    -0.302 NA 
HETATM   14  C   UNL     1      -9.752  11.779  65.992  1.00  0.00    -0.254 A  
HETATM   15  H   UNL     1     -11.328  15.687  65.746  1.00  0.00     0.000 HD 
HETATM   16  C   UNL     1      -9.915  16.204  67.240  1.00  0.00    -0.248 A  
HETATM   17  C   UNL     1      -8.981  15.445  67.922  1.00  0.00    -0.173 A  
BRANCH  17  18
HETATM   18  C   UNL     1      -8.066  15.940  69.012  1.00  0.00    -0.229 C  
BRANCH  18  19
HETATM   19  C   UNL     1      -6.767  16.554  68.446  1.00  0.00    -0.143 C  
BRANCH  19  20
HETATM   20  N   UNL     1      -6.708  18.032  68.426  1.00  0.00    -0.210 NA 
HETATM   21  C   UNL     1      -6.861  18.502  67.043  1.00  0.00    -0.194 C  
HETATM   22  C   UNL     1      -5.455  18.548  68.977  1.00  0.00    -0.200 C  
ENDBRANCH  19  20
ENDBRANCH  18  19
ENDBRANCH  17  18
ENDBRANCH   7   8
ENDBRANCH   4   7
ENDBRANCH   2   4
TORSDOF 6
ENDMDL
MODEL      218
REMARK 921   NORMALIZED FREE ENERGY PREDICTED BY IDOCK:   -3.13 KCAL/MOL
REMARK 922        TOTAL FREE ENERGY PREDICTED BY IDOCK:   -4.26 KCAL/MOL
REMARK 923 INTER-LIGAND FREE ENERGY PREDICTED BY IDOCK:   -3.74 KCAL/MOL
REMARK 924 INTRA-LIGAND FREE ENERGY PREDICTED BY IDOCK:   -0.52 KCAL/MOL
REMARK 927      BINDING AFFINITY PREDICTED BY RF-SCORE:    0.00 PKD
ROOT
HETATM    1  C   UNL     1      -6.858   1.486  73.416  1.00  0.00    -0.018 C  
HETATM    2  N   UNL     1      -6.724   1.652  71.963  1.00  0.00    -0.018 N  
HETATM    3  H   UNL     1      -6.265   0.949  71.384  1.00  0.00     0.000 HD 
ENDROOT
BRANCH   2   4
HETATM    4  S   UNL     1      -7.369   3.069  71.291  1.00  0.00    -0.033 S  
HETATM    5  O   UNL     1      -7.676   3.914  72.424  1.00  0.00    -0.068 OA 
HETATM    6  O   UNL     1      -6.422   3.483  70.277  1.00  0.00    -0.030 OA 
BRANCH   4   7
HETATM    7  C   UNL     1      -8.894   2.460  70.547  1.00  0.00    -0.078 C  
BRANCH   7   8
HETATM    8  C   UNL     1      -9.389   3.396  69.474  1.00  0.00    -0.240 A  
HETATM    9  C   UNL     1      -9.874   4.679  69.798  1.00  0.00    -0.296 A  
HETATM   10  C   UNL     1     -10.272   5.573  68.782  1.00  0.00    -0.270 A  
HETATM   11  C   UNL     1     -10.131   5.164  67.458  1.00  0.00    -0.167 A  
HETATM   12  C   UNL     1      -9.646   3.902  67.097  1.00  0.00    -0.226 A  
HETATM   13  N   UNL     1     -10.544   6.209  66.668  1.00  0.00    -0.445 NA 
HETATM   14  C   UNL     1      -9.282   3.028  68.127  1.00  0.00    -0.248 A  
HETATM   15  H   UNL     1     -10.548   6.201  65.648  1.00  0.00     0.000 HD 
HETATM   16  C   UNL     1     -10.948   7.261  67.442  1.00  0.00    -0.186 A  
HETATM   17  C   UNL     1     -10.825   6.896  68.771  1.00  0.00    -0.238 A  
BRANCH  17  18
HETATM   18  C   UNL     1     -11.201   7.744  69.957  1.00  0.00    -0.126 C  
BRANCH  18  19
HETATM   19  C   UNL     1      -9.972   8.131  70.809  1.00  0.00    -0.188 C  
BRANCH  19  20
HETATM   20  N   UNL     1     -10.231   8.361  72.247  1.00  0.00    -0.306 NA 
HETATM   21  C   UNL     1      -9.414   7.433  73.039  1.00  0.00    -0.186 C  
HETATM   22  C   UNL     1     -11.641   8.183  72.594  1.00  0.00    -0.375 C  
ENDBRANCH  19  20
ENDBRANCH  18  19
ENDBRANCH  17  18
ENDBRANCH   7   8
ENDBRANCH   4   7
ENDBRANCH   2   4
TORSDOF 6
ENDMDL
MODEL      219
REMARK 921   NORMALIZED FREE ENERGY PREDICTED BY IDOCK:   -3.12 KCAL/MOL
REMARK 922        TOTAL FREE ENERGY PREDICTED BY IDOCK:   -4.24 KCAL/MOL
REMARK 923 INTER-LIGAND FREE ENERGY PREDICTED BY IDOCK:   -3.80 KCAL/MOL
REMARK 924 INTRA-LIGAND FREE ENERGY PREDICTED BY IDOCK:   -0.44 KCAL/MOL
REMARK 927      BINDING AFFINITY PREDICTED BY RF-SCORE:    0.00 PKD
ROOT
HETATM    1  C   UNL     1     -11.473   6.386  69.724  1.00  0.00    -0.399 C  
HETATM    2  N   UNL     1     -10.151   5.897  69.309  1.00  0.00    -0.178 N  
HETATM    3  H   UNL     1     -10.027   5.350  68.458  1.00  0.00     0.000 HD 
ENDROOT
BRANCH   2   4
HETATM    4  S   UNL     1      -8.841   6.287  70.312  1.00  0.00    -0.154 S  
HETATM    5  O   UNL     1      -8.915   5.345  71.407  1.00  0.00    -0.136 OA 
HETATM    6  O   UNL     1      -7.688   6.339  69.439  1.00  0.00    -0.096 OA 
BRANCH   4   7
HETATM    7  C   UNL     1      -9.297   7.934  70.886  1.00  0.00    -0.153 C  
BRANCH   7   8
HETATM    8  C   UNL     1      -8.459   8.996  70.218  1.00  0.00    -0.180 A  
HETATM    9  C   UNL     1      -8.927   9.677  69.077  1.00  0.00    -0.148 A  
HETATM   10  C   UNL     1      -8.165  10.715  68.500  1.00  0.00    -0.128 A  
HETATM   11  C   UNL     1      -6.967  11.069  69.116  1.00  0.00    -0.104 A  
HETATM   12  C   UNL     1      -6.476  10.422  70.255  1.00  0.00    -0.141 A  
HETATM   13  N   UNL     1      -6.440  12.115  68.399  1.00  0.00    -0.053 NA 
HETATM   14  C   UNL     1      -7.240   9.380  70.791  1.00  0.00    -0.123 A  
HETATM   15  H   UNL     1      -5.564  12.588  68.619  1.00  0.00     0.000 HD 
HETATM   16  C   UNL     1      -7.254  12.431  67.348  1.00  0.00    -0.148 A  
HETATM   17  C   UNL     1      -8.329  11.560  67.353  1.00  0.00    -0.148 A  
BRANCH  17  18
HETATM   18  C   UNL     1      -9.446  11.530  66.343  1.00  0.00    -0.230 C  
BRANCH  18  19
HETATM   19  C   UNL     1     -10.076  12.925  66.130  1.00  0.00    -0.276 C  
BRANCH  19  20
HETATM   20  N   UNL     1     -10.852  13.461  67.270  1.00  0.00    -0.266 NA 
HETATM   21  C   UNL     1     -11.602  12.367  67.901  1.00  0.00    -0.356 C  
HETATM   22  C   UNL     1     -11.782  14.516  66.865  1.00  0.00    -0.382 C  
ENDBRANCH  19  20
ENDBRANCH  18  19
ENDBRANCH  17  18
ENDBRANCH   7   8
ENDBRANCH   4   7
ENDBRANCH   2   4
TORSDOF 6
ENDMDL
MODEL      220
REMARK 921   NORMALIZED FREE ENERGY PREDICTED BY IDOCK:   -3.03 KCAL/MOL
REMARK 922        TOTAL FREE ENERGY PREDICTED BY IDOCK:   -4.12 KCAL/MOL
REMARK 923 INTER-LIGAND FREE ENERGY PREDICTED BY IDOCK:   -3.63 KCAL/MOL
REMARK 924 INTRA-LIGAND FREE ENERGY PREDICTED BY IDOCK:   -0.49 KCAL/MOL
REMARK 927      BINDING AFFINITY PREDICTED BY RF-SCORE:    0.00 PKD
ROOT
HETATM    1  C   UNL     1      -6.440   8.713  70.372  1.00  0.00    -0.036 C  
HETATM    2  N   UNL     1      -6.427   9.003  68.932  1.00  0.00    -0.048 N  
HETATM    3  H   UNL     1      -5.865   8.455  68.281  1.00  0.00     0.000 HD 
ENDROOT
BRANCH   2   4
HETATM    4  S   UNL     1      -7.393  10.292  68.402  1.00  0.00    -0.086 S  
HETATM    5  O   UNL     1      -8.047   9.803  67.208  1.00  0.00    -0.115 OA 
HETATM    6  O   UNL     1      -8.153  10.708  69.561  1.00  0.00    -0.135 OA 
BRANCH   4   7
HETATM    7  C   UNL     1      -6.151  11.523  67.963  1.00  0.00    -0.046 C  
BRANCH   7   8
HETATM    8  C   UNL     1      -6.637  12.919  68.261  1.00  0.00    -0.091 A  
HETATM    9  C   UNL     1      -7.573  13.556  67.422  1.00  0.00    -0.140 A  
HETATM   10  C   UNL     1      -8.071  14.835  67.746  1.00  0.00    -0.161 A  
HETATM   11  C   UNL     1      -7.645  15.423  68.935  1.00  0.00    -0.164 A  
HETATM   12  C   UNL     1      -6.726  14.817  69.797  1.00  0.00    -0.173 A  
HETATM   13  N   UNL     1      -8.294  16.628  69.042  1.00  0.00    -0.219 NA 
HETATM   14  C   UNL     1      -6.228  13.560  69.438  1.00  0.00    -0.107 A  
HETATM   15  H   UNL     1      -8.183  17.282  69.818  1.00  0.00     0.000 HD 
HETATM   16  C   UNL     1      -9.108  16.830  67.963  1.00  0.00    -0.228 A  
HETATM   17  C   UNL     1      -8.977  15.748  67.111  1.00  0.00    -0.233 A  
BRANCH  17  18
HETATM   18  C   UNL     1      -9.666  15.582  65.782  1.00  0.00    -0.383 C  
BRANCH  18  19
HETATM   19  C   UNL     1     -11.021  14.852  65.917  1.00  0.00    -0.338 C  
BRANCH  19  20
HETATM   20  N   UNL     1     -11.248  13.737  64.971  1.00  0.00    -0.322 NA 
HETATM   21  C   UNL     1     -12.512  13.960  64.256  1.00  0.00    -0.259 C  
HETATM   22  C   UNL     1     -11.295  12.437  65.643  1.00  0.00    -0.347 C  
ENDBRANCH  19  20
ENDBRANCH  18  19
ENDBRANCH  17  18
ENDBRANCH   7   8
ENDBRANCH   4   7
ENDBRANCH   2   4
TORSDOF 6
ENDMDL
MODEL      221
REMARK 921   NORMALIZED FREE ENERGY PREDICTED BY IDOCK:   -3.01 KCAL/MOL
REMARK 922        TOTAL FREE ENERGY PREDICTED BY IDOCK:   -4.10 KCAL/MOL
REMARK 923 INTER-LIGAND FREE ENERGY PREDICTED BY IDOCK:   -3.54 KCAL/MOL
REMARK 924 INTRA-LIGAND FREE ENERGY PREDICTED BY IDOCK:   -0.56 KCAL/MOL
REMARK 927      BINDING AFFINITY PREDICTED BY RF-SCORE:    0.00 PKD
ROOT
HETATM    1  C   UNL     1     -10.532   5.154  66.456  1.00  0.00    -0.294 C  
HETATM    2  N   UNL     1      -9.309   5.588  67.142  1.00  0.00    -0.114 N  
HETATM    3  H   UNL     1      -8.728   4.932  67.666  1.00  0.00     0.000 HD 
ENDROOT
BRANCH   2   4
HETATM    4  S   UNL     1      -8.905   7.230  67.023  1.00  0.00    -0.132 S  
HETATM    5  O   UNL     1      -7.521   7.246  66.605  1.00  0.00    -0.085 OA 
HETATM    6  O   UNL     1      -9.945   7.826  66.212  1.00  0.00    -0.138 OA 
BRANCH   4   7
HETATM    7  C   UNL     1      -9.034   7.764  68.741  1.00  0.00    -0.141 C  
BRANCH   7   8
HETATM    8  C   UNL     1      -8.290   9.055  68.968  1.00  0.00    -0.124 A  
HETATM    9  C   UNL     1      -8.667  10.238  68.301  1.00  0.00    -0.126 A  
HETATM   10  C   UNL     1      -8.008  11.455  68.571  1.00  0.00    -0.143 A  
HETATM   11  C   UNL     1      -7.009  11.457  69.543  1.00  0.00    -0.063 A  
HETATM   12  C   UNL     1      -6.613  10.306  70.232  1.00  0.00    -0.142 A  
HETATM   13  N   UNL     1      -6.555  12.749  69.648  1.00  0.00    -0.318 NA 
HETATM   14  C   UNL     1      -7.268   9.108  69.925  1.00  0.00    -0.062 A  
HETATM   15  H   UNL     1      -5.822  13.058  70.288  1.00  0.00     0.000 HD 
HETATM   16  C   UNL     1      -7.222  13.562  68.776  1.00  0.00    -0.096 A  
HETATM   17  C   UNL     1      -8.118  12.790  68.059  1.00  0.00    -0.162 A  
BRANCH  17  18
HETATM   18  C   UNL     1      -9.027  13.280  66.963  1.00  0.00    -0.230 C  
BRANCH  18  19
HETATM   19  C   UNL     1     -10.278  13.995  67.520  1.00  0.00    -0.244 C  
BRANCH  19  20
HETATM   20  N   UNL     1     -11.035  13.255  68.553  1.00  0.00    -0.256 NA 
HETATM   21  C   UNL     1     -11.735  12.127  67.924  1.00  0.00    -0.336 C  
HETATM   22  C   UNL     1     -12.007  14.102  69.246  1.00  0.00    -0.340 C  
ENDBRANCH  19  20
ENDBRANCH  18  19
ENDBRANCH  17  18
ENDBRANCH   7   8
ENDBRANCH   4   7
ENDBRANCH   2   4
TORSDOF 6
ENDMDL
MODEL      222
REMARK 921   NORMALIZED FREE ENERGY PREDICTED BY IDOCK:   -3.00 KCAL/MOL
REMARK 922        TOTAL FREE ENERGY PREDICTED BY IDOCK:   -4.08 KCAL/MOL
REMARK 923 INTER-LIGAND FREE ENERGY PREDICTED BY IDOCK:   -3.98 KCAL/MOL
REMARK 924 INTRA-LIGAND FREE ENERGY PREDICTED BY IDOCK:   -0.10 KCAL/MOL
REMARK 927      BINDING AFFINITY PREDICTED BY RF-SCORE:    0.00 PKD
ROOT
HETATM    1  C   UNL     1      -8.344   8.776  62.766  1.00  0.00    -0.192 C  
HETATM    2  N   UNL     1      -8.635   9.454  64.035  1.00  0.00    -0.199 N  
HETATM    3  H   UNL     1      -9.593   9.626  64.342  1.00  0.00     0.000 HD 
ENDROOT
BRANCH   2   4
HETATM    4  S   UNL     1      -7.305   9.938  64.968  1.00  0.00    -0.139 S  
HETATM    5  O   UNL     1      -6.351  10.463  64.016  1.00  0.00    -0.120 OA 
HETATM    6  O   UNL     1      -7.852  10.766  66.022  1.00  0.00    -0.156 OA 
BRANCH   4   7
HETATM    7  C   UNL     1      -6.721   8.361  65.618  1.00  0.00    -0.056 C  
BRANCH   7   8
HETATM    8  C   UNL     1      -7.825   7.621  66.329  1.00  0.00    -0.091 A  
HETATM    9  C   UNL     1      -8.370   8.111  67.533  1.00  0.00    -0.123 A  
HETATM   10  C   UNL     1      -9.448   7.448  68.154  1.00  0.00    -0.141 A  
HETATM   11  C   UNL     1      -9.980   6.327  67.522  1.00  0.00    -0.134 A  
HETATM   12  C   UNL     1      -9.473   5.816  66.323  1.00  0.00    -0.166 A  
HETATM   13  N   UNL     1     -11.030   5.890  68.293  1.00  0.00    -0.248 NA 
HETATM   14  C   UNL     1      -8.387   6.480  65.741  1.00  0.00    -0.143 A  
HETATM   15  H   UNL     1     -11.616   5.085  68.075  1.00  0.00     0.000 HD 
HETATM   16  C   UNL     1     -11.178   6.688  69.393  1.00  0.00    -0.299 A  
HETATM   17  C   UNL     1     -10.190   7.656  69.364  1.00  0.00    -0.206 A  
BRANCH  17  18
HETATM   18  C   UNL     1      -9.962   8.716  70.410  1.00  0.00    -0.212 C  
BRANCH  18  19
HETATM   19  C   UNL     1     -11.085   8.738  71.470  1.00  0.00    -0.307 C  
BRANCH  19  20
HETATM   20  N   UNL     1     -12.410   9.194  70.995  1.00  0.00    -0.259 NA 
HETATM   21  C   UNL     1     -12.382  10.651  70.812  1.00  0.00    -0.376 C  
HETATM   22  C   UNL     1     -13.486   8.843  71.924  1.00  0.00    -0.414 C  
ENDBRANCH  19  20
ENDBRANCH  18  19
ENDBRANCH  17  18
ENDBRANCH   7   8
ENDBRANCH   4   7
ENDBRANCH   2   4
TORSDOF 6
ENDMDL
MODEL      223
REMARK 921   NORMALIZED FREE ENERGY PREDICTED BY IDOCK:   -2.99 KCAL/MOL
REMARK 922        TOTAL FREE ENERGY PREDICTED BY IDOCK:   -4.07 KCAL/MOL
REMARK 923 INTER-LIGAND FREE ENERGY PREDICTED BY IDOCK:   -3.83 KCAL/MOL
REMARK 924 INTRA-LIGAND FREE ENERGY PREDICTED BY IDOCK:   -0.24 KCAL/MOL
REMARK 927      BINDING AFFINITY PREDICTED BY RF-SCORE:    0.00 PKD
ROOT
HETATM    1  C   UNL     1      -7.743   1.512  64.698  1.00  0.00    -0.063 C  
HETATM    2  N   UNL     1      -8.901   2.263  65.200  1.00  0.00    -0.117 N  
HETATM    3  H   UNL     1      -9.505   1.889  65.931  1.00  0.00     0.000 HD 
ENDROOT
BRANCH   2   4
HETATM    4  S   UNL     1      -9.187   3.783  64.505  1.00  0.00    -0.154 S  
HETATM    5  O   UNL     1      -8.783   3.645  63.123  1.00  0.00    -0.092 OA 
HETATM    6  O   UNL     1     -10.549   4.121  64.862  1.00  0.00    -0.250 OA 
BRANCH   4   7
HETATM    7  C   UNL     1      -8.007   4.818  65.391  1.00  0.00    -0.099 C  
BRANCH   7   8
HETATM    8  C   UNL     1      -8.133   4.636  66.883  1.00  0.00    -0.103 A  
HETATM    9  C   UNL     1      -9.214   5.195  67.593  1.00  0.00    -0.127 A  
HETATM   10  C   UNL     1      -9.359   4.963  68.977  1.00  0.00    -0.183 A  
HETATM   11  C   UNL     1      -8.431   4.133  69.603  1.00  0.00    -0.060 A  
HETATM   12  C   UNL     1      -7.352   3.553  68.929  1.00  0.00    -0.050 A  
HETATM   13  N   UNL     1      -8.806   4.033  70.920  1.00  0.00    -0.084 NA 
HETATM   14  C   UNL     1      -7.218   3.821  67.563  1.00  0.00    -0.063 A  
HETATM   15  H   UNL     1      -8.315   3.483  71.625  1.00  0.00     0.000 HD 
HETATM   16  C   UNL     1      -9.931   4.773  71.154  1.00  0.00    -0.202 A  
HETATM   17  C   UNL     1     -10.294   5.397  69.973  1.00  0.00    -0.366 A  
BRANCH  17  18
HETATM   18  C   UNL     1     -11.454   6.342  69.795  1.00  0.00    -0.449 C  
BRANCH  18  19
HETATM   19  C   UNL     1     -11.985   6.873  71.144  1.00  0.00    -0.366 C  
BRANCH  19  20
HETATM   20  N   UNL     1     -11.356   8.116  71.640  1.00  0.00    -0.253 NA 
HETATM   21  C   UNL     1     -10.635   7.829  72.887  1.00  0.00    -0.366 C  
HETATM   22  C   UNL     1     -12.334   9.178  71.880  1.00  0.00    -0.385 C  
ENDBRANCH  19  20
ENDBRANCH  18  19
ENDBRANCH  17  18
ENDBRANCH   7   8
ENDBRANCH   4   7
ENDBRANCH   2   4
TORSDOF 6
ENDMDL
MODEL      224
REMARK 921   NORMALIZED FREE ENERGY PREDICTED BY IDOCK:   -2.94 KCAL/MOL
REMARK 922        TOTAL FREE ENERGY PREDICTED BY IDOCK:   -4.00 KCAL/MOL
REMARK 923 INTER-LIGAND FREE ENERGY PREDICTED BY IDOCK:   -3.62 KCAL/MOL
REMARK 924 INTRA-LIGAND FREE ENERGY PREDICTED BY IDOCK:   -0.39 KCAL/MOL
REMARK 927      BINDING AFFINITY PREDICTED BY RF-SCORE:    0.00 PKD
ROOT
HETATM    1  C   UNL     1      -6.470   7.768  72.179  1.00  0.00    -0.052 C  
HETATM    2  N   UNL     1      -7.581   6.959  71.662  1.00  0.00    -0.089 N  
HETATM    3  H   UNL     1      -7.764   6.018  72.011  1.00  0.00     0.000 HD 
ENDROOT
BRANCH   2   4
HETATM    4  S   UNL     1      -8.546   7.662  70.459  1.00  0.00    -0.138 S  
HETATM    5  O   UNL     1      -9.485   6.629  70.081  1.00  0.00    -0.158 OA 
HETATM    6  O   UNL     1      -8.995   8.923  71.011  1.00  0.00    -0.200 OA 
BRANCH   4   7
HETATM    7  C   UNL     1      -7.350   7.921  69.136  1.00  0.00    -0.083 C  
BRANCH   7   8
HETATM    8  C   UNL     1      -7.417   9.332  68.608  1.00  0.00    -0.080 A  
HETATM    9  C   UNL     1      -8.528   9.778  67.866  1.00  0.00    -0.125 A  
HETATM   10  C   UNL     1      -8.612  11.118  67.435  1.00  0.00    -0.137 A  
HETATM   11  C   UNL     1      -7.588  11.989  67.802  1.00  0.00    -0.130 A  
HETATM   12  C   UNL     1      -6.474  11.586  68.545  1.00  0.00    -0.054 A  
HETATM   13  N   UNL     1      -7.915  13.226  67.303  1.00  0.00    -0.303 NA 
HETATM   14  C   UNL     1      -6.406  10.245  68.937  1.00  0.00    -0.047 A  
HETATM   15  H   UNL     1      -7.352  14.068  67.419  1.00  0.00     0.000 HD 
HETATM   16  C   UNL     1      -9.103  13.170  66.628  1.00  0.00    -0.173 A  
HETATM   17  C   UNL     1      -9.559  11.864  66.658  1.00  0.00    -0.220 A  
BRANCH  17  18
HETATM   18  C   UNL     1     -10.812  11.351  65.999  1.00  0.00    -0.306 C  
BRANCH  18  19
HETATM   19  C   UNL     1     -10.858  11.691  64.492  1.00  0.00    -0.324 C  
BRANCH  19  20
HETATM   20  N   UNL     1     -11.955  12.588  64.068  1.00  0.00    -0.415 NA 
HETATM   21  C   UNL     1     -12.541  13.229  65.253  1.00  0.00    -0.470 C  
HETATM   22  C   UNL     1     -13.003  11.879  63.333  1.00  0.00    -0.115 C  
ENDBRANCH  19  20
ENDBRANCH  18  19
ENDBRANCH  17  18
ENDBRANCH   7   8
ENDBRANCH   4   7
ENDBRANCH   2   4
TORSDOF 6
ENDMDL
MODEL      225
REMARK 921   NORMALIZED FREE ENERGY PREDICTED BY IDOCK:   -2.90 KCAL/MOL
REMARK 922        TOTAL FREE ENERGY PREDICTED BY IDOCK:   -3.94 KCAL/MOL
REMARK 923 INTER-LIGAND FREE ENERGY PREDICTED BY IDOCK:   -3.58 KCAL/MOL
REMARK 924 INTRA-LIGAND FREE ENERGY PREDICTED BY IDOCK:   -0.36 KCAL/MOL
REMARK 927      BINDING AFFINITY PREDICTED BY RF-SCORE:    0.00 PKD
ROOT
HETATM    1  C   UNL     1      -8.622   7.276  67.118  1.00  0.00    -0.121 C  
HETATM    2  N   UNL     1      -9.069   7.734  68.439  1.00  0.00    -0.132 N  
HETATM    3  H   UNL     1      -9.723   7.189  69.001  1.00  0.00     0.000 HD 
ENDROOT
BRANCH   2   4
HETATM    4  S   UNL     1      -8.448   9.213  68.988  1.00  0.00    -0.135 S  
HETATM    5  O   UNL     1      -7.147   8.893  69.533  1.00  0.00    -0.056 OA 
HETATM    6  O   UNL     1      -8.595  10.130  67.878  1.00  0.00    -0.118 OA 
BRANCH   4   7
HETATM    7  C   UNL     1      -9.591   9.618  70.322  1.00  0.00    -0.254 C  
BRANCH   7   8
HETATM    8  C   UNL     1     -10.172   8.371  70.939  1.00  0.00    -0.234 A  
HETATM    9  C   UNL     1      -9.546   7.745  72.036  1.00  0.00    -0.217 A  
HETATM   10  C   UNL     1     -10.134   6.619  72.649  1.00  0.00    -0.191 A  
HETATM   11  C   UNL     1     -11.364   6.177  72.167  1.00  0.00    -0.299 A  
HETATM   12  C   UNL     1     -12.019   6.778  71.087  1.00  0.00    -0.421 A  
HETATM   13  N   UNL     1     -11.739   5.108  72.943  1.00  0.00    -0.378 NA 
HETATM   14  C   UNL     1     -11.401   7.877  70.482  1.00  0.00    -0.242 A  
HETATM   15  H   UNL     1     -12.604   4.580  72.826  1.00  0.00     0.000 HD 
HETATM   16  C   UNL     1     -10.791   4.852  73.893  1.00  0.00    -0.289 A  
HETATM   17  C   UNL     1      -9.754   5.752  73.727  1.00  0.00    -0.163 A  
BRANCH  17  18
HETATM   18  C   UNL     1      -8.485   5.797  74.537  1.00  0.00    -0.111 C  
BRANCH  18  19
HETATM   19  C   UNL     1      -7.355   4.962  73.895  1.00  0.00    -0.083 C  
BRANCH  19  20
HETATM   20  N   UNL     1      -6.604   5.624  72.807  1.00  0.00    -0.065 NA 
HETATM   21  C   UNL     1      -6.929   4.973  71.531  1.00  0.00    -0.053 C  
HETATM   22  C   UNL     1      -5.157   5.578  73.019  1.00  0.00    -0.017 C  
ENDBRANCH  19  20
ENDBRANCH  18  19
ENDBRANCH  17  18
ENDBRANCH   7   8
ENDBRANCH   4   7
ENDBRANCH   2   4
TORSDOF 6
ENDMDL
MODEL      226
REMARK 921   NORMALIZED FREE ENERGY PREDICTED BY IDOCK:   -2.88 KCAL/MOL
REMARK 922        TOTAL FREE ENERGY PREDICTED BY IDOCK:   -3.92 KCAL/MOL
REMARK 923 INTER-LIGAND FREE ENERGY PREDICTED BY IDOCK:   -3.83 KCAL/MOL
REMARK 924 INTRA-LIGAND FREE ENERGY PREDICTED BY IDOCK:   -0.09 KCAL/MOL
REMARK 927      BINDING AFFINITY PREDICTED BY RF-SCORE:    0.00 PKD
ROOT
HETATM    1  C   UNL     1     -11.583  15.197  72.033  1.00  0.00    -0.412 C  
HETATM    2  N   UNL     1     -11.193  14.285  70.951  1.00  0.00    -0.431 N  
HETATM    3  H   UNL     1     -10.214  14.094  70.739  1.00  0.00     0.000 HD 
ENDROOT
BRANCH   2   4
HETATM    4  S   UNL     1     -12.448  13.562  70.069  1.00  0.00    -0.091 S  
HETATM    5  O   UNL     1     -12.254  12.139  70.239  1.00  0.00    -0.316 OA 
HETATM    6  O   UNL     1     -13.660  14.216  70.514  1.00  0.00     0.063 OA 
BRANCH   4   7
HETATM    7  C   UNL     1     -12.032  14.042  68.382  1.00  0.00    -0.343 C  
BRANCH   7   8
HETATM    8  C   UNL     1     -10.875  15.009  68.358  1.00  0.00    -0.256 A  
HETATM    9  C   UNL     1      -9.544  14.549  68.402  1.00  0.00    -0.213 A  
HETATM   10  C   UNL     1      -8.469  15.457  68.312  1.00  0.00    -0.159 A  
HETATM   11  C   UNL     1      -8.764  16.807  68.136  1.00  0.00    -0.219 A  
HETATM   12  C   UNL     1     -10.072  17.300  68.079  1.00  0.00    -0.324 A  
HETATM   13  N   UNL     1      -7.566  17.471  68.038  1.00  0.00    -0.213 NA 
HETATM   14  C   UNL     1     -11.118  16.379  68.197  1.00  0.00    -0.320 A  
HETATM   15  H   UNL     1      -7.467  18.477  67.900  1.00  0.00     0.000 HD 
HETATM   16  C   UNL     1      -6.524  16.594  68.152  1.00  0.00    -0.136 A  
HETATM   17  C   UNL     1      -7.041  15.327  68.356  1.00  0.00    -0.111 A  
BRANCH  17  18
HETATM   18  C   UNL     1      -6.240  14.071  68.575  1.00  0.00    -0.093 C  
BRANCH  18  19
HETATM   19  C   UNL     1      -6.672  12.932  67.625  1.00  0.00    -0.153 C  
BRANCH  19  20
HETATM   20  N   UNL     1      -6.525  11.560  68.157  1.00  0.00    -0.052 NA 
HETATM   21  C   UNL     1      -7.464  11.370  69.270  1.00  0.00    -0.004 C  
HETATM   22  C   UNL     1      -5.164  11.283  68.618  1.00  0.00    -0.043 C  
ENDBRANCH  19  20
ENDBRANCH  18  19
ENDBRANCH  17  18
ENDBRANCH   7   8
ENDBRANCH   4   7
ENDBRANCH   2   4
TORSDOF 6
ENDMDL
MODEL      227
REMARK 921   NORMALIZED FREE ENERGY PREDICTED BY IDOCK:   -2.86 KCAL/MOL
REMARK 922        TOTAL FREE ENERGY PREDICTED BY IDOCK:   -3.90 KCAL/MOL
REMARK 923 INTER-LIGAND FREE ENERGY PREDICTED BY IDOCK:   -3.61 KCAL/MOL
REMARK 924 INTRA-LIGAND FREE ENERGY PREDICTED BY IDOCK:   -0.29 KCAL/MOL
REMARK 927      BINDING AFFINITY PREDICTED BY RF-SCORE:    0.00 PKD
ROOT
HETATM    1  C   UNL     1      -7.158   1.586  65.148  1.00  0.00    -0.047 C  
HETATM    2  N   UNL     1      -8.441   2.253  65.404  1.00  0.00    -0.095 N  
HETATM    3  H   UNL     1      -9.140   1.846  66.025  1.00  0.00     0.000 HD 
ENDROOT
BRANCH   2   4
HETATM    4  S   UNL     1      -8.704   3.733  64.621  1.00  0.00    -0.118 S  
HETATM    5  O   UNL     1      -8.137   3.564  63.301  1.00  0.00    -0.078 OA 
HETATM    6  O   UNL     1     -10.110   4.024  64.806  1.00  0.00    -0.201 OA 
BRANCH   4   7
HETATM    7  C   UNL     1      -7.676   4.850  65.594  1.00  0.00    -0.087 C  
BRANCH   7   8
HETATM    8  C   UNL     1      -8.519   5.801  66.404  1.00  0.00    -0.122 A  
HETATM    9  C   UNL     1      -8.765   7.115  65.957  1.00  0.00    -0.162 A  
HETATM   10  C   UNL     1      -9.609   7.975  66.689  1.00  0.00    -0.297 A  
HETATM   11  C   UNL     1     -10.223   7.473  67.834  1.00  0.00    -0.194 A  
HETATM   12  C   UNL     1     -10.011   6.173  68.304  1.00  0.00    -0.162 A  
HETATM   13  N   UNL     1     -11.015   8.475  68.339  1.00  0.00    -0.439 NA 
HETATM   14  C   UNL     1      -9.148   5.350  67.572  1.00  0.00    -0.107 A  
HETATM   15  H   UNL     1     -11.591   8.396  69.176  1.00  0.00     0.000 HD 
HETATM   16  C   UNL     1     -10.920   9.595  67.561  1.00  0.00    -0.096 A  
HETATM   17  C   UNL     1     -10.028   9.338  66.535  1.00  0.00    -0.344 A  
BRANCH  17  18
HETATM   18  C   UNL     1      -9.600  10.316  65.472  1.00  0.00    -0.299 C  
BRANCH  18  19
HETATM   19  C   UNL     1      -8.533  11.306  65.988  1.00  0.00    -0.102 C  
BRANCH  19  20
HETATM   20  N   UNL     1      -9.011  12.325  66.949  1.00  0.00    -0.203 NA 
HETATM   21  C   UNL     1     -10.077  13.117  66.322  1.00  0.00    -0.285 C  
HETATM   22  C   UNL     1      -7.940  13.219  67.392  1.00  0.00    -0.170 C  
ENDBRANCH  19  20
ENDBRANCH  18  19
ENDBRANCH  17  18
ENDBRANCH   7   8
ENDBRANCH   4   7
ENDBRANCH   2   4
TORSDOF 6
ENDMDL
MODEL      228
REMARK 921   NORMALIZED FREE ENERGY PREDICTED BY IDOCK:   -2.81 KCAL/MOL
REMARK 922        TOTAL FREE ENERGY PREDICTED BY IDOCK:   -3.83 KCAL/MOL
REMARK 923 INTER-LIGAND FREE ENERGY PREDICTED BY IDOCK:   -3.59 KCAL/MOL
REMARK 924 INTRA-LIGAND FREE ENERGY PREDICTED BY IDOCK:   -0.24 KCAL/MOL
REMARK 927      BINDING AFFINITY PREDICTED BY RF-SCORE:    0.00 PKD
ROOT
HETATM    1  C   UNL     1      -7.325   2.011  65.859  1.00  0.00    -0.061 C  
HETATM    2  N   UNL     1      -8.270   3.129  65.749  1.00  0.00    -0.093 N  
HETATM    3  H   UNL     1      -9.162   3.125  66.244  1.00  0.00     0.000 HD 
ENDROOT
BRANCH   2   4
HETATM    4  S   UNL     1      -7.810   4.426  64.760  1.00  0.00    -0.090 S  
HETATM    5  O   UNL     1      -6.582   3.998  64.127  1.00  0.00    -0.040 OA 
HETATM    6  O   UNL     1      -8.985   4.754  63.980  1.00  0.00    -0.141 OA 
BRANCH   4   7
HETATM    7  C   UNL     1      -7.459   5.708  65.978  1.00  0.00    -0.082 C  
BRANCH   7   8
HETATM    8  C   UNL     1      -8.651   5.955  66.869  1.00  0.00    -0.111 A  
HETATM    9  C   UNL     1      -8.622   5.604  68.233  1.00  0.00    -0.107 A  
HETATM   10  C   UNL     1      -9.715   5.900  69.073  1.00  0.00    -0.170 A  
HETATM   11  C   UNL     1     -10.797   6.584  68.523  1.00  0.00    -0.288 A  
HETATM   12  C   UNL     1     -10.858   6.957  67.177  1.00  0.00    -0.447 A  
HETATM   13  N   UNL     1     -11.702   6.786  69.536  1.00  0.00    -0.637 NA 
HETATM   14  C   UNL     1      -9.770   6.628  66.361  1.00  0.00    -0.128 A  
HETATM   15  H   UNL     1     -12.595   7.268  69.432  1.00  0.00     0.000 HD 
HETATM   16  C   UNL     1     -11.238   6.249  70.704  1.00  0.00    -0.337 A  
HETATM   17  C   UNL     1     -10.013   5.657  70.454  1.00  0.00    -0.267 A  
BRANCH  17  18
HETATM   18  C   UNL     1      -9.172   4.911  71.457  1.00  0.00    -0.185 C  
BRANCH  18  19
HETATM   19  C   UNL     1      -9.636   3.449  71.634  1.00  0.00    -0.159 C  
BRANCH  19  20
HETATM   20  N   UNL     1      -9.221   2.788  72.890  1.00  0.00    -0.088 NA 
HETATM   21  C   UNL     1      -8.025   1.974  72.635  1.00  0.00    -0.053 C  
HETATM   22  C   UNL     1     -10.274   1.940  73.449  1.00  0.00    -0.103 C  
ENDBRANCH  19  20
ENDBRANCH  18  19
ENDBRANCH  17  18
ENDBRANCH   7   8
ENDBRANCH   4   7
ENDBRANCH   2   4
TORSDOF 6
ENDMDL
MODEL      229
REMARK 921   NORMALIZED FREE ENERGY PREDICTED BY IDOCK:   -2.79 KCAL/MOL
REMARK 922        TOTAL FREE ENERGY PREDICTED BY IDOCK:   -3.80 KCAL/MOL
REMARK 923 INTER-LIGAND FREE ENERGY PREDICTED BY IDOCK:   -3.57 KCAL/MOL
REMARK 924 INTRA-LIGAND FREE ENERGY PREDICTED BY IDOCK:   -0.24 KCAL/MOL
REMARK 927      BINDING AFFINITY PREDICTED BY RF-SCORE:    0.00 PKD
ROOT
HETATM    1  C   UNL     1      -8.775   1.488  66.852  1.00  0.00    -0.110 C  
HETATM    2  N   UNL     1      -8.229   2.629  66.107  1.00  0.00    -0.084 N  
HETATM    3  H   UNL     1      -7.642   3.330  66.558  1.00  0.00     0.000 HD 
ENDROOT
BRANCH   2   4
HETATM    4  S   UNL     1      -8.619   2.725  64.460  1.00  0.00    -0.095 S  
HETATM    5  O   UNL     1      -7.350   2.887  63.784  1.00  0.00    -0.058 OA 
HETATM    6  O   UNL     1      -9.474   1.587  64.197  1.00  0.00    -0.120 OA 
BRANCH   4   7
HETATM    7  C   UNL     1      -9.551   4.267  64.394  1.00  0.00    -0.134 C  
BRANCH   7   8
HETATM    8  C   UNL     1      -9.109   5.218  65.478  1.00  0.00    -0.145 A  
HETATM    9  C   UNL     1      -9.732   5.217  66.742  1.00  0.00    -0.174 A  
HETATM   10  C   UNL     1      -9.268   6.064  67.770  1.00  0.00    -0.107 A  
HETATM   11  C   UNL     1      -8.155   6.861  67.510  1.00  0.00    -0.116 A  
HETATM   12  C   UNL     1      -7.506   6.883  66.272  1.00  0.00    -0.077 A  
HETATM   13  N   UNL     1      -7.879   7.554  68.664  1.00  0.00    -0.119 NA 
HETATM   14  C   UNL     1      -8.004   6.051  65.263  1.00  0.00    -0.117 A  
HETATM   15  H   UNL     1      -7.111   8.216  68.775  1.00  0.00     0.000 HD 
HETATM   16  C   UNL     1      -8.778   7.231  69.641  1.00  0.00    -0.141 A  
HETATM   17  C   UNL     1      -9.684   6.326  69.118  1.00  0.00    -0.154 A  
BRANCH  17  18
HETATM   18  C   UNL     1     -10.867   5.740  69.843  1.00  0.00    -0.417 C  
BRANCH  18  19
HETATM   19  C   UNL     1     -11.772   6.831  70.456  1.00  0.00    -0.375 C  
BRANCH  19  20
HETATM   20  N   UNL     1     -11.970   6.756  71.920  1.00  0.00    -0.321 NA 
HETATM   21  C   UNL     1     -11.507   8.006  72.536  1.00  0.00    -0.409 C  
HETATM   22  C   UNL     1     -11.259   5.627  72.522  1.00  0.00    -0.293 C  
ENDBRANCH  19  20
ENDBRANCH  18  19
ENDBRANCH  17  18
ENDBRANCH   7   8
ENDBRANCH   4   7
ENDBRANCH   2   4
TORSDOF 6
ENDMDL
MODEL      230
REMARK 921   NORMALIZED FREE ENERGY PREDICTED BY IDOCK:   -2.70 KCAL/MOL
REMARK 922        TOTAL FREE ENERGY PREDICTED BY IDOCK:   -3.68 KCAL/MOL
REMARK 923 INTER-LIGAND FREE ENERGY PREDICTED BY IDOCK:   -3.27 KCAL/MOL
REMARK 924 INTRA-LIGAND FREE ENERGY PREDICTED BY IDOCK:   -0.41 KCAL/MOL
REMARK 927      BINDING AFFINITY PREDICTED BY RF-SCORE:    0.00 PKD
ROOT
HETATM    1  C   UNL     1      -8.963   8.963  63.808  1.00  0.00     0.247 C  
HETATM    2  N   UNL     1      -9.221   9.156  65.241  1.00  0.00    -0.358 N  
HETATM    3  H   UNL     1     -10.101   8.866  65.669  1.00  0.00     0.000 HD 
ENDROOT
BRANCH   2   4
HETATM    4  S   UNL     1      -7.989   9.882  66.151  1.00  0.00    -0.112 S  
HETATM    5  O   UNL     1      -7.609   8.886  67.128  1.00  0.00    -0.090 OA 
HETATM    6  O   UNL     1      -7.040  10.388  65.182  1.00  0.00    -0.134 OA 
BRANCH   4   7
HETATM    7  C   UNL     1      -8.875  11.229  66.957  1.00  0.00    -0.153 C  
BRANCH   7   8
HETATM    8  C   UNL     1      -7.920  12.207  67.593  1.00  0.00    -0.157 A  
HETATM    9  C   UNL     1      -7.930  13.569  67.233  1.00  0.00    -0.125 A  
HETATM   10  C   UNL     1      -7.079  14.488  67.882  1.00  0.00    -0.168 A  
HETATM   11  C   UNL     1      -6.267  14.016  68.912  1.00  0.00    -0.089 A  
HETATM   12  C   UNL     1      -6.237  12.673  69.303  1.00  0.00    -0.105 A  
HETATM   13  N   UNL     1      -5.573  15.094  69.403  1.00  0.00    -0.096 NA 
HETATM   14  C   UNL     1      -7.074  11.780  68.625  1.00  0.00    -0.101 A  
HETATM   15  H   UNL     1      -4.902  15.053  70.170  1.00  0.00     0.000 HD 
HETATM   16  C   UNL     1      -5.908  16.229  68.719  1.00  0.00    -0.110 A  
HETATM   17  C   UNL     1      -6.823  15.892  67.738  1.00  0.00    -0.174 A  
BRANCH  17  18
HETATM   18  C   UNL     1      -7.423  16.835  66.729  1.00  0.00    -0.279 C  
BRANCH  18  19
HETATM   19  C   UNL     1      -8.375  17.860  67.385  1.00  0.00    -0.224 C  
BRANCH  19  20
HETATM   20  N   UNL     1      -9.820  17.609  67.197  1.00  0.00    -0.295 NA 
HETATM   21  C   UNL     1     -10.006  16.665  66.087  1.00  0.00    -0.337 C  
HETATM   22  C   UNL     1     -10.568  18.836  66.920  1.00  0.00    -0.409 C  
ENDBRANCH  19  20
ENDBRANCH  18  19
ENDBRANCH  17  18
ENDBRANCH   7   8
ENDBRANCH   4   7
ENDBRANCH   2   4
TORSDOF 6
ENDMDL
MODEL      231
REMARK 921   NORMALIZED FREE ENERGY PREDICTED BY IDOCK:   -2.66 KCAL/MOL
REMARK 922        TOTAL FREE ENERGY PREDICTED BY IDOCK:   -3.62 KCAL/MOL
REMARK 923 INTER-LIGAND FREE ENERGY PREDICTED BY IDOCK:   -4.00 KCAL/MOL
REMARK 924 INTRA-LIGAND FREE ENERGY PREDICTED BY IDOCK:    0.38 KCAL/MOL
REMARK 927      BINDING AFFINITY PREDICTED BY RF-SCORE:    0.00 PKD
ROOT
HETATM    1  C   UNL     1      -6.216   5.437  72.474  1.00  0.00    -0.039 C  
HETATM    2  N   UNL     1      -6.701   6.770  72.095  1.00  0.00    -0.058 N  
HETATM    3  H   UNL     1      -6.336   7.260  71.279  1.00  0.00     0.000 HD 
ENDROOT
BRANCH   2   4
HETATM    4  S   UNL     1      -7.898   7.457  73.080  1.00  0.00    -0.101 S  
HETATM    5  O   UNL     1      -7.360   7.395  74.421  1.00  0.00    -0.112 OA 
HETATM    6  O   UNL     1      -8.230   8.722  72.460  1.00  0.00    -0.387 OA 
BRANCH   4   7
HETATM    7  C   UNL     1      -9.244   6.272  72.902  1.00  0.00    -0.133 C  
BRANCH   7   8
HETATM    8  C   UNL     1      -9.818   6.303  71.508  1.00  0.00    -0.193 A  
HETATM    9  C   UNL     1      -9.688   7.448  70.695  1.00  0.00    -0.175 A  
HETATM   10  C   UNL     1     -10.169   7.444  69.370  1.00  0.00    -0.201 A  
HETATM   11  C   UNL     1     -10.732   6.267  68.880  1.00  0.00    -0.299 A  
HETATM   12  C   UNL     1     -10.869   5.109  69.653  1.00  0.00     0.218 A  
HETATM   13  N   UNL     1     -11.082   6.502  67.573  1.00  0.00    -0.556 NA 
HETATM   14  C   UNL     1     -10.406   5.150  70.972  1.00  0.00    -0.278 A  
HETATM   15  H   UNL     1     -11.515   5.816  66.954  1.00  0.00     0.000 HD 
HETATM   16  C   UNL     1     -10.770   7.784  67.219  1.00  0.00    -0.255 A  
HETATM   17  C   UNL     1     -10.225   8.420  68.321  1.00  0.00    -0.244 A  
BRANCH  17  18
HETATM   18  C   UNL     1      -9.781   9.858  68.380  1.00  0.00    -0.161 C  
BRANCH  18  19
HETATM   19  C   UNL     1     -10.551  10.747  67.379  1.00  0.00    -0.242 C  
BRANCH  19  20
HETATM   20  N   UNL     1      -9.752  11.304  66.266  1.00  0.00    -0.209 NA 
HETATM   21  C   UNL     1      -9.943  12.760  66.217  1.00  0.00    -0.264 C  
HETATM   22  C   UNL     1     -10.117  10.724  64.973  1.00  0.00    -0.313 C  
ENDBRANCH  19  20
ENDBRANCH  18  19
ENDBRANCH  17  18
ENDBRANCH   7   8
ENDBRANCH   4   7
ENDBRANCH   2   4
TORSDOF 6
ENDMDL
MODEL      232
REMARK 921   NORMALIZED FREE ENERGY PREDICTED BY IDOCK:   -2.59 KCAL/MOL
REMARK 922        TOTAL FREE ENERGY PREDICTED BY IDOCK:   -3.53 KCAL/MOL
REMARK 923 INTER-LIGAND FREE ENERGY PREDICTED BY IDOCK:   -4.03 KCAL/MOL
REMARK 924 INTRA-LIGAND FREE ENERGY PREDICTED BY IDOCK:    0.51 KCAL/MOL
REMARK 927      BINDING AFFINITY PREDICTED BY RF-SCORE:    0.00 PKD
ROOT
HETATM    1  C   UNL     1     -11.888  13.468  68.413  1.00  0.00    -0.373 C  
HETATM    2  N   UNL     1     -11.311  12.824  67.226  1.00  0.00    -0.295 N  
HETATM    3  H   UNL     1     -11.649  13.033  66.287  1.00  0.00     0.000 HD 
ENDROOT
BRANCH   2   4
HETATM    4  S   UNL     1     -10.055  11.716  67.490  1.00  0.00    -0.193 S  
HETATM    5  O   UNL     1     -10.069  10.851  66.331  1.00  0.00    -0.216 OA 
HETATM    6  O   UNL     1      -8.895  12.517  67.819  1.00  0.00    -0.160 OA 
BRANCH   4   7
HETATM    7  C   UNL     1     -10.656  10.819  68.934  1.00  0.00    -0.216 C  
BRANCH   7   8
HETATM    8  C   UNL     1      -9.640   9.812  69.412  1.00  0.00    -0.218 A  
HETATM    9  C   UNL     1     -10.029   8.511  69.788  1.00  0.00    -0.191 A  
HETATM   10  C   UNL     1      -9.064   7.557  70.170  1.00  0.00    -0.147 A  
HETATM   11  C   UNL     1      -7.722   7.927  70.122  1.00  0.00    -0.088 A  
HETATM   12  C   UNL     1      -7.297   9.205  69.746  1.00  0.00    -0.064 A  
HETATM   13  N   UNL     1      -6.988   6.828  70.497  1.00  0.00    -0.062 NA 
HETATM   14  C   UNL     1      -8.278  10.139  69.396  1.00  0.00    -0.171 A  
HETATM   15  H   UNL     1      -5.970   6.798  70.551  1.00  0.00     0.000 HD 
HETATM   16  C   UNL     1      -7.814   5.779  70.787  1.00  0.00    -0.101 A  
HETATM   17  C   UNL     1      -9.123   6.199  70.627  1.00  0.00    -0.156 A  
BRANCH  17  18
HETATM   18  C   UNL     1     -10.354   5.370  70.884  1.00  0.00    -0.312 C  
BRANCH  18  19
HETATM   19  C   UNL     1     -11.654   6.168  70.644  1.00  0.00    -0.185 C  
BRANCH  19  20
HETATM   20  N   UNL     1     -12.395   6.573  71.858  1.00  0.00    -0.341 NA 
HETATM   21  C   UNL     1     -13.516   7.440  71.474  1.00  0.00    -0.372 C  
HETATM   22  C   UNL     1     -11.546   7.278  72.820  1.00  0.00    -0.171 C  
ENDBRANCH  19  20
ENDBRANCH  18  19
ENDBRANCH  17  18
ENDBRANCH   7   8
ENDBRANCH   4   7
ENDBRANCH   2   4
TORSDOF 6
ENDMDL
MODEL      233
REMARK 921   NORMALIZED FREE ENERGY PREDICTED BY IDOCK:   -2.51 KCAL/MOL
REMARK 922        TOTAL FREE ENERGY PREDICTED BY IDOCK:   -3.42 KCAL/MOL
REMARK 923 INTER-LIGAND FREE ENERGY PREDICTED BY IDOCK:   -2.76 KCAL/MOL
REMARK 924 INTRA-LIGAND FREE ENERGY PREDICTED BY IDOCK:   -0.66 KCAL/MOL
REMARK 927      BINDING AFFINITY PREDICTED BY RF-SCORE:    0.00 PKD
ROOT
HETATM    1  C   UNL     1      -7.166   7.743  71.386  1.00  0.00    -0.063 C  
HETATM    2  N   UNL     1      -7.573   9.102  71.006  1.00  0.00    -0.117 N  
HETATM    3  H   UNL     1      -7.429   9.896  71.629  1.00  0.00     0.000 HD 
ENDROOT
BRANCH   2   4
HETATM    4  S   UNL     1      -8.291   9.288  69.482  1.00  0.00    -0.142 S  
HETATM    5  O   UNL     1      -8.632  10.692  69.398  1.00  0.00    -0.130 OA 
HETATM    6  O   UNL     1      -7.374   8.678  68.544  1.00  0.00    -0.082 OA 
BRANCH   4   7
HETATM    7  C   UNL     1      -9.790   8.302  69.661  1.00  0.00    -0.184 C  
BRANCH   7   8
HETATM    8  C   UNL     1      -9.768   7.105  68.743  1.00  0.00    -0.145 A  
HETATM    9  C   UNL     1      -9.326   5.848  69.201  1.00  0.00    -0.137 A  
HETATM   10  C   UNL     1      -9.373   4.721  68.355  1.00  0.00    -0.177 A  
HETATM   11  C   UNL     1      -9.907   4.881  67.078  1.00  0.00    -0.193 A  
HETATM   12  C   UNL     1     -10.364   6.110  66.592  1.00  0.00    -0.249 A  
HETATM   13  N   UNL     1      -9.879   3.649  66.473  1.00  0.00    -0.410 NA 
HETATM   14  C   UNL     1     -10.282   7.217  67.445  1.00  0.00    -0.291 A  
HETATM   15  H   UNL     1     -10.213   3.456  65.528  1.00  0.00     0.000 HD 
HETATM   16  C   UNL     1      -9.341   2.716  67.314  1.00  0.00    -0.100 A  
HETATM   17  C   UNL     1      -8.981   3.348  68.491  1.00  0.00    -0.185 A  
BRANCH  17  18
HETATM   18  C   UNL     1      -8.313   2.697  69.674  1.00  0.00    -0.079 C  
BRANCH  18  19
HETATM   19  C   UNL     1      -6.773   2.793  69.598  1.00  0.00    -0.033 C  
BRANCH  19  20
HETATM   20  N   UNL     1      -6.195   4.120  69.905  1.00  0.00    -0.026 NA 
HETATM   21  C   UNL     1      -5.581   4.671  68.690  1.00  0.00    -0.016 C  
HETATM   22  C   UNL     1      -5.193   4.059  70.970  1.00  0.00     0.000 C  
ENDBRANCH  19  20
ENDBRANCH  18  19
ENDBRANCH  17  18
ENDBRANCH   7   8
ENDBRANCH   4   7
ENDBRANCH   2   4
TORSDOF 6
ENDMDL
MODEL      234
REMARK 921   NORMALIZED FREE ENERGY PREDICTED BY IDOCK:   -2.42 KCAL/MOL
REMARK 922        TOTAL FREE ENERGY PREDICTED BY IDOCK:   -3.30 KCAL/MOL
REMARK 923 INTER-LIGAND FREE ENERGY PREDICTED BY IDOCK:   -3.07 KCAL/MOL
REMARK 924 INTRA-LIGAND FREE ENERGY PREDICTED BY IDOCK:   -0.23 KCAL/MOL
REMARK 927      BINDING AFFINITY PREDICTED BY RF-SCORE:    0.00 PKD
ROOT
HETATM    1  C   UNL     1      -8.208   8.115  63.251  1.00  0.00    -0.073 C  
HETATM    2  N   UNL     1      -8.704   8.623  64.536  1.00  0.00    -0.396 N  
HETATM    3  H   UNL     1      -9.595   8.315  64.924  1.00  0.00     0.000 HD 
ENDROOT
BRANCH   2   4
HETATM    4  S   UNL     1      -7.724   9.744  65.346  1.00  0.00    -0.129 S  
HETATM    5  O   UNL     1      -7.034  10.464  64.299  1.00  0.00    -0.090 OA 
HETATM    6  O   UNL     1      -8.600  10.424  66.276  1.00  0.00    -0.135 OA 
BRANCH   4   7
HETATM    7  C   UNL     1      -6.570   8.663  66.212  1.00  0.00    -0.062 C  
BRANCH   7   8
HETATM    8  C   UNL     1      -7.268   7.442  66.755  1.00  0.00    -0.087 A  
HETATM    9  C   UNL     1      -8.130   7.533  67.866  1.00  0.00    -0.119 A  
HETATM   10  C   UNL     1      -8.831   6.398  68.324  1.00  0.00    -0.115 A  
HETATM   11  C   UNL     1      -8.677   5.205  67.621  1.00  0.00    -0.103 A  
HETATM   12  C   UNL     1      -7.837   5.078  66.510  1.00  0.00    -0.100 A  
HETATM   13  N   UNL     1      -9.480   4.273  68.231  1.00  0.00    -0.152 NA 
HETATM   14  C   UNL     1      -7.136   6.215  66.093  1.00  0.00    -0.067 A  
HETATM   15  H   UNL     1      -9.577   3.303  67.931  1.00  0.00     0.000 HD 
HETATM   16  C   UNL     1     -10.131   4.828  69.297  1.00  0.00    -0.147 A  
HETATM   17  C   UNL     1      -9.731   6.147  69.412  1.00  0.00    -0.172 A  
BRANCH  17  18
HETATM   18  C   UNL     1     -10.174   7.114  70.478  1.00  0.00    -0.206 C  
BRANCH  18  19
HETATM   19  C   UNL     1     -10.597   6.394  71.778  1.00  0.00    -0.220 C  
BRANCH  19  20
HETATM   20  N   UNL     1      -9.681   6.550  72.928  1.00  0.00    -0.153 NA 
HETATM   21  C   UNL     1     -10.390   6.190  74.163  1.00  0.00    -0.294 C  
HETATM   22  C   UNL     1      -9.163   7.913  73.047  1.00  0.00    -0.254 C  
ENDBRANCH  19  20
ENDBRANCH  18  19
ENDBRANCH  17  18
ENDBRANCH   7   8
ENDBRANCH   4   7
ENDBRANCH   2   4
TORSDOF 6
ENDMDL
MODEL      235
REMARK 921   NORMALIZED FREE ENERGY PREDICTED BY IDOCK:   -2.40 KCAL/MOL
REMARK 922        TOTAL FREE ENERGY PREDICTED BY IDOCK:   -3.27 KCAL/MOL
REMARK 923 INTER-LIGAND FREE ENERGY PREDICTED BY IDOCK:   -2.97 KCAL/MOL
REMARK 924 INTRA-LIGAND FREE ENERGY PREDICTED BY IDOCK:   -0.30 KCAL/MOL
REMARK 927      BINDING AFFINITY PREDICTED BY RF-SCORE:    0.00 PKD
ROOT
HETATM    1  C   UNL     1      -7.601   2.153  73.900  1.00  0.00    -0.038 C  
HETATM    2  N   UNL     1      -7.692   2.276  72.440  1.00  0.00    -0.051 N  
HETATM    3  H   UNL     1      -7.403   1.519  71.821  1.00  0.00     0.000 HD 
ENDROOT
BRANCH   2   4
HETATM    4  S   UNL     1      -8.301   3.736  71.831  1.00  0.00    -0.087 S  
HETATM    5  O   UNL     1      -8.968   4.360  72.952  1.00  0.00    -0.116 OA 
HETATM    6  O   UNL     1      -7.185   4.375  71.168  1.00  0.00    -0.039 OA 
BRANCH   4   7
HETATM    7  C   UNL     1      -9.520   3.155  70.637  1.00  0.00    -0.163 C  
BRANCH   7   8
HETATM    8  C   UNL     1      -9.426   3.923  69.343  1.00  0.00    -0.260 A  
HETATM    9  C   UNL     1      -9.810   5.277  69.273  1.00  0.00    -0.256 A  
HETATM   10  C   UNL     1      -9.655   6.005  68.075  1.00  0.00    -0.120 A  
HETATM   11  C   UNL     1      -9.075   5.359  66.986  1.00  0.00    -0.112 A  
HETATM   12  C   UNL     1      -8.673   4.020  67.020  1.00  0.00    -0.116 A  
HETATM   13  N   UNL     1      -8.999   6.278  65.968  1.00  0.00    -0.195 NA 
HETATM   14  C   UNL     1      -8.862   3.315  68.213  1.00  0.00    -0.159 A  
HETATM   15  H   UNL     1      -8.611   6.091  65.043  1.00  0.00     0.000 HD 
HETATM   16  C   UNL     1      -9.515   7.478  66.368  1.00  0.00    -0.147 A  
HETATM   17  C   UNL     1      -9.967   7.345  67.669  1.00  0.00    -0.213 A  
BRANCH  17  18
HETATM   18  C   UNL     1     -10.646   8.416  68.482  1.00  0.00    -0.149 C  
BRANCH  18  19
HETATM   19  C   UNL     1     -10.717   9.762  67.727  1.00  0.00    -0.272 C  
BRANCH  19  20
HETATM   20  N   UNL     1      -9.449  10.518  67.638  1.00  0.00    -0.149 NA 
HETATM   21  C   UNL     1      -8.909  10.716  68.990  1.00  0.00    -0.148 C  
HETATM   22  C   UNL     1      -9.619  11.819  66.990  1.00  0.00    -0.187 C  
ENDBRANCH  19  20
ENDBRANCH  18  19
ENDBRANCH  17  18
ENDBRANCH   7   8
ENDBRANCH   4   7
ENDBRANCH   2   4
TORSDOF 6
ENDMDL
MODEL      236
REMARK 921   NORMALIZED FREE ENERGY PREDICTED BY IDOCK:   -2.05 KCAL/MOL
REMARK 922        TOTAL FREE ENERGY PREDICTED BY IDOCK:   -2.80 KCAL/MOL
REMARK 923 INTER-LIGAND FREE ENERGY PREDICTED BY IDOCK:   -2.41 KCAL/MOL
REMARK 924 INTRA-LIGAND FREE ENERGY PREDICTED BY IDOCK:   -0.39 KCAL/MOL
REMARK 927      BINDING AFFINITY PREDICTED BY RF-SCORE:    0.00 PKD
ROOT
HETATM    1  C   UNL     1     -10.455  15.650  65.999  1.00  0.00    -0.331 C  
HETATM    2  N   UNL     1      -9.434  14.700  65.538  1.00  0.00    -0.502 N  
HETATM    3  H   UNL     1      -8.893  14.867  64.690  1.00  0.00     0.000 HD 
ENDROOT
BRANCH   2   4
HETATM    4  S   UNL     1      -9.195  13.313  66.484  1.00  0.00    -0.112 S  
HETATM    5  O   UNL     1     -10.037  13.503  67.645  1.00  0.00    -0.223 OA 
HETATM    6  O   UNL     1      -9.390  12.195  65.586  1.00  0.00    -0.162 OA 
BRANCH   4   7
HETATM    7  C   UNL     1      -7.461  13.480  66.948  1.00  0.00     0.527 C  
BRANCH   7   8
HETATM    8  C   UNL     1      -7.115  12.573  68.101  1.00  0.00    -0.103 A  
HETATM    9  C   UNL     1      -7.370  11.188  68.037  1.00  0.00    -0.088 A  
HETATM   10  C   UNL     1      -6.981  10.338  69.093  1.00  0.00    -0.066 A  
HETATM   11  C   UNL     1      -6.303  10.902  70.172  1.00  0.00    -0.149 A  
HETATM   12  C   UNL     1      -6.024  12.269  70.267  1.00  0.00    -0.138 A  
HETATM   13  N   UNL     1      -6.003   9.878  71.037  1.00  0.00    -0.140 NA 
HETATM   14  C   UNL     1      -6.444  13.092  69.216  1.00  0.00    -0.103 A  
HETATM   15  H   UNL     1      -5.501   9.988  71.918  1.00  0.00     0.000 HD 
HETATM   16  C   UNL     1      -6.470   8.689  70.550  1.00  0.00    -0.038 A  
HETATM   17  C   UNL     1      -7.117   8.934  69.351  1.00  0.00    -0.057 A  
BRANCH  17  18
HETATM   18  C   UNL     1      -7.816   7.907  68.499  1.00  0.00    -0.119 C  
BRANCH  18  19
HETATM   19  C   UNL     1      -7.344   7.952  67.029  1.00  0.00    -0.091 C  
BRANCH  19  20
HETATM   20  N   UNL     1      -8.407   7.831  66.008  1.00  0.00    -0.126 NA 
HETATM   21  C   UNL     1      -8.244   8.897  65.012  1.00  0.00    -0.153 C  
HETATM   22  C   UNL     1      -9.748   7.909  66.587  1.00  0.00    -0.235 C  
ENDBRANCH  19  20
ENDBRANCH  18  19
ENDBRANCH  17  18
ENDBRANCH   7   8
ENDBRANCH   4   7
ENDBRANCH   2   4
TORSDOF 6
ENDMDL
MODEL      237
REMARK 921   NORMALIZED FREE ENERGY PREDICTED BY IDOCK:   -2.00 KCAL/MOL
REMARK 922        TOTAL FREE ENERGY PREDICTED BY IDOCK:   -2.74 KCAL/MOL
REMARK 923 INTER-LIGAND FREE ENERGY PREDICTED BY IDOCK:   -2.57 KCAL/MOL
REMARK 924 INTRA-LIGAND FREE ENERGY PREDICTED BY IDOCK:   -0.17 KCAL/MOL
REMARK 927      BINDING AFFINITY PREDICTED BY RF-SCORE:    0.00 PKD
ROOT
HETATM    1  C   UNL     1      -5.581   6.055  71.632  1.00  0.00    -0.022 C  
HETATM    2  N   UNL     1      -5.735   7.501  71.836  1.00  0.00    -0.036 N  
HETATM    3  H   UNL     1      -4.989   8.157  71.602  1.00  0.00     0.000 HD 
ENDROOT
BRANCH   2   4
HETATM    4  S   UNL     1      -7.212   8.031  72.478  1.00  0.00    -0.102 S  
HETATM    5  O   UNL     1      -6.976   8.164  73.898  1.00  0.00    -0.118 OA 
HETATM    6  O   UNL     1      -7.601   9.167  71.668  1.00  0.00    -0.333 OA 
BRANCH   4   7
HETATM    7  C   UNL     1      -8.278   6.612  72.162  1.00  0.00    -0.105 C  
BRANCH   7   8
HETATM    8  C   UNL     1      -8.896   6.689  70.788  1.00  0.00    -0.147 A  
HETATM    9  C   UNL     1      -8.310   6.029  69.690  1.00  0.00    -0.119 A  
HETATM   10  C   UNL     1      -8.932   6.051  68.425  1.00  0.00    -0.114 A  
HETATM   11  C   UNL     1     -10.156   6.705  68.308  1.00  0.00    -0.159 A  
HETATM   12  C   UNL     1     -10.773   7.364  69.376  1.00  0.00    -0.220 A  
HETATM   13  N   UNL     1     -10.570   6.555  67.007  1.00  0.00    -0.294 NA 
HETATM   14  C   UNL     1     -10.121   7.347  70.614  1.00  0.00    -0.191 A  
HETATM   15  H   UNL     1     -11.440   6.926  66.626  1.00  0.00     0.000 HD 
HETATM   16  C   UNL     1      -9.651   5.837  66.294  1.00  0.00    -0.134 A  
HETATM   17  C   UNL     1      -8.594   5.528  67.133  1.00  0.00    -0.109 A  
BRANCH  17  18
HETATM   18  C   UNL     1      -7.346   4.781  66.742  1.00  0.00    -0.082 C  
BRANCH  18  19
HETATM   19  C   UNL     1      -7.472   4.126  65.349  1.00  0.00    -0.077 C  
BRANCH  19  20
HETATM   20  N   UNL     1      -7.544   2.649  65.336  1.00  0.00    -0.075 NA 
HETATM   21  C   UNL     1      -6.535   2.125  64.406  1.00  0.00    -0.019 C  
HETATM   22  C   UNL     1      -8.865   2.158  64.943  1.00  0.00    -0.118 C  
ENDBRANCH  19  20
ENDBRANCH  18  19
ENDBRANCH  17  18
ENDBRANCH   7   8
ENDBRANCH   4   7
ENDBRANCH   2   4
TORSDOF 6
ENDMDL
MODEL      238
REMARK 921   NORMALIZED FREE ENERGY PREDICTED BY IDOCK:   -1.91 KCAL/MOL
REMARK 922        TOTAL FREE ENERGY PREDICTED BY IDOCK:   -2.61 KCAL/MOL
REMARK 923 INTER-LIGAND FREE ENERGY PREDICTED BY IDOCK:   -3.33 KCAL/MOL
REMARK 924 INTRA-LIGAND FREE ENERGY PREDICTED BY IDOCK:    0.72 KCAL/MOL
REMARK 927      BINDING AFFINITY PREDICTED BY RF-SCORE:    0.00 PKD
ROOT
HETATM    1  C   UNL     1      -9.241   2.362  67.196  1.00  0.00    -0.096 C  
HETATM    2  N   UNL     1      -8.336   3.516  67.117  1.00  0.00    -0.091 N  
HETATM    3  H   UNL     1      -7.853   3.873  67.941  1.00  0.00     0.000 HD 
ENDROOT
BRANCH   2   4
HETATM    4  S   UNL     1      -8.132   4.226  65.592  1.00  0.00    -0.106 S  
HETATM    5  O   UNL     1      -6.798   4.785  65.614  1.00  0.00    -0.058 OA 
HETATM    6  O   UNL     1      -8.505   3.205  64.636  1.00  0.00    -0.093 OA 
BRANCH   4   7
HETATM    7  C   UNL     1      -9.354   5.551  65.638  1.00  0.00    -0.047 C  
BRANCH   7   8
HETATM    8  C   UNL     1      -8.860   6.721  66.452  1.00  0.00    -0.153 A  
HETATM    9  C   UNL     1      -9.602   7.916  66.528  1.00  0.00    -0.281 A  
HETATM   10  C   UNL     1      -9.165   8.980  67.345  1.00  0.00    -0.158 A  
HETATM   11  C   UNL     1      -8.010   8.794  68.101  1.00  0.00    -0.106 A  
HETATM   12  C   UNL     1      -7.253   7.619  68.059  1.00  0.00    -0.097 A  
HETATM   13  N   UNL     1      -7.818   9.941  68.832  1.00  0.00    -0.086 NA 
HETATM   14  C   UNL     1      -7.696   6.590  67.220  1.00  0.00    -0.101 A  
HETATM   15  H   UNL     1      -7.049  10.094  69.484  1.00  0.00     0.000 HD 
HETATM   16  C   UNL     1      -8.804  10.848  68.562  1.00  0.00    -0.153 A  
HETATM   17  C   UNL     1      -9.650  10.302  67.614  1.00  0.00    -0.173 A  
BRANCH  17  18
HETATM   18  C   UNL     1     -10.847  10.983  67.002  1.00  0.00    -0.334 C  
BRANCH  18  19
HETATM   19  C   UNL     1     -10.911  12.483  67.364  1.00  0.00    -0.240 C  
BRANCH  19  20
HETATM   20  N   UNL     1     -10.581  13.424  66.271  1.00  0.00    -0.287 NA 
HETATM   21  C   UNL     1     -11.528  14.547  66.298  1.00  0.00    -0.358 C  
HETATM   22  C   UNL     1     -10.624  12.786  64.954  1.00  0.00    -0.314 C  
ENDBRANCH  19  20
ENDBRANCH  18  19
ENDBRANCH  17  18
ENDBRANCH   7   8
ENDBRANCH   4   7
ENDBRANCH   2   4
TORSDOF 6
ENDMDL
MODEL      239
REMARK 921   NORMALIZED FREE ENERGY PREDICTED BY IDOCK:   -1.50 KCAL/MOL
REMARK 922        TOTAL FREE ENERGY PREDICTED BY IDOCK:   -2.06 KCAL/MOL
REMARK 923 INTER-LIGAND FREE ENERGY PREDICTED BY IDOCK:   -2.76 KCAL/MOL
REMARK 924 INTRA-LIGAND FREE ENERGY PREDICTED BY IDOCK:    0.70 KCAL/MOL
REMARK 927      BINDING AFFINITY PREDICTED BY RF-SCORE:    0.00 PKD
ROOT
HETATM    1  C   UNL     1      -5.837   7.306  69.612  1.00  0.00    -0.023 C  
HETATM    2  N   UNL     1      -6.117   8.570  70.305  1.00  0.00    -0.030 N  
HETATM    3  H   UNL     1      -5.513   9.384  70.198  1.00  0.00     0.000 HD 
ENDROOT
BRANCH   2   4
HETATM    4  S   UNL     1      -7.495   8.613  71.292  1.00  0.00    -0.108 S  
HETATM    5  O   UNL     1      -6.998   8.916  72.616  1.00  0.00    -0.319 OA 
HETATM    6  O   UNL     1      -8.428   9.491  70.617  1.00  0.00    -0.200 OA 
BRANCH   4   7
HETATM    7  C   UNL     1      -8.049   6.899  71.221  1.00  0.00    -0.110 C  
BRANCH   7   8
HETATM    8  C   UNL     1      -8.944   6.663  70.031  1.00  0.00    -0.144 A  
HETATM    9  C   UNL     1      -8.416   6.608  68.726  1.00  0.00    -0.123 A  
HETATM   10  C   UNL     1      -9.252   6.320  67.626  1.00  0.00    -0.111 A  
HETATM   11  C   UNL     1     -10.595   6.051  67.877  1.00  0.00    -0.267 A  
HETATM   12  C   UNL     1     -11.153   6.087  69.159  1.00  0.00    -0.405 A  
HETATM   13  N   UNL     1     -11.181   5.765  66.668  1.00  0.00    -0.646 NA 
HETATM   14  C   UNL     1     -10.306   6.400  70.228  1.00  0.00    -0.252 A  
HETATM   15  H   UNL     1     -12.163   5.524  66.539  1.00  0.00     0.000 HD 
HETATM   16  C   UNL     1     -10.261   5.850  65.661  1.00  0.00     0.637 A  
HETATM   17  C   UNL     1      -9.048   6.226  66.210  1.00  0.00    -0.166 A  
BRANCH  17  18
HETATM   18  C   UNL     1      -7.773   6.475  65.448  1.00  0.00    -0.099 C  
BRANCH  18  19
HETATM   19  C   UNL     1      -7.742   7.882  64.809  1.00  0.00    -0.118 C  
BRANCH  19  20
HETATM   20  N   UNL     1      -7.482   7.923  63.354  1.00  0.00    -0.114 NA 
HETATM   21  C   UNL     1      -6.260   8.698  63.103  1.00  0.00    -0.086 C  
HETATM   22  C   UNL     1      -8.592   8.513  62.605  1.00  0.00    -0.074 C  
ENDBRANCH  19  20
ENDBRANCH  18  19
ENDBRANCH  17  18
ENDBRANCH   7   8
ENDBRANCH   4   7
ENDBRANCH   2   4
TORSDOF 6
ENDMDL
MODEL      240
REMARK 921   NORMALIZED FREE ENERGY PREDICTED BY IDOCK:   -1.21 KCAL/MOL
REMARK 922        TOTAL FREE ENERGY PREDICTED BY IDOCK:   -1.66 KCAL/MOL
REMARK 923 INTER-LIGAND FREE ENERGY PREDICTED BY IDOCK:   -1.91 KCAL/MOL
REMARK 924 INTRA-LIGAND FREE ENERGY PREDICTED BY IDOCK:    0.24 KCAL/MOL
REMARK 927      BINDING AFFINITY PREDICTED BY RF-SCORE:    0.00 PKD
ROOT
HETATM    1  C   UNL     1     -12.480  12.876  68.421  1.00  0.00     0.531 C  
HETATM    2  N   UNL     1     -11.639  12.819  67.219  1.00  0.00    -0.340 N  
HETATM    3  H   UNL     1     -11.885  13.329  66.370  1.00  0.00     0.000 HD 
ENDROOT
BRANCH   2   4
HETATM    4  S   UNL     1     -10.240  11.866  67.306  1.00  0.00    -0.201 S  
HETATM    5  O   UNL     1      -9.771  11.763  65.942  1.00  0.00    -0.227 OA 
HETATM    6  O   UNL     1      -9.426  12.468  68.341  1.00  0.00    -0.214 OA 
BRANCH   4   7
HETATM    7  C   UNL     1     -10.910  10.282  67.847  1.00  0.00    -0.284 C  
BRANCH   7   8
HETATM    8  C   UNL     1      -9.892   9.500  68.638  1.00  0.00    -0.173 A  
HETATM    9  C   UNL     1      -8.512   9.674  68.416  1.00  0.00    -0.118 A  
HETATM   10  C   UNL     1      -7.567   8.988  69.208  1.00  0.00    -0.079 A  
HETATM   11  C   UNL     1      -8.040   8.175  70.236  1.00  0.00    -0.109 A  
HETATM   12  C   UNL     1      -9.401   7.985  70.492  1.00  0.00    -0.155 A  
HETATM   13  N   UNL     1      -6.941   7.657  70.877  1.00  0.00    -0.053 NA 
HETATM   14  C   UNL     1     -10.316   8.658  69.675  1.00  0.00    -0.213 A  
HETATM   15  H   UNL     1      -6.978   7.027  71.678  1.00  0.00     0.000 HD 
HETATM   16  C   UNL     1      -5.791   8.105  70.289  1.00  0.00    -0.028 A  
HETATM   17  C   UNL     1      -6.135   8.915  69.222  1.00  0.00    -0.041 A  
BRANCH  17  18
HETATM   18  C   UNL     1      -5.173   9.584  68.275  1.00  0.00    -0.033 C  
BRANCH  18  19
HETATM   19  C   UNL     1      -5.743   9.689  66.843  1.00  0.00    -0.051 C  
BRANCH  19  20
HETATM   20  N   UNL     1      -5.134   8.789  65.840  1.00  0.00    -0.030 NA 
HETATM   21  C   UNL     1      -5.781   9.006  64.540  1.00  0.00    -0.064 C  
HETATM   22  C   UNL     1      -5.254   7.378  66.211  1.00  0.00    -0.024 C  
ENDBRANCH  19  20
ENDBRANCH  18  19
ENDBRANCH  17  18
ENDBRANCH   7   8
ENDBRANCH   4   7
ENDBRANCH   2   4
TORSDOF 6
ENDMDL
MODEL      241
REMARK 921   NORMALIZED FREE ENERGY PREDICTED BY IDOCK:   -0.72 KCAL/MOL
REMARK 922        TOTAL FREE ENERGY PREDICTED BY IDOCK:   -1.01 KCAL/MOL
REMARK 923 INTER-LIGAND FREE ENERGY PREDICTED BY IDOCK:   -0.51 KCAL/MOL
REMARK 924 INTRA-LIGAND FREE ENERGY PREDICTED BY IDOCK:   -0.50 KCAL/MOL
REMARK 927      BINDING AFFINITY PREDICTED BY RF-SCORE:    0.00 PKD
ROOT
HETATM    1  C   UNL     1     -11.656  16.943  70.933  1.00  0.00     0.838 C  
HETATM    2  N   UNL     1     -12.276  15.948  70.048  1.00  0.00    -0.332 N  
HETATM    3  H   UNL     1     -12.453  16.145  69.064  1.00  0.00     0.000 HD 
ENDROOT
BRANCH   2   4
HETATM    4  S   UNL     1     -12.683  14.456  70.741  1.00  0.00    -0.364 S  
HETATM    5  O   UNL     1     -11.455  13.968  71.329  1.00  0.00     0.172 OA 
HETATM    6  O   UNL     1     -13.857  14.711  71.549  1.00  0.00    -0.385 OA 
BRANCH   4   7
HETATM    7  C   UNL     1     -13.097  13.477  69.284  1.00  0.00     1.711 C  
BRANCH   7   8
HETATM    8  C   UNL     1     -11.872  12.818  68.703  1.00  0.00    -0.341 A  
HETATM    9  C   UNL     1     -10.863  13.581  68.081  1.00  0.00    -0.271 A  
HETATM   10  C   UNL     1      -9.690  12.963  67.601  1.00  0.00    -0.212 A  
HETATM   11  C   UNL     1      -9.544  11.592  67.799  1.00  0.00    -0.178 A  
HETATM   12  C   UNL     1     -10.518  10.804  68.419  1.00  0.00    -0.207 A  
HETATM   13  N   UNL     1      -8.319  11.240  67.286  1.00  0.00    -0.140 NA 
HETATM   14  C   UNL     1     -11.682  11.439  68.863  1.00  0.00    -0.409 A  
HETATM   15  H   UNL     1      -7.935  10.296  67.293  1.00  0.00     0.000 HD 
HETATM   16  C   UNL     1      -7.689  12.335  66.764  1.00  0.00     0.079 A  
HETATM   17  C   UNL     1      -8.523  13.429  66.911  1.00  0.00    -0.066 A  
BRANCH  17  18
HETATM   18  C   UNL     1      -8.235  14.829  66.434  1.00  0.00     0.461 C  
BRANCH  18  19
HETATM   19  C   UNL     1      -7.424  15.640  67.468  1.00  0.00    -0.179 C  
BRANCH  19  20
HETATM   20  N   UNL     1      -8.168  16.701  68.182  1.00  0.00    -0.186 NA 
HETATM   21  C   UNL     1      -9.325  17.106  67.373  1.00  0.00    -0.234 C  
HETATM   22  C   UNL     1      -7.338  17.872  68.462  1.00  0.00    -0.268 C  
ENDBRANCH  19  20
ENDBRANCH  18  19
ENDBRANCH  17  18
ENDBRANCH   7   8
ENDBRANCH   4   7
ENDBRANCH   2   4
TORSDOF 6
ENDMDL
MODEL      242
REMARK 921   NORMALIZED FREE ENERGY PREDICTED BY IDOCK:   -0.43 KCAL/MOL
REMARK 922        TOTAL FREE ENERGY PREDICTED BY IDOCK:   -0.61 KCAL/MOL
REMARK 923 INTER-LIGAND FREE ENERGY PREDICTED BY IDOCK:   -0.18 KCAL/MOL
REMARK 924 INTRA-LIGAND FREE ENERGY PREDICTED BY IDOCK:   -0.44 KCAL/MOL
REMARK 927      BINDING AFFINITY PREDICTED BY RF-SCORE:    0.00 PKD
ROOT
HETATM    1  C   UNL     1      -7.679  10.691  70.923  1.00  0.00     2.336 C  
HETATM    2  N   UNL     1      -8.368   9.760  70.021  1.00  0.00    -0.188 N  
HETATM    3  H   UNL     1      -8.211   8.753  70.070  1.00  0.00     0.000 HD 
ENDROOT
BRANCH   2   4
HETATM    4  S   UNL     1      -9.438  10.436  68.894  1.00  0.00    -0.193 S  
HETATM    5  O   UNL     1     -10.079   9.305  68.261  1.00  0.00    -0.170 OA 
HETATM    6  O   UNL     1     -10.203  11.422  69.628  1.00  0.00     0.110 OA 
BRANCH   4   7
HETATM    7  C   UNL     1      -8.302  11.224  67.738  1.00  0.00    -0.125 C  
BRANCH   7   8
HETATM    8  C   UNL     1      -8.367  10.574  66.379  1.00  0.00    -0.145 A  
HETATM    9  C   UNL     1      -7.591   9.436  66.081  1.00  0.00    -0.096 A  
HETATM   10  C   UNL     1      -7.709   8.796  64.830  1.00  0.00    -0.113 A  
HETATM   11  C   UNL     1      -8.642   9.294  63.924  1.00  0.00    -0.192 A  
HETATM   12  C   UNL     1      -9.436  10.415  64.187  1.00  0.00    -0.353 A  
HETATM   13  N   UNL     1      -8.596   8.487  62.814  1.00  0.00    -0.412 NA 
HETATM   14  C   UNL     1      -9.280  11.045  65.426  1.00  0.00    -0.232 A  
HETATM   15  H   UNL     1      -9.175   8.606  61.983  1.00  0.00     0.000 HD 
HETATM   16  C   UNL     1      -7.664   7.501  62.979  1.00  0.00    -0.123 A  
HETATM   17  C   UNL     1      -7.062   7.674  64.213  1.00  0.00    -0.067 A  
BRANCH  17  18
HETATM   18  C   UNL     1      -5.949   6.831  64.779  1.00  0.00    -0.035 C  
BRANCH  18  19
HETATM   19  C   UNL     1      -6.479   5.549  65.458  1.00  0.00    -0.040 C  
BRANCH  19  20
HETATM   20  N   UNL     1      -6.358   5.504  66.932  1.00  0.00    -0.038 NA 
HETATM   21  C   UNL     1      -5.217   4.655  67.298  1.00  0.00    -0.012 C  
HETATM   22  C   UNL     1      -7.569   4.993  67.575  1.00  0.00    -0.087 C  
ENDBRANCH  19  20
ENDBRANCH  18  19
ENDBRANCH  17  18
ENDBRANCH   7   8
ENDBRANCH   4   7
ENDBRANCH   2   4
TORSDOF 6
ENDMDL
MODEL      243
REMARK 921   NORMALIZED FREE ENERGY PREDICTED BY IDOCK:    1.03 KCAL/MOL
REMARK 922        TOTAL FREE ENERGY PREDICTED BY IDOCK:    1.36 KCAL/MOL
REMARK 923 INTER-LIGAND FREE ENERGY PREDICTED BY IDOCK:    0.91 KCAL/MOL
REMARK 924 INTRA-LIGAND FREE ENERGY PREDICTED BY IDOCK:    0.46 KCAL/MOL
REMARK 927      BINDING AFFINITY PREDICTED BY RF-SCORE:    0.00 PKD
ROOT
HETATM    1  C   UNL     1     -13.065  13.533  68.525  1.00  0.00     2.561 C  
HETATM    2  N   UNL     1     -11.844  12.803  68.166  1.00  0.00    -0.341 N  
HETATM    3  H   UNL     1     -11.876  11.944  67.617  1.00  0.00     0.000 HD 
ENDROOT
BRANCH   2   4
HETATM    4  S   UNL     1     -10.375  13.455  68.706  1.00  0.00    -0.089 S  
HETATM    5  O   UNL     1     -10.513  13.550  70.142  1.00  0.00     0.912 OA 
HETATM    6  O   UNL     1      -9.343  12.639  68.100  1.00  0.00    -0.202 OA 
BRANCH   4   7
HETATM    7  C   UNL     1     -10.414  15.102  67.974  1.00  0.00    -0.247 C  
BRANCH   7   8
HETATM    8  C   UNL     1      -9.021  15.623  67.726  1.00  0.00    -0.176 A  
HETATM    9  C   UNL     1      -8.683  16.959  68.019  1.00  0.00    -0.215 A  
HETATM   10  C   UNL     1      -7.361  17.418  67.848  1.00  0.00    -0.194 A  
HETATM   11  C   UNL     1      -6.399  16.503  67.425  1.00  0.00    -0.167 A  
HETATM   12  C   UNL     1      -6.694  15.168  67.133  1.00  0.00     0.148 A  
HETATM   13  N   UNL     1      -5.202  17.174  67.373  1.00  0.00    -0.119 NA 
HETATM   14  C   UNL     1      -8.019  14.747  67.288  1.00  0.00    -0.232 A  
HETATM   15  H   UNL     1      -4.312  16.756  67.100  1.00  0.00     0.000 HD 
HETATM   16  C   UNL     1      -5.370  18.480  67.740  1.00  0.00    -0.168 A  
HETATM   17  C   UNL     1      -6.710  18.685  68.015  1.00  0.00    -0.230 A  
BRANCH  17  18
HETATM   18  C   UNL     1      -7.339  19.994  68.416  1.00  0.00    -0.285 C  
BRANCH  18  19
HETATM   19  C   UNL     1      -7.337  20.196  69.947  1.00  0.00     0.336 C  
BRANCH  19  20
HETATM   20  N   UNL     1      -6.006  20.225  70.592  1.00  0.00    -0.458 NA 
HETATM   21  C   UNL     1      -6.172  20.459  72.032  1.00  0.00     0.224 C  
HETATM   22  C   UNL     1      -5.137  21.259  70.029  1.00  0.00    -0.152 C  
ENDBRANCH  19  20
ENDBRANCH  18  19
ENDBRANCH  17  18
ENDBRANCH   7   8
ENDBRANCH   4   7
ENDBRANCH   2   4
TORSDOF 6
ENDMDL
MODEL      244
REMARK 921   NORMALIZED FREE ENERGY PREDICTED BY IDOCK:    2.27 KCAL/MOL
REMARK 922        TOTAL FREE ENERGY PREDICTED BY IDOCK:    3.03 KCAL/MOL
REMARK 923 INTER-LIGAND FREE ENERGY PREDICTED BY IDOCK:    3.46 KCAL/MOL
REMARK 924 INTRA-LIGAND FREE ENERGY PREDICTED BY IDOCK:   -0.43 KCAL/MOL
REMARK 927      BINDING AFFINITY PREDICTED BY RF-SCORE:    0.00 PKD
ROOT
HETATM    1  C   UNL     1      -7.709  10.824  71.084  1.00  0.00     3.600 C  
HETATM    2  N   UNL     1      -8.590  10.086  70.171  1.00  0.00    -0.349 N  
HETATM    3  H   UNL     1      -8.585   9.067  70.130  1.00  0.00     0.000 HD 
ENDROOT
BRANCH   2   4
HETATM    4  S   UNL     1      -9.619  11.007  69.187  1.00  0.00     0.019 S  
HETATM    5  O   UNL     1     -10.180  10.063  68.246  1.00  0.00    -0.159 OA 
HETATM    6  O   UNL     1     -10.460  11.754  70.098  1.00  0.00     0.857 OA 
BRANCH   4   7
HETATM    7  C   UNL     1      -8.448  12.090  68.347  1.00  0.00    -0.147 C  
BRANCH   7   8
HETATM    8  C   UNL     1      -8.428  11.827  66.863  1.00  0.00    -0.174 A  
HETATM    9  C   UNL     1      -7.609  10.819  66.315  1.00  0.00    -0.142 A  
HETATM   10  C   UNL     1      -7.648  10.535  64.934  1.00  0.00    -0.006 A  
HETATM   11  C   UNL     1      -8.547  11.248  64.144  1.00  0.00     0.398 A  
HETATM   12  C   UNL     1      -9.382  12.248  64.652  1.00  0.00     0.365 A  
HETATM   13  N   UNL     1      -8.424  10.768  62.863  1.00  0.00    -0.297 NA 
HETATM   14  C   UNL     1      -9.304  12.525  66.022  1.00  0.00    -0.091 A  
HETATM   15  H   UNL     1      -8.964  11.098  62.064  1.00  0.00     0.000 HD 
HETATM   16  C   UNL     1      -7.477   9.784  62.811  1.00  0.00    -0.122 A  
HETATM   17  C   UNL     1      -6.942   9.627  64.077  1.00  0.00    -0.113 A  
BRANCH  17  18
HETATM   18  C   UNL     1      -5.838   8.677  64.458  1.00  0.00    -0.064 C  
BRANCH  18  19
HETATM   19  C   UNL     1      -6.366   7.252  64.735  1.00  0.00    -0.037 C  
BRANCH  19  20
HETATM   20  N   UNL     1      -5.926   6.206  63.786  1.00  0.00    -0.022 NA 
HETATM   21  C   UNL     1      -6.949   6.036  62.746  1.00  0.00    -0.041 C  
HETATM   22  C   UNL     1      -5.685   4.921  64.443  1.00  0.00    -0.017 C  
ENDBRANCH  19  20
ENDBRANCH  18  19
ENDBRANCH  17  18
ENDBRANCH   7   8
ENDBRANCH   4   7
ENDBRANCH   2   4
TORSDOF 6
ENDMDL
MODEL      245
REMARK 921   NORMALIZED FREE ENERGY PREDICTED BY IDOCK:   10.52 KCAL/MOL
REMARK 922        TOTAL FREE ENERGY PREDICTED BY IDOCK:   14.18 KCAL/MOL
REMARK 923 INTER-LIGAND FREE ENERGY PREDICTED BY IDOCK:   14.56 KCAL/MOL
REMARK 924 INTRA-LIGAND FREE ENERGY PREDICTED BY IDOCK:   -0.38 KCAL/MOL
REMARK 927      BINDING AFFINITY PREDICTED BY RF-SCORE:    0.00 PKD
ROOT
HETATM    1  C   UNL     1      -7.406  12.685  71.916  1.00  0.00     9.023 C  
HETATM    2  N   UNL     1      -7.959  11.720  70.958  1.00  0.00     5.719 N  
HETATM    3  H   UNL     1      -8.446  10.879  71.267  1.00  0.00     0.000 HD 
ENDROOT
BRANCH   2   4
HETATM    4  S   UNL     1      -7.750  12.070  69.312  1.00  0.00     0.459 S  
HETATM    5  O   UNL     1      -8.483  11.036  68.614  1.00  0.00    -0.145 OA 
HETATM    6  O   UNL     1      -8.095  13.468  69.167  1.00  0.00     0.157 OA 
BRANCH   4   7
HETATM    7  C   UNL     1      -5.977  11.813  69.106  1.00  0.00    -0.070 C  
BRANCH   7   8
HETATM    8  C   UNL     1      -5.695  10.545  68.339  1.00  0.00    -0.036 A  
HETATM    9  C   UNL     1      -5.828   9.283  68.950  1.00  0.00    -0.040 A  
HETATM   10  C   UNL     1      -5.627   8.101  68.206  1.00  0.00    -0.034 A  
HETATM   11  C   UNL     1      -5.339   8.223  66.849  1.00  0.00    -0.032 A  
HETATM   12  C   UNL     1      -5.209   9.458  66.205  1.00  0.00    -0.040 A  
HETATM   13  N   UNL     1      -5.229   6.950  66.345  1.00  0.00    -0.021 NA 
HETATM   14  C   UNL     1      -5.388  10.613  66.974  1.00  0.00    -0.043 A  
HETATM   15  H   UNL     1      -5.026   6.725  65.372  1.00  0.00     0.000 HD 
HETATM   16  C   UNL     1      -5.429   6.027  67.333  1.00  0.00    -0.005 A  
HETATM   17  C   UNL     1      -5.650   6.702  68.521  1.00  0.00    -0.016 A  
BRANCH  17  18
HETATM   18  C   UNL     1      -5.874   6.068  69.868  1.00  0.00    -0.017 C  
BRANCH  18  19
HETATM   19  C   UNL     1      -7.371   5.810  70.148  1.00  0.00    -0.073 C  
BRANCH  19  20
HETATM   20  N   UNL     1      -7.746   4.400  70.392  1.00  0.00    -0.052 NA 
HETATM   21  C   UNL     1      -8.492   3.891  69.234  1.00  0.00    -0.069 C  
HETATM   22  C   UNL     1      -8.558   4.240  71.599  1.00  0.00    -0.108 C  
ENDBRANCH  19  20
ENDBRANCH  18  19
ENDBRANCH  17  18
ENDBRANCH   7   8
ENDBRANCH   4   7
ENDBRANCH   2   4
TORSDOF 6
ENDMDL
MODEL      246
REMARK 921   NORMALIZED FREE ENERGY PREDICTED BY IDOCK:   18.09 KCAL/MOL
REMARK 922        TOTAL FREE ENERGY PREDICTED BY IDOCK:   24.40 KCAL/MOL
REMARK 923 INTER-LIGAND FREE ENERGY PREDICTED BY IDOCK:   23.45 KCAL/MOL
REMARK 924 INTRA-LIGAND FREE ENERGY PREDICTED BY IDOCK:    0.95 KCAL/MOL
REMARK 927      BINDING AFFINITY PREDICTED BY RF-SCORE:    0.00 PKD
ROOT
HETATM    1  C   UNL     1      -9.647  20.742  70.858  1.00  0.00     2.234 C  
HETATM    2  N   UNL     1     -10.804  20.167  71.557  1.00  0.00     2.928 N  
HETATM    3  H   UNL     1     -11.756  20.472  71.355  1.00  0.00     0.000 HD 
ENDROOT
BRANCH   2   4
HETATM    4  S   UNL     1     -10.482  18.973  72.716  1.00  0.00     4.523 S  
HETATM    5  O   UNL     1      -9.121  18.558  72.458  1.00  0.00     9.360 OA 
HETATM    6  O   UNL     1     -10.865  19.553  73.986  1.00  0.00     2.994 OA 
BRANCH   4   7
HETATM    7  C   UNL     1     -11.626  17.669  72.225  1.00  0.00     2.228 C  
BRANCH   7   8
HETATM    8  C   UNL     1     -11.033  16.802  71.143  1.00  0.00     0.637 A  
HETATM    9  C   UNL     1      -9.990  17.276  70.324  1.00  0.00     1.382 A  
HETATM   10  C   UNL     1      -9.396  16.434  69.360  1.00  0.00    -0.090 A  
HETATM   11  C   UNL     1      -9.843  15.117  69.276  1.00  0.00    -0.230 A  
HETATM   12  C   UNL     1     -10.870  14.608  70.078  1.00  0.00    -0.094 A  
HETATM   13  N   UNL     1      -9.094  14.499  68.305  1.00  0.00    -0.190 NA 
HETATM   14  C   UNL     1     -11.457  15.473  71.008  1.00  0.00    -0.426 A  
HETATM   15  H   UNL     1      -9.194  13.524  68.026  1.00  0.00     0.000 HD 
HETATM   16  C   UNL     1      -8.195  15.376  67.766  1.00  0.00    -0.149 A  
HETATM   17  C   UNL     1      -8.370  16.607  68.373  1.00  0.00    -0.208 A  
BRANCH  17  18
HETATM   18  C   UNL     1      -7.614  17.868  68.047  1.00  0.00    -0.238 C  
BRANCH  18  19
HETATM   19  C   UNL     1      -8.486  19.131  68.220  1.00  0.00    -0.332 C  
BRANCH  19  20
HETATM   20  N   UNL     1      -8.233  20.225  67.258  1.00  0.00    -0.335 NA 
HETATM   21  C   UNL     1      -8.325  19.697  65.890  1.00  0.00    -0.174 C  
HETATM   22  C   UNL     1      -6.921  20.845  67.450  1.00  0.00    -0.368 C  
ENDBRANCH  19  20
ENDBRANCH  18  19
ENDBRANCH  17  18
ENDBRANCH   7   8
ENDBRANCH   4   7
ENDBRANCH   2   4
TORSDOF 6
ENDMDL
