MODEL        1
REMARK 921   NORMALIZED FREE ENERGY PREDICTED BY IDOCK:   -7.05 KCAL/MOL
REMARK 922        TOTAL FREE ENERGY PREDICTED BY IDOCK:  -11.02 KCAL/MOL
REMARK 923 INTER-LIGAND FREE ENERGY PREDICTED BY IDOCK:   -9.94 KCAL/MOL
REMARK 924 INTRA-LIGAND FREE ENERGY PREDICTED BY IDOCK:   -1.09 KCAL/MOL
REMARK 927      BINDING AFFINITY PREDICTED BY RF-SCORE:    0.00 PKD
ROOT
HETATM    1  C   UNL     1      -9.923  18.866  68.763  1.00  0.00    -0.466 C  
HETATM    2  C   UNL     1      -9.438  20.054  67.937  1.00  0.00    -0.351 C  
ENDROOT
BRANCH   2   3
HETATM    3  N   UNL     1      -8.347  19.751  66.995  1.00  0.00    -0.296 NA 
BRANCH   3   4
HETATM    4  C   UNL     1      -7.293  20.785  66.953  1.00  0.00    -0.252 C  
HETATM    5  C   UNL     1      -6.050  20.530  67.806  1.00  0.00    -0.300 C  
ENDBRANCH   3   4
BRANCH   3   6
HETATM    6  C   UNL     1      -7.758  18.415  67.259  1.00  0.00    -0.223 C  
BRANCH   6   7
HETATM    7  C   UNL     1      -7.859  17.398  66.108  1.00  0.00    -0.258 C  
BRANCH   7   8
HETATM    8  N   UNL     1      -8.720  16.284  66.433  1.00  0.00    -0.291 N  
HETATM    9  C   UNL     1     -10.063  16.320  66.149  1.00  0.00    -0.344 C  
HETATM   10  H   UNL     1      -8.325  15.457  66.881  1.00  0.00     0.000 HD 
HETATM   11  O   UNL     1     -10.587  17.284  65.594  1.00  0.00    -0.516 OA 
BRANCH   9  12
HETATM   12  C   UNL     1     -10.822  15.122  66.516  1.00  0.00    -0.317 A  
HETATM   13  C   UNL     1     -11.620  14.315  65.711  1.00  0.00    -0.346 A  
HETATM   14  C   UNL     1     -11.963  14.344  64.262  1.00  0.00    -0.433 C  
HETATM   15  N   UNL     1     -12.100  13.286  66.494  1.00  0.00    -0.393 NA 
HETATM   16  H   UNL     1     -12.736  12.558  66.167  1.00  0.00     0.000 HD 
HETATM   17  C   UNL     1     -11.610  13.371  67.768  1.00  0.00    -0.340 A  
HETATM   18  C   UNL     1     -10.809  14.505  67.820  1.00  0.00    -0.267 A  
HETATM   19  C   UNL     1     -10.049  15.018  69.003  1.00  0.00    -0.241 C  
BRANCH  17  20
HETATM   20  C   UNL     1     -11.909  12.422  68.779  1.00  0.00    -0.358 C  
HETATM   21  C   UNL     1     -11.150  11.465  69.330  1.00  0.00    -0.313 C  
HETATM   22  C   UNL     1      -9.726  11.039  69.079  1.00  0.00    -0.134 C  
HETATM   23  N   UNL     1      -9.505   9.983  69.957  1.00  0.00    -0.381 N  
HETATM   24  O   UNL     1      -8.933  11.504  68.286  1.00  0.00    -0.165 OA 
HETATM   25  C   UNL     1     -10.634   9.709  70.723  1.00  0.00    -0.322 A  
HETATM   26  H   UNL     1      -8.625   9.472  70.030  1.00  0.00     0.000 HD 
HETATM   27  C   UNL     1     -11.672  10.583  70.388  1.00  0.00    -0.434 A  
HETATM   28  C   UNL     1     -12.896  10.500  71.029  1.00  0.00    -0.502 A  
HETATM   29  C   UNL     1     -13.051   9.519  72.003  1.00  0.00    -0.438 A  
HETATM   30  F   UNL     1     -14.225   9.412  72.638  1.00  0.00    -0.450 F  
HETATM   31  C   UNL     1     -12.011   8.640  72.335  1.00  0.00    -0.410 A  
HETATM   32  C   UNL     1     -10.775   8.730  71.689  1.00  0.00    -0.397 A  
ENDBRANCH  17  20
ENDBRANCH   9  12
ENDBRANCH   7   8
ENDBRANCH   6   7
ENDBRANCH   3   6
ENDBRANCH   2   3
TORSDOF 7
ENDMDL
MODEL        2
REMARK 921   NORMALIZED FREE ENERGY PREDICTED BY IDOCK:   -7.02 KCAL/MOL
REMARK 922        TOTAL FREE ENERGY PREDICTED BY IDOCK:  -10.97 KCAL/MOL
REMARK 923 INTER-LIGAND FREE ENERGY PREDICTED BY IDOCK:  -10.04 KCAL/MOL
REMARK 924 INTRA-LIGAND FREE ENERGY PREDICTED BY IDOCK:   -0.93 KCAL/MOL
REMARK 927      BINDING AFFINITY PREDICTED BY RF-SCORE:    0.00 PKD
ROOT
HETATM    1  C   UNL     1     -10.077  19.995  67.299  1.00  0.00    -0.577 C  
HETATM    2  C   UNL     1      -9.094  19.574  66.211  1.00  0.00    -0.360 C  
ENDROOT
BRANCH   2   3
HETATM    3  N   UNL     1      -9.119  18.141  65.872  1.00  0.00    -0.480 NA 
BRANCH   3   4
HETATM    4  C   UNL     1      -7.927  17.400  66.332  1.00  0.00    -0.290 C  
HETATM    5  C   UNL     1      -7.679  17.372  67.841  1.00  0.00    -0.201 C  
ENDBRANCH   3   4
BRANCH   3   6
HETATM    6  C   UNL     1     -10.359  17.490  66.359  1.00  0.00    -0.334 C  
BRANCH   6   7
HETATM    7  C   UNL     1     -10.602  16.052  65.864  1.00  0.00    -0.328 C  
BRANCH   7   8
HETATM    8  N   UNL     1     -10.634  15.096  66.946  1.00  0.00    -0.291 N  
HETATM    9  C   UNL     1     -11.670  14.203  67.072  1.00  0.00    -0.405 C  
HETATM   10  H   UNL     1      -9.876  15.083  67.629  1.00  0.00     0.000 HD 
HETATM   11  O   UNL     1     -12.598  14.164  66.268  1.00  0.00    -0.449 OA 
BRANCH   9  12
HETATM   12  C   UNL     1     -11.576  13.278  68.205  1.00  0.00    -0.373 A  
HETATM   13  C   UNL     1     -11.909  13.496  69.538  1.00  0.00    -0.334 A  
HETATM   14  C   UNL     1     -12.472  14.665  70.269  1.00  0.00    -0.401 C  
HETATM   15  N   UNL     1     -11.682  12.322  70.225  1.00  0.00    -0.542 NA 
HETATM   16  H   UNL     1     -11.815  12.204  71.229  1.00  0.00     0.000 HD 
HETATM   17  C   UNL     1     -11.255  11.336  69.378  1.00  0.00    -0.280 A  
HETATM   18  C   UNL     1     -11.176  11.895  68.109  1.00  0.00    -0.316 A  
HETATM   19  C   UNL     1     -10.758  11.209  66.846  1.00  0.00    -0.322 C  
BRANCH  17  20
HETATM   20  C   UNL     1     -10.980  10.012  69.807  1.00  0.00    -0.317 C  
HETATM   21  C   UNL     1     -11.510   9.290  70.803  1.00  0.00    -0.351 C  
HETATM   22  C   UNL     1     -12.567   9.609  71.828  1.00  0.00    -0.409 C  
HETATM   23  N   UNL     1     -12.682   8.458  72.600  1.00  0.00    -0.609 N  
HETATM   24  O   UNL     1     -13.190  10.642  71.965  1.00  0.00    -0.473 OA 
HETATM   25  C   UNL     1     -11.813   7.461  72.166  1.00  0.00    -0.286 A  
HETATM   26  H   UNL     1     -13.324   8.357  73.387  1.00  0.00     0.000 HD 
HETATM   27  C   UNL     1     -11.072   7.908  71.069  1.00  0.00    -0.268 A  
HETATM   28  C   UNL     1     -10.142   7.080  70.463  1.00  0.00    -0.202 A  
HETATM   29  C   UNL     1      -9.975   5.803  70.990  1.00  0.00    -0.190 A  
HETATM   30  F   UNL     1      -9.081   4.980  70.427  1.00  0.00    -0.131 F  
HETATM   31  C   UNL     1     -10.716   5.357  72.093  1.00  0.00    -0.286 A  
HETATM   32  C   UNL     1     -11.657   6.195  72.699  1.00  0.00    -0.239 A  
ENDBRANCH  17  20
ENDBRANCH   9  12
ENDBRANCH   7   8
ENDBRANCH   6   7
ENDBRANCH   3   6
ENDBRANCH   2   3
TORSDOF 7
ENDMDL
MODEL        3
REMARK 921   NORMALIZED FREE ENERGY PREDICTED BY IDOCK:   -6.86 KCAL/MOL
REMARK 922        TOTAL FREE ENERGY PREDICTED BY IDOCK:  -10.76 KCAL/MOL
REMARK 923 INTER-LIGAND FREE ENERGY PREDICTED BY IDOCK:   -9.81 KCAL/MOL
REMARK 924 INTRA-LIGAND FREE ENERGY PREDICTED BY IDOCK:   -0.95 KCAL/MOL
REMARK 927      BINDING AFFINITY PREDICTED BY RF-SCORE:    0.00 PKD
ROOT
HETATM    1  C   UNL     1     -14.393   8.206  71.667  1.00  0.00    -0.570 C  
HETATM    2  C   UNL     1     -13.311   9.185  72.112  1.00  0.00    -0.463 C  
ENDROOT
BRANCH   2   3
HETATM    3  N   UNL     1     -11.934   8.787  71.773  1.00  0.00    -0.324 NA 
BRANCH   3   4
HETATM    4  C   UNL     1     -11.845   7.488  71.075  1.00  0.00    -0.293 C  
HETATM    5  C   UNL     1     -11.218   6.333  71.857  1.00  0.00    -0.332 C  
ENDBRANCH   3   4
BRANCH   3   6
HETATM    6  C   UNL     1     -11.238   9.844  71.000  1.00  0.00    -0.364 C  
BRANCH   6   7
HETATM    7  C   UNL     1     -12.137  10.747  70.136  1.00  0.00    -0.346 C  
BRANCH   7   8
HETATM    8  N   UNL     1     -11.779  12.142  70.242  1.00  0.00    -0.534 N  
HETATM    9  C   UNL     1     -11.806  12.966  69.144  1.00  0.00    -0.303 C  
HETATM   10  H   UNL     1     -11.500  12.522  71.147  1.00  0.00     0.000 HD 
HETATM   11  O   UNL     1     -12.152  12.564  68.035  1.00  0.00    -0.351 OA 
BRANCH   9  12
HETATM   12  C   UNL     1     -11.434  14.362  69.388  1.00  0.00    -0.330 A  
HETATM   13  C   UNL     1     -12.087  15.315  70.163  1.00  0.00    -0.358 A  
HETATM   14  C   UNL     1     -13.316  15.277  71.003  1.00  0.00    -0.537 C  
HETATM   15  N   UNL     1     -11.342  16.475  70.118  1.00  0.00    -0.437 NA 
HETATM   16  H   UNL     1     -11.602  17.349  70.576  1.00  0.00     0.000 HD 
HETATM   17  C   UNL     1     -10.206  16.297  69.376  1.00  0.00    -0.265 A  
HETATM   18  C   UNL     1     -10.229  14.991  68.904  1.00  0.00    -0.235 A  
HETATM   19  C   UNL     1      -9.199  14.324  68.047  1.00  0.00    -0.192 C  
BRANCH  17  20
HETATM   20  C   UNL     1      -9.234  17.314  69.189  1.00  0.00    -0.014 C  
HETATM   21  C   UNL     1      -8.970  18.083  68.125  1.00  0.00    -0.287 C  
HETATM   22  C   UNL     1      -9.585  18.149  66.750  1.00  0.00    -0.301 C  
HETATM   23  N   UNL     1      -8.878  19.143  66.084  1.00  0.00    -0.282 N  
HETATM   24  O   UNL     1     -10.498  17.482  66.305  1.00  0.00    -0.341 OA 
HETATM   25  C   UNL     1      -7.893  19.702  66.894  1.00  0.00    -0.275 A  
HETATM   26  H   UNL     1      -9.058  19.429  65.121  1.00  0.00     0.000 HD 
HETATM   27  C   UNL     1      -7.901  19.098  68.154  1.00  0.00    -0.336 A  
HETATM   28  C   UNL     1      -7.007  19.497  69.133  1.00  0.00    -0.392 A  
HETATM   29  C   UNL     1      -6.107  20.509  68.811  1.00  0.00    -0.338 A  
HETATM   30  F   UNL     1      -5.228  20.914  69.736  1.00  0.00    -0.305 F  
HETATM   31  C   UNL     1      -6.097  21.111  67.546  1.00  0.00    -0.420 A  
HETATM   32  C   UNL     1      -7.005  20.707  66.562  1.00  0.00    -0.289 A  
ENDBRANCH  17  20
ENDBRANCH   9  12
ENDBRANCH   7   8
ENDBRANCH   6   7
ENDBRANCH   3   6
ENDBRANCH   2   3
TORSDOF 7
ENDMDL
MODEL        4
REMARK 921   NORMALIZED FREE ENERGY PREDICTED BY IDOCK:   -6.76 KCAL/MOL
REMARK 922        TOTAL FREE ENERGY PREDICTED BY IDOCK:  -10.61 KCAL/MOL
REMARK 923 INTER-LIGAND FREE ENERGY PREDICTED BY IDOCK:   -9.63 KCAL/MOL
REMARK 924 INTRA-LIGAND FREE ENERGY PREDICTED BY IDOCK:   -0.98 KCAL/MOL
REMARK 927      BINDING AFFINITY PREDICTED BY RF-SCORE:    0.00 PKD
ROOT
HETATM    1  C   UNL     1     -10.207   5.463  69.923  1.00  0.00    -0.351 C  
HETATM    2  C   UNL     1      -9.401   4.897  71.088  1.00  0.00    -0.150 C  
ENDROOT
BRANCH   2   3
HETATM    3  N   UNL     1     -10.181   4.621  72.307  1.00  0.00    -0.189 NA 
BRANCH   3   4
HETATM    4  C   UNL     1     -10.388   3.183  72.568  1.00  0.00    -0.106 C  
HETATM    5  C   UNL     1      -9.537   2.209  71.752  1.00  0.00    -0.205 C  
ENDBRANCH   3   4
BRANCH   3   6
HETATM    6  C   UNL     1      -9.588   5.287  73.492  1.00  0.00    -0.134 C  
BRANCH   6   7
HETATM    7  C   UNL     1     -10.409   6.440  74.096  1.00  0.00    -0.317 C  
BRANCH   7   8
HETATM    8  N   UNL     1     -11.061   7.240  73.084  1.00  0.00    -0.526 N  
HETATM    9  C   UNL     1     -10.442   8.339  72.543  1.00  0.00    -0.336 C  
HETATM   10  H   UNL     1     -11.996   6.985  72.767  1.00  0.00     0.000 HD 
HETATM   11  O   UNL     1      -9.309   8.680  72.875  1.00  0.00    -0.241 OA 
BRANCH   9  12
HETATM   12  C   UNL     1     -11.204   9.056  71.517  1.00  0.00    -0.418 A  
HETATM   13  C   UNL     1     -12.537   9.453  71.540  1.00  0.00    -0.362 A  
HETATM   14  C   UNL     1     -13.618   9.331  72.557  1.00  0.00    -0.478 C  
HETATM   15  N   UNL     1     -12.795  10.126  70.364  1.00  0.00    -0.566 NA 
HETATM   16  H   UNL     1     -13.706  10.504  70.102  1.00  0.00     0.000 HD 
HETATM   17  C   UNL     1     -11.667  10.218  69.596  1.00  0.00    -0.160 A  
HETATM   18  C   UNL     1     -10.653   9.561  70.282  1.00  0.00    -0.317 A  
HETATM   19  C   UNL     1      -9.231   9.395  69.847  1.00  0.00    -0.226 C  
BRANCH  17  20
HETATM   20  C   UNL     1     -11.631  10.891  68.348  1.00  0.00    -0.346 C  
HETATM   21  C   UNL     1     -11.766  12.191  68.055  1.00  0.00    -0.409 C  
HETATM   22  C   UNL     1     -12.011  13.401  68.920  1.00  0.00    -0.324 C  
HETATM   23  N   UNL     1     -12.062  14.474  68.037  1.00  0.00    -0.574 N  
HETATM   24  O   UNL     1     -12.140  13.445  70.127  1.00  0.00    -0.333 OA 
HETATM   25  C   UNL     1     -11.875  14.063  66.720  1.00  0.00    -0.424 A  
HETATM   26  H   UNL     1     -12.217  15.442  68.319  1.00  0.00     0.000 HD 
HETATM   27  C   UNL     1     -11.686  12.679  66.666  1.00  0.00    -0.464 A  
HETATM   28  C   UNL     1     -11.475  12.044  65.454  1.00  0.00    -0.361 A  
HETATM   29  C   UNL     1     -11.465  12.830  64.306  1.00  0.00    -0.373 A  
HETATM   30  F   UNL     1     -11.267  12.244  63.118  1.00  0.00    -0.455 F  
HETATM   31  C   UNL     1     -11.659  14.217  64.361  1.00  0.00    -0.358 A  
HETATM   32  C   UNL     1     -11.867  14.855  65.587  1.00  0.00    -0.131 A  
ENDBRANCH  17  20
ENDBRANCH   9  12
ENDBRANCH   7   8
ENDBRANCH   6   7
ENDBRANCH   3   6
ENDBRANCH   2   3
TORSDOF 7
ENDMDL
MODEL        5
REMARK 921   NORMALIZED FREE ENERGY PREDICTED BY IDOCK:   -6.75 KCAL/MOL
REMARK 922        TOTAL FREE ENERGY PREDICTED BY IDOCK:  -10.60 KCAL/MOL
REMARK 923 INTER-LIGAND FREE ENERGY PREDICTED BY IDOCK:   -9.90 KCAL/MOL
REMARK 924 INTRA-LIGAND FREE ENERGY PREDICTED BY IDOCK:   -0.70 KCAL/MOL
REMARK 927      BINDING AFFINITY PREDICTED BY RF-SCORE:    0.00 PKD
ROOT
HETATM    1  C   UNL     1      -9.669   8.789  71.905  1.00  0.00    -0.386 C  
HETATM    2  C   UNL     1     -10.878   7.971  72.350  1.00  0.00    -0.327 C  
ENDROOT
BRANCH   2   3
HETATM    3  N   UNL     1     -11.770   7.539  71.260  1.00  0.00    -0.280 NA 
BRANCH   3   4
HETATM    4  C   UNL     1     -11.393   6.243  70.660  1.00  0.00    -0.343 C  
HETATM    5  C   UNL     1     -11.054   6.253  69.169  1.00  0.00    -0.457 C  
ENDBRANCH   3   4
BRANCH   3   6
HETATM    6  C   UNL     1     -13.188   7.519  71.696  1.00  0.00    -0.356 C  
BRANCH   6   7
HETATM    7  C   UNL     1     -14.057   8.693  71.208  1.00  0.00    -0.178 C  
BRANCH   7   8
HETATM    8  N   UNL     1     -13.287   9.691  70.502  1.00  0.00    -0.493 N  
HETATM    9  C   UNL     1     -12.914  10.862  71.114  1.00  0.00    -0.352 C  
HETATM   10  H   UNL     1     -13.016   9.524  69.533  1.00  0.00     0.000 HD 
HETATM   11  O   UNL     1     -13.198  11.106  72.285  1.00  0.00    -0.413 OA 
BRANCH   9  12
HETATM   12  C   UNL     1     -12.125  11.784  70.293  1.00  0.00    -0.426 A  
HETATM   13  C   UNL     1     -11.309  11.499  69.202  1.00  0.00    -0.286 A  
HETATM   14  C   UNL     1     -10.970  10.238  68.486  1.00  0.00    -0.294 C  
HETATM   15  N   UNL     1     -10.801  12.693  68.735  1.00  0.00    -0.266 NA 
HETATM   16  H   UNL     1     -10.148  12.779  67.956  1.00  0.00     0.000 HD 
HETATM   17  C   UNL     1     -11.290  13.748  69.456  1.00  0.00    -0.224 A  
HETATM   18  C   UNL     1     -12.119  13.220  70.438  1.00  0.00    -0.401 A  
HETATM   19  C   UNL     1     -12.889  13.979  71.473  1.00  0.00    -0.440 C  
BRANCH  17  20
HETATM   20  C   UNL     1     -10.965  15.099  69.172  1.00  0.00    -0.260 C  
HETATM   21  C   UNL     1     -10.764  15.720  68.002  1.00  0.00    -0.296 C  
HETATM   22  C   UNL     1     -10.796  15.225  66.579  1.00  0.00    -0.311 C  
HETATM   23  N   UNL     1     -10.499  16.340  65.802  1.00  0.00    -0.363 N  
HETATM   24  O   UNL     1     -11.027  14.101  66.182  1.00  0.00    -0.302 OA 
HETATM   25  C   UNL     1     -10.287  17.470  66.586  1.00  0.00    -0.319 A  
HETATM   26  H   UNL     1     -10.444  16.330  64.783  1.00  0.00     0.000 HD 
HETATM   27  C   UNL     1     -10.437  17.156  67.939  1.00  0.00    -0.369 A  
HETATM   28  C   UNL     1     -10.277  18.130  68.910  1.00  0.00    -0.304 A  
HETATM   29  C   UNL     1      -9.957  19.417  68.487  1.00  0.00    -0.434 A  
HETATM   30  F   UNL     1      -9.792  20.380  69.403  1.00  0.00    -0.128 F  
HETATM   31  C   UNL     1      -9.802  19.729  67.130  1.00  0.00    -0.513 A  
HETATM   32  C   UNL     1      -9.970  18.744  66.153  1.00  0.00    -0.378 A  
ENDBRANCH  17  20
ENDBRANCH   9  12
ENDBRANCH   7   8
ENDBRANCH   6   7
ENDBRANCH   3   6
ENDBRANCH   2   3
TORSDOF 7
ENDMDL
MODEL        6
REMARK 921   NORMALIZED FREE ENERGY PREDICTED BY IDOCK:   -6.72 KCAL/MOL
REMARK 922        TOTAL FREE ENERGY PREDICTED BY IDOCK:  -10.56 KCAL/MOL
REMARK 923 INTER-LIGAND FREE ENERGY PREDICTED BY IDOCK:   -9.52 KCAL/MOL
REMARK 924 INTRA-LIGAND FREE ENERGY PREDICTED BY IDOCK:   -1.03 KCAL/MOL
REMARK 927      BINDING AFFINITY PREDICTED BY RF-SCORE:    0.00 PKD
ROOT
HETATM    1  C   UNL     1     -11.056   6.239  68.555  1.00  0.00    -0.397 C  
HETATM    2  C   UNL     1     -11.156   6.161  70.075  1.00  0.00    -0.392 C  
ENDROOT
BRANCH   2   3
HETATM    3  N   UNL     1     -11.814   7.314  70.714  1.00  0.00    -0.306 NA 
BRANCH   3   4
HETATM    4  C   UNL     1     -12.811   6.939  71.737  1.00  0.00    -0.304 C  
HETATM    5  C   UNL     1     -14.183   7.606  71.633  1.00  0.00    -0.578 C  
ENDBRANCH   3   4
BRANCH   3   6
HETATM    6  C   UNL     1     -10.821   8.262  71.276  1.00  0.00    -0.237 C  
BRANCH   6   7
HETATM    7  C   UNL     1     -11.338   9.684  71.561  1.00  0.00    -0.350 C  
BRANCH   7   8
HETATM    8  N   UNL     1     -10.952  10.626  70.536  1.00  0.00    -0.425 N  
HETATM    9  C   UNL     1     -11.854  11.058  69.596  1.00  0.00    -0.342 C  
HETATM   10  H   UNL     1      -9.994  10.975  70.509  1.00  0.00     0.000 HD 
HETATM   11  O   UNL     1     -13.024  10.683  69.593  1.00  0.00    -0.120 OA 
BRANCH   9  12
HETATM   12  C   UNL     1     -11.340  12.023  68.620  1.00  0.00    -0.329 A  
HETATM   13  C   UNL     1     -10.788  11.783  67.365  1.00  0.00    -0.251 A  
HETATM   14  C   UNL     1     -10.548  10.542  66.578  1.00  0.00    -0.240 C  
HETATM   15  N   UNL     1     -10.481  13.004  66.802  1.00  0.00    -0.258 NA 
HETATM   16  H   UNL     1     -10.036  13.126  65.892  1.00  0.00     0.000 HD 
HETATM   17  C   UNL     1     -10.853  14.030  67.627  1.00  0.00    -0.262 A  
HETATM   18  C   UNL     1     -11.392  13.457  68.771  1.00  0.00    -0.332 A  
HETATM   19  C   UNL     1     -11.943  14.173  69.965  1.00  0.00    -0.404 C  
BRANCH  17  20
HETATM   20  C   UNL     1     -10.690  15.398  67.285  1.00  0.00    -0.307 C  
HETATM   21  C   UNL     1      -9.869  16.330  67.788  1.00  0.00    -0.237 C  
HETATM   22  C   UNL     1      -8.840  16.281  68.888  1.00  0.00    -0.253 C  
HETATM   23  N   UNL     1      -8.318  17.568  68.952  1.00  0.00    -0.205 N  
HETATM   24  O   UNL     1      -8.527  15.333  69.579  1.00  0.00    -0.247 OA 
HETATM   25  C   UNL     1      -8.908  18.408  68.013  1.00  0.00    -0.287 A  
HETATM   26  H   UNL     1      -7.591  17.860  69.606  1.00  0.00     0.000 HD 
HETATM   27  C   UNL     1      -9.863  17.710  67.269  1.00  0.00    -0.303 A  
HETATM   28  C   UNL     1     -10.578  18.344  66.268  1.00  0.00    -0.343 A  
HETATM   29  C   UNL     1     -10.316  19.691  66.041  1.00  0.00    -0.523 A  
HETATM   30  F   UNL     1     -10.994  20.333  65.081  1.00  0.00    -0.481 F  
HETATM   31  C   UNL     1      -9.361  20.393  66.790  1.00  0.00    -0.440 A  
HETATM   32  C   UNL     1      -8.638  19.747  67.797  1.00  0.00    -0.373 A  
ENDBRANCH  17  20
ENDBRANCH   9  12
ENDBRANCH   7   8
ENDBRANCH   6   7
ENDBRANCH   3   6
ENDBRANCH   2   3
TORSDOF 7
ENDMDL
MODEL        7
REMARK 921   NORMALIZED FREE ENERGY PREDICTED BY IDOCK:   -6.66 KCAL/MOL
REMARK 922        TOTAL FREE ENERGY PREDICTED BY IDOCK:  -10.47 KCAL/MOL
REMARK 923 INTER-LIGAND FREE ENERGY PREDICTED BY IDOCK:   -9.48 KCAL/MOL
REMARK 924 INTRA-LIGAND FREE ENERGY PREDICTED BY IDOCK:   -0.99 KCAL/MOL
REMARK 927      BINDING AFFINITY PREDICTED BY RF-SCORE:    0.00 PKD
ROOT
HETATM    1  C   UNL     1      -9.854  20.208  67.519  1.00  0.00    -0.574 C  
HETATM    2  C   UNL     1      -9.802  19.762  66.061  1.00  0.00    -0.408 C  
ENDROOT
BRANCH   2   3
HETATM    3  N   UNL     1      -9.383  18.365  65.852  1.00  0.00    -0.456 NA 
BRANCH   3   4
HETATM    4  C   UNL     1      -8.208  17.970  66.654  1.00  0.00    -0.261 C  
HETATM    5  C   UNL     1      -6.839  18.156  65.998  1.00  0.00    -0.318 C  
ENDBRANCH   3   4
BRANCH   3   6
HETATM    6  C   UNL     1     -10.507  17.424  66.075  1.00  0.00    -0.276 C  
BRANCH   6   7
HETATM    7  C   UNL     1     -10.207  15.940  65.793  1.00  0.00    -0.365 C  
BRANCH   7   8
HETATM    8  N   UNL     1     -10.431  15.104  66.950  1.00  0.00    -0.277 N  
HETATM    9  C   UNL     1     -11.570  14.347  67.067  1.00  0.00    -0.384 C  
HETATM   10  H   UNL     1      -9.732  15.076  67.692  1.00  0.00     0.000 HD 
HETATM   11  O   UNL     1     -12.435  14.331  66.194  1.00  0.00    -0.442 OA 
BRANCH   9  12
HETATM   12  C   UNL     1     -11.670  13.533  68.281  1.00  0.00    -0.394 A  
HETATM   13  C   UNL     1     -11.987  13.934  69.575  1.00  0.00    -0.343 A  
HETATM   14  C   UNL     1     -12.346  15.249  70.175  1.00  0.00    -0.392 C  
HETATM   15  N   UNL     1     -11.990  12.810  70.374  1.00  0.00    -0.523 NA 
HETATM   16  H   UNL     1     -12.164  12.814  71.379  1.00  0.00     0.000 HD 
HETATM   17  C   UNL     1     -11.728  11.687  69.638  1.00  0.00    -0.350 A  
HETATM   18  C   UNL     1     -11.522  12.099  68.327  1.00  0.00    -0.360 A  
HETATM   19  C   UNL     1     -11.207  11.231  67.149  1.00  0.00    -0.344 C  
BRANCH  17  20
HETATM   20  C   UNL     1     -11.705  10.382  70.195  1.00  0.00    -0.394 C  
HETATM   21  C   UNL     1     -10.696   9.513  70.337  1.00  0.00    -0.341 C  
HETATM   22  C   UNL     1      -9.239   9.587  69.958  1.00  0.00    -0.234 C  
HETATM   23  N   UNL     1      -8.698   8.369  70.357  1.00  0.00    -0.136 N  
HETATM   24  O   UNL     1      -8.651  10.503  69.419  1.00  0.00    -0.154 OA 
HETATM   25  C   UNL     1      -9.659   7.549  70.941  1.00  0.00    -0.165 A  
HETATM   26  H   UNL     1      -7.719   8.110  70.236  1.00  0.00     0.000 HD 
HETATM   27  C   UNL     1     -10.899   8.193  70.961  1.00  0.00    -0.265 A  
HETATM   28  C   UNL     1     -12.009   7.567  71.503  1.00  0.00    -0.336 A  
HETATM   29  C   UNL     1     -11.841   6.284  72.015  1.00  0.00    -0.318 A  
HETATM   30  F   UNL     1     -12.897   5.652  72.543  1.00  0.00    -0.216 F  
HETATM   31  C   UNL     1     -10.598   5.638  71.991  1.00  0.00    -0.283 A  
HETATM   32  C   UNL     1      -9.479   6.275  71.447  1.00  0.00    -0.167 A  
ENDBRANCH  17  20
ENDBRANCH   9  12
ENDBRANCH   7   8
ENDBRANCH   6   7
ENDBRANCH   3   6
ENDBRANCH   2   3
TORSDOF 7
ENDMDL
MODEL        8
REMARK 921   NORMALIZED FREE ENERGY PREDICTED BY IDOCK:   -6.62 KCAL/MOL
REMARK 922        TOTAL FREE ENERGY PREDICTED BY IDOCK:  -10.42 KCAL/MOL
REMARK 923 INTER-LIGAND FREE ENERGY PREDICTED BY IDOCK:   -9.64 KCAL/MOL
REMARK 924 INTRA-LIGAND FREE ENERGY PREDICTED BY IDOCK:   -0.78 KCAL/MOL
REMARK 927      BINDING AFFINITY PREDICTED BY RF-SCORE:    0.00 PKD
ROOT
HETATM    1  C   UNL     1     -10.803   5.706  70.443  1.00  0.00    -0.326 C  
HETATM    2  C   UNL     1     -11.806   6.808  70.771  1.00  0.00    -0.392 C  
ENDROOT
BRANCH   2   3
HETATM    3  N   UNL     1     -11.631   7.432  72.094  1.00  0.00    -0.283 NA 
BRANCH   3   4
HETATM    4  C   UNL     1     -10.822   6.626  73.030  1.00  0.00    -0.267 C  
HETATM    5  C   UNL     1      -9.591   7.307  73.631  1.00  0.00    -0.315 C  
ENDBRANCH   3   4
BRANCH   3   6
HETATM    6  C   UNL     1     -11.083   8.805  71.978  1.00  0.00    -0.371 C  
BRANCH   6   7
HETATM    7  C   UNL     1     -10.768   9.284  70.549  1.00  0.00    -0.257 C  
BRANCH   7   8
HETATM    8  N   UNL     1     -10.906  10.715  70.405  1.00  0.00    -0.442 N  
HETATM    9  C   UNL     1     -12.144  11.299  70.296  1.00  0.00    -0.373 C  
HETATM   10  H   UNL     1     -10.071  11.301  70.383  1.00  0.00     0.000 HD 
HETATM   11  O   UNL     1     -13.182  10.642  70.335  1.00  0.00    -0.204 OA 
BRANCH   9  12
HETATM   12  C   UNL     1     -12.147  12.759  70.169  1.00  0.00    -0.370 A  
HETATM   13  C   UNL     1     -12.660  13.709  71.047  1.00  0.00    -0.363 A  
HETATM   14  C   UNL     1     -13.333  13.613  72.371  1.00  0.00    -0.641 C  
HETATM   15  N   UNL     1     -12.399  14.955  70.516  1.00  0.00    -0.319 NA 
HETATM   16  H   UNL     1     -12.690  15.836  70.939  1.00  0.00     0.000 HD 
HETATM   17  C   UNL     1     -11.697  14.850  69.346  1.00  0.00    -0.319 A  
HETATM   18  C   UNL     1     -11.522  13.495  69.097  1.00  0.00    -0.345 A  
HETATM   19  C   UNL     1     -10.810  12.877  67.934  1.00  0.00    -0.246 C  
BRANCH  17  20
HETATM   20  C   UNL     1     -11.261  15.976  68.601  1.00  0.00    -0.366 C  
HETATM   21  C   UNL     1     -10.040  16.510  68.463  1.00  0.00    -0.255 C  
HETATM   22  C   UNL     1      -8.701  16.130  69.043  1.00  0.00    -0.254 C  
HETATM   23  N   UNL     1      -7.808  17.069  68.536  1.00  0.00    -0.240 N  
HETATM   24  O   UNL     1      -8.443  15.211  69.793  1.00  0.00    -0.157 OA 
HETATM   25  C   UNL     1      -8.445  17.986  67.706  1.00  0.00    -0.247 A  
HETATM   26  H   UNL     1      -6.810  17.082  68.747  1.00  0.00     0.000 HD 
HETATM   27  C   UNL     1      -9.809  17.696  67.619  1.00  0.00    -0.294 A  
HETATM   28  C   UNL     1     -10.647  18.476  66.840  1.00  0.00    -0.406 A  
HETATM   29  C   UNL     1     -10.082  19.552  66.162  1.00  0.00    -0.469 A  
HETATM   30  F   UNL     1     -10.868  20.327  65.403  1.00  0.00    -0.479 F  
HETATM   31  C   UNL     1      -8.715  19.845  66.253  1.00  0.00    -0.384 A  
HETATM   32  C   UNL     1      -7.872  19.051  67.037  1.00  0.00    -0.255 A  
ENDBRANCH  17  20
ENDBRANCH   9  12
ENDBRANCH   7   8
ENDBRANCH   6   7
ENDBRANCH   3   6
ENDBRANCH   2   3
TORSDOF 7
ENDMDL
MODEL        9
REMARK 921   NORMALIZED FREE ENERGY PREDICTED BY IDOCK:   -6.56 KCAL/MOL
REMARK 922        TOTAL FREE ENERGY PREDICTED BY IDOCK:  -10.34 KCAL/MOL
REMARK 923 INTER-LIGAND FREE ENERGY PREDICTED BY IDOCK:   -9.17 KCAL/MOL
REMARK 924 INTRA-LIGAND FREE ENERGY PREDICTED BY IDOCK:   -1.16 KCAL/MOL
REMARK 927      BINDING AFFINITY PREDICTED BY RF-SCORE:    0.00 PKD
ROOT
HETATM    1  C   UNL     1     -11.220   6.127  69.861  1.00  0.00    -0.484 C  
HETATM    2  C   UNL     1     -10.340   7.301  70.281  1.00  0.00    -0.210 C  
ENDROOT
BRANCH   2   3
HETATM    3  N   UNL     1     -10.642   8.576  69.607  1.00  0.00    -0.225 NA 
BRANCH   3   4
HETATM    4  C   UNL     1     -10.614   9.746  70.508  1.00  0.00    -0.312 C  
HETATM    5  C   UNL     1     -11.968  10.292  70.962  1.00  0.00    -0.483 C  
ENDBRANCH   3   4
BRANCH   3   6
HETATM    6  C   UNL     1      -9.755   8.795  68.439  1.00  0.00    -0.162 C  
BRANCH   6   7
HETATM    7  C   UNL     1     -10.460   8.942  67.078  1.00  0.00    -0.256 C  
BRANCH   7   8
HETATM    8  N   UNL     1     -10.229  10.235  66.476  1.00  0.00    -0.228 N  
HETATM    9  C   UNL     1     -11.065  11.294  66.727  1.00  0.00    -0.250 C  
HETATM   10  H   UNL     1      -9.431  10.363  65.853  1.00  0.00     0.000 HD 
HETATM   11  O   UNL     1     -12.029  11.199  67.483  1.00  0.00    -0.580 OA 
BRANCH   9  12
HETATM   12  C   UNL     1     -10.712  12.552  66.065  1.00  0.00    -0.292 A  
HETATM   13  C   UNL     1     -11.131  13.035  64.830  1.00  0.00    -0.322 A  
HETATM   14  C   UNL     1     -12.057  12.505  63.790  1.00  0.00    -0.615 C  
HETATM   15  N   UNL     1     -10.561  14.277  64.648  1.00  0.00    -0.576 NA 
HETATM   16  H   UNL     1     -10.676  14.851  63.812  1.00  0.00     0.000 HD 
HETATM   17  C   UNL     1      -9.819  14.638  65.740  1.00  0.00    -0.328 A  
HETATM   18  C   UNL     1      -9.889  13.587  66.645  1.00  0.00    -0.279 A  
HETATM   19  C   UNL     1      -9.241  13.512  67.992  1.00  0.00    -0.209 C  
BRANCH  17  20
HETATM   20  C   UNL     1      -9.148  15.884  65.844  1.00  0.00    -0.304 C  
HETATM   21  C   UNL     1      -9.375  16.932  66.646  1.00  0.00    -0.278 C  
HETATM   22  C   UNL     1     -10.413  17.182  67.711  1.00  0.00    -0.362 C  
HETATM   23  N   UNL     1     -10.140  18.459  68.189  1.00  0.00    -0.363 N  
HETATM   24  O   UNL     1     -11.302  16.441  68.078  1.00  0.00    -0.288 OA 
HETATM   25  C   UNL     1      -9.048  19.027  67.541  1.00  0.00    -0.288 A  
HETATM   26  H   UNL     1     -10.674  18.922  68.925  1.00  0.00     0.000 HD 
HETATM   27  C   UNL     1      -8.535  18.142  66.588  1.00  0.00    -0.282 A  
HETATM   28  C   UNL     1      -7.438  18.492  65.820  1.00  0.00    -0.130 A  
HETATM   29  C   UNL     1      -6.878  19.749  66.028  1.00  0.00    -0.253 A  
HETATM   30  F   UNL     1      -5.818  20.118  65.298  1.00  0.00    -0.179 F  
HETATM   31  C   UNL     1      -7.396  20.638  66.980  1.00  0.00    -0.370 A  
HETATM   32  C   UNL     1      -8.501  20.278  67.757  1.00  0.00    -0.266 A  
ENDBRANCH  17  20
ENDBRANCH   9  12
ENDBRANCH   7   8
ENDBRANCH   6   7
ENDBRANCH   3   6
ENDBRANCH   2   3
TORSDOF 7
ENDMDL
MODEL       10
REMARK 921   NORMALIZED FREE ENERGY PREDICTED BY IDOCK:   -6.52 KCAL/MOL
REMARK 922        TOTAL FREE ENERGY PREDICTED BY IDOCK:  -10.28 KCAL/MOL
REMARK 923 INTER-LIGAND FREE ENERGY PREDICTED BY IDOCK:   -9.02 KCAL/MOL
REMARK 924 INTRA-LIGAND FREE ENERGY PREDICTED BY IDOCK:   -1.25 KCAL/MOL
REMARK 927      BINDING AFFINITY PREDICTED BY RF-SCORE:    0.00 PKD
ROOT
HETATM    1  C   UNL     1     -14.405   7.512  71.568  1.00  0.00    -0.603 C  
HETATM    2  C   UNL     1     -12.925   7.807  71.794  1.00  0.00    -0.323 C  
ENDROOT
BRANCH   2   3
HETATM    3  N   UNL     1     -12.381   8.910  70.984  1.00  0.00    -0.228 NA 
BRANCH   3   4
HETATM    4  C   UNL     1     -13.293  10.065  70.862  1.00  0.00    -0.219 C  
HETATM    5  C   UNL     1     -12.924  11.316  71.660  1.00  0.00    -0.537 C  
ENDBRANCH   3   4
BRANCH   3   6
HETATM    6  C   UNL     1     -11.053   9.344  71.482  1.00  0.00    -0.376 C  
BRANCH   6   7
HETATM    7  C   UNL     1      -9.860   9.057  70.553  1.00  0.00    -0.216 C  
BRANCH   7   8
HETATM    8  N   UNL     1      -9.490  10.207  69.761  1.00  0.00    -0.359 N  
HETATM    9  C   UNL     1     -10.082  10.451  68.547  1.00  0.00    -0.171 C  
HETATM   10  H   UNL     1      -8.777  10.849  70.109  1.00  0.00     0.000 HD 
HETATM   11  O   UNL     1     -10.958   9.721  68.089  1.00  0.00    -0.239 OA 
BRANCH   9  12
HETATM   12  C   UNL     1      -9.627  11.658  67.850  1.00  0.00    -0.180 A  
HETATM   13  C   UNL     1      -8.644  11.782  66.873  1.00  0.00    -0.177 A  
HETATM   14  C   UNL     1      -7.758  10.800  66.190  1.00  0.00    -0.149 C  
HETATM   15  N   UNL     1      -8.594  13.107  66.494  1.00  0.00    -0.424 NA 
HETATM   16  H   UNL     1      -7.942  13.489  65.810  1.00  0.00     0.000 HD 
HETATM   17  C   UNL     1      -9.538  13.841  67.159  1.00  0.00    -0.244 A  
HETATM   18  C   UNL     1     -10.202  12.971  68.015  1.00  0.00    -0.233 A  
HETATM   19  C   UNL     1     -11.322  13.305  68.949  1.00  0.00    -0.333 C  
BRANCH  17  20
HETATM   20  C   UNL     1      -9.738  15.229  66.939  1.00  0.00    -0.243 C  
HETATM   21  C   UNL     1      -9.226  16.294  67.570  1.00  0.00    -0.206 C  
HETATM   22  C   UNL     1      -8.274  16.417  68.733  1.00  0.00    -0.234 C  
HETATM   23  N   UNL     1      -8.125  17.785  68.935  1.00  0.00    -0.216 N  
HETATM   24  O   UNL     1      -7.747  15.525  69.367  1.00  0.00    -0.209 OA 
HETATM   25  C   UNL     1      -8.878  18.522  68.027  1.00  0.00    -0.298 A  
HETATM   26  H   UNL     1      -7.537  18.196  69.660  1.00  0.00     0.000 HD 
HETATM   27  C   UNL     1      -9.571  17.668  67.165  1.00  0.00    -0.278 A  
HETATM   28  C   UNL     1     -10.386  18.181  66.169  1.00  0.00    -0.394 A  
HETATM   29  C   UNL     1     -10.489  19.565  66.068  1.00  0.00    -0.516 A  
HETATM   30  F   UNL     1     -11.272  20.091  65.118  1.00  0.00    -0.465 F  
HETATM   31  C   UNL     1      -9.797  20.421  66.936  1.00  0.00    -0.572 A  
HETATM   32  C   UNL     1      -8.972  19.898  67.937  1.00  0.00    -0.381 A  
ENDBRANCH  17  20
ENDBRANCH   9  12
ENDBRANCH   7   8
ENDBRANCH   6   7
ENDBRANCH   3   6
ENDBRANCH   2   3
TORSDOF 7
ENDMDL
MODEL       11
REMARK 921   NORMALIZED FREE ENERGY PREDICTED BY IDOCK:   -6.48 KCAL/MOL
REMARK 922        TOTAL FREE ENERGY PREDICTED BY IDOCK:  -10.21 KCAL/MOL
REMARK 923 INTER-LIGAND FREE ENERGY PREDICTED BY IDOCK:   -9.25 KCAL/MOL
REMARK 924 INTRA-LIGAND FREE ENERGY PREDICTED BY IDOCK:   -0.96 KCAL/MOL
REMARK 927      BINDING AFFINITY PREDICTED BY RF-SCORE:    0.00 PKD
ROOT
HETATM    1  C   UNL     1     -11.713   7.058  71.841  1.00  0.00    -0.333 C  
HETATM    2  C   UNL     1     -10.697   7.399  70.756  1.00  0.00    -0.232 C  
ENDROOT
BRANCH   2   3
HETATM    3  N   UNL     1     -10.961   8.653  70.029  1.00  0.00    -0.234 NA 
BRANCH   3   4
HETATM    4  C   UNL     1     -10.977   9.850  70.893  1.00  0.00    -0.322 C  
HETATM    5  C   UNL     1     -12.201  10.761  70.778  1.00  0.00    -0.480 C  
ENDBRANCH   3   4
BRANCH   3   6
HETATM    6  C   UNL     1     -10.015   8.836  68.901  1.00  0.00    -0.192 C  
BRANCH   6   7
HETATM    7  C   UNL     1     -10.649   8.936  67.502  1.00  0.00    -0.237 C  
BRANCH   7   8
HETATM    8  N   UNL     1     -10.700  10.297  67.018  1.00  0.00    -0.242 N  
HETATM    9  C   UNL     1     -10.271  10.615  65.754  1.00  0.00    -0.252 C  
HETATM   10  H   UNL     1     -11.061  11.033  67.625  1.00  0.00     0.000 HD 
HETATM   11  O   UNL     1      -9.844   9.765  64.975  1.00  0.00    -0.306 OA 
BRANCH   9  12
HETATM   12  C   UNL     1     -10.388  12.027  65.380  1.00  0.00    -0.301 A  
HETATM   13  C   UNL     1     -11.195  12.607  64.406  1.00  0.00    -0.346 A  
HETATM   14  C   UNL     1     -12.197  12.054  63.453  1.00  0.00    -0.627 C  
HETATM   15  N   UNL     1     -10.987  13.970  64.445  1.00  0.00    -0.586 NA 
HETATM   16  H   UNL     1     -11.431  14.641  63.818  1.00  0.00     0.000 HD 
HETATM   17  C   UNL     1     -10.107  14.301  65.439  1.00  0.00    -0.351 A  
HETATM   18  C   UNL     1      -9.711  13.115  66.044  1.00  0.00    -0.234 A  
HETATM   19  C   UNL     1      -8.757  12.961  67.187  1.00  0.00    -0.205 C  
BRANCH  17  20
HETATM   20  C   UNL     1      -9.736  15.639  65.732  1.00  0.00    -0.380 C  
HETATM   21  C   UNL     1     -10.136  16.460  66.713  1.00  0.00    -0.287 C  
HETATM   22  C   UNL     1     -11.116  16.278  67.843  1.00  0.00    -0.270 C  
HETATM   23  N   UNL     1     -11.110  17.490  68.526  1.00  0.00    -0.160 N  
HETATM   24  O   UNL     1     -11.778  15.295  68.111  1.00  0.00    -0.345 OA 
HETATM   25  C   UNL     1     -10.233  18.401  67.944  1.00  0.00    -0.381 A  
HETATM   26  H   UNL     1     -11.676  17.686  69.351  1.00  0.00     0.000 HD 
HETATM   27  C   UNL     1      -9.606  17.830  66.834  1.00  0.00    -0.288 A  
HETATM   28  C   UNL     1      -8.684  18.553  66.096  1.00  0.00    -0.137 A  
HETATM   29  C   UNL     1      -8.416  19.857  66.498  1.00  0.00    -0.337 A  
HETATM   30  F   UNL     1      -7.531  20.583  65.802  1.00  0.00    -0.251 F  
HETATM   31  C   UNL     1      -9.049  20.431  67.609  1.00  0.00    -0.393 A  
HETATM   32  C   UNL     1      -9.976  19.696  68.354  1.00  0.00    -0.543 A  
ENDBRANCH  17  20
ENDBRANCH   9  12
ENDBRANCH   7   8
ENDBRANCH   6   7
ENDBRANCH   3   6
ENDBRANCH   2   3
TORSDOF 7
ENDMDL
MODEL       12
REMARK 921   NORMALIZED FREE ENERGY PREDICTED BY IDOCK:   -6.40 KCAL/MOL
REMARK 922        TOTAL FREE ENERGY PREDICTED BY IDOCK:  -10.11 KCAL/MOL
REMARK 923 INTER-LIGAND FREE ENERGY PREDICTED BY IDOCK:   -9.14 KCAL/MOL
REMARK 924 INTRA-LIGAND FREE ENERGY PREDICTED BY IDOCK:   -0.98 KCAL/MOL
REMARK 927      BINDING AFFINITY PREDICTED BY RF-SCORE:    0.00 PKD
ROOT
HETATM    1  C   UNL     1     -10.318   5.273  69.633  1.00  0.00    -0.348 C  
HETATM    2  C   UNL     1      -9.383   4.652  70.665  1.00  0.00    -0.154 C  
ENDROOT
BRANCH   2   3
HETATM    3  N   UNL     1     -10.030   3.733  71.617  1.00  0.00    -0.171 NA 
BRANCH   3   4
HETATM    4  C   UNL     1      -9.447   2.376  71.624  1.00  0.00    -0.132 C  
HETATM    5  C   UNL     1      -8.837   1.886  70.310  1.00  0.00    -0.127 C  
ENDBRANCH   3   4
BRANCH   3   6
HETATM    6  C   UNL     1     -10.052   4.299  72.988  1.00  0.00    -0.152 C  
BRANCH   6   7
HETATM    7  C   UNL     1     -11.408   4.850  73.465  1.00  0.00    -0.222 C  
BRANCH   7   8
HETATM    8  N   UNL     1     -11.829   6.006  72.707  1.00  0.00    -0.527 N  
HETATM    9  C   UNL     1     -11.273   7.241  72.932  1.00  0.00    -0.292 C  
HETATM   10  H   UNL     1     -12.551   5.904  71.994  1.00  0.00     0.000 HD 
HETATM   11  O   UNL     1     -10.387   7.416  73.766  1.00  0.00    -0.348 OA 
BRANCH   9  12
HETATM   12  C   UNL     1     -11.777   8.327  72.087  1.00  0.00    -0.429 A  
HETATM   13  C   UNL     1     -13.084   8.783  71.942  1.00  0.00    -0.378 A  
HETATM   14  C   UNL     1     -14.376   8.385  72.565  1.00  0.00    -0.283 C  
HETATM   15  N   UNL     1     -13.062   9.847  71.064  1.00  0.00    -0.507 NA 
HETATM   16  H   UNL     1     -13.889  10.357  70.752  1.00  0.00     0.000 HD 
HETATM   17  C   UNL     1     -11.783  10.126  70.666  1.00  0.00    -0.338 A  
HETATM   18  C   UNL     1     -10.954   9.198  71.283  1.00  0.00    -0.400 A  
HETATM   19  C   UNL     1      -9.465   9.097  71.161  1.00  0.00    -0.331 C  
BRANCH  17  20
HETATM   20  C   UNL     1     -11.459  11.194  69.791  1.00  0.00    -0.388 C  
HETATM   21  C   UNL     1     -11.799  12.489  69.833  1.00  0.00    -0.373 C  
HETATM   22  C   UNL     1     -12.644  13.280  70.798  1.00  0.00    -0.280 C  
HETATM   23  N   UNL     1     -12.634  14.581  70.308  1.00  0.00    -0.440 N  
HETATM   24  O   UNL     1     -13.219  12.881  71.791  1.00  0.00    -0.422 OA 
HETATM   25  C   UNL     1     -11.875  14.684  69.146  1.00  0.00    -0.312 A  
HETATM   26  H   UNL     1     -13.122  15.363  70.745  1.00  0.00     0.000 HD 
HETATM   27  C   UNL     1     -11.336  13.440  68.806  1.00  0.00    -0.332 A  
HETATM   28  C   UNL     1     -10.538  13.301  67.684  1.00  0.00    -0.242 A  
HETATM   29  C   UNL     1     -10.302  14.436  66.914  1.00  0.00    -0.265 A  
HETATM   30  F   UNL     1      -9.536  14.333  65.820  1.00  0.00    -0.304 F  
HETATM   31  C   UNL     1     -10.846  15.682  67.253  1.00  0.00    -0.298 A  
HETATM   32  C   UNL     1     -11.648  15.819  68.390  1.00  0.00    -0.343 A  
ENDBRANCH  17  20
ENDBRANCH   9  12
ENDBRANCH   7   8
ENDBRANCH   6   7
ENDBRANCH   3   6
ENDBRANCH   2   3
TORSDOF 7
ENDMDL
MODEL       13
REMARK 921   NORMALIZED FREE ENERGY PREDICTED BY IDOCK:   -6.34 KCAL/MOL
REMARK 922        TOTAL FREE ENERGY PREDICTED BY IDOCK:  -10.02 KCAL/MOL
REMARK 923 INTER-LIGAND FREE ENERGY PREDICTED BY IDOCK:   -8.71 KCAL/MOL
REMARK 924 INTRA-LIGAND FREE ENERGY PREDICTED BY IDOCK:   -1.31 KCAL/MOL
REMARK 927      BINDING AFFINITY PREDICTED BY RF-SCORE:    0.00 PKD
ROOT
HETATM    1  C   UNL     1      -8.812   4.312  68.930  1.00  0.00    -0.139 C  
HETATM    2  C   UNL     1      -9.363   5.734  69.000  1.00  0.00    -0.123 C  
ENDROOT
BRANCH   2   3
HETATM    3  N   UNL     1     -10.820   5.844  68.820  1.00  0.00    -0.296 NA 
BRANCH   3   4
HETATM    4  C   UNL     1     -11.507   6.533  69.931  1.00  0.00    -0.403 C  
HETATM    5  C   UNL     1     -10.628   7.007  71.090  1.00  0.00    -0.237 C  
ENDBRANCH   3   4
BRANCH   3   6
HETATM    6  C   UNL     1     -11.160   6.479  67.523  1.00  0.00    -0.308 C  
BRANCH   6   7
HETATM    7  C   UNL     1     -10.199   7.582  67.043  1.00  0.00    -0.298 C  
BRANCH   7   8
HETATM    8  N   UNL     1     -10.635   8.902  67.438  1.00  0.00    -0.374 N  
HETATM    9  C   UNL     1      -9.938   9.629  68.371  1.00  0.00    -0.158 C  
HETATM   10  H   UNL     1     -11.476   9.300  67.018  1.00  0.00     0.000 HD 
HETATM   11  O   UNL     1      -8.911   9.204  68.894  1.00  0.00    -0.136 OA 
BRANCH   9  12
HETATM   12  C   UNL     1     -10.478  10.957  68.673  1.00  0.00    -0.216 A  
HETATM   13  C   UNL     1     -11.548  11.297  69.495  1.00  0.00    -0.328 A  
HETATM   14  C   UNL     1     -12.474  10.496  70.344  1.00  0.00    -0.392 C  
HETATM   15  N   UNL     1     -11.658  12.671  69.495  1.00  0.00    -0.382 NA 
HETATM   16  H   UNL     1     -12.378  13.194  69.993  1.00  0.00     0.000 HD 
HETATM   17  C   UNL     1     -10.672  13.240  68.736  1.00  0.00    -0.227 A  
HETATM   18  C   UNL     1      -9.917  12.202  68.206  1.00  0.00    -0.212 A  
HETATM   19  C   UNL     1      -8.723  12.321  67.311  1.00  0.00    -0.188 C  
BRANCH  17  20
HETATM   20  C   UNL     1     -10.521  14.643  68.586  1.00  0.00    -0.244 C  
HETATM   21  C   UNL     1     -10.585  15.414  67.492  1.00  0.00    -0.283 C  
HETATM   22  C   UNL     1     -10.826  15.089  66.041  1.00  0.00    -0.334 C  
HETATM   23  N   UNL     1     -10.769  16.313  65.381  1.00  0.00    -0.369 N  
HETATM   24  O   UNL     1     -11.025  14.001  65.540  1.00  0.00    -0.296 OA 
HETATM   25  C   UNL     1     -10.520  17.359  66.264  1.00  0.00    -0.276 A  
HETATM   26  H   UNL     1     -10.895  16.428  64.376  1.00  0.00     0.000 HD 
HETATM   27  C   UNL     1     -10.400  16.875  67.570  1.00  0.00    -0.318 A  
HETATM   28  C   UNL     1     -10.155  17.740  68.622  1.00  0.00    -0.384 A  
HETATM   29  C   UNL     1     -10.029  19.094  68.329  1.00  0.00    -0.403 A  
HETATM   30  F   UNL     1      -9.788  19.955  69.326  1.00  0.00    -0.442 F  
HETATM   31  C   UNL     1     -10.145  19.579  67.019  1.00  0.00    -0.509 A  
HETATM   32  C   UNL     1     -10.397  18.702  65.960  1.00  0.00    -0.436 A  
ENDBRANCH  17  20
ENDBRANCH   9  12
ENDBRANCH   7   8
ENDBRANCH   6   7
ENDBRANCH   3   6
ENDBRANCH   2   3
TORSDOF 7
ENDMDL
MODEL       14
REMARK 921   NORMALIZED FREE ENERGY PREDICTED BY IDOCK:   -6.33 KCAL/MOL
REMARK 922        TOTAL FREE ENERGY PREDICTED BY IDOCK:  -10.00 KCAL/MOL
REMARK 923 INTER-LIGAND FREE ENERGY PREDICTED BY IDOCK:   -8.81 KCAL/MOL
REMARK 924 INTRA-LIGAND FREE ENERGY PREDICTED BY IDOCK:   -1.19 KCAL/MOL
REMARK 927      BINDING AFFINITY PREDICTED BY RF-SCORE:    0.00 PKD
ROOT
HETATM    1  C   UNL     1     -12.023   6.069  72.322  1.00  0.00    -0.259 C  
HETATM    2  C   UNL     1     -11.326   4.987  73.141  1.00  0.00    -0.321 C  
ENDROOT
BRANCH   2   3
HETATM    3  N   UNL     1      -9.945   4.686  72.726  1.00  0.00    -0.149 NA 
BRANCH   3   4
HETATM    4  C   UNL     1      -9.030   4.419  73.854  1.00  0.00    -0.102 C  
HETATM    5  C   UNL     1      -7.558   4.774  73.639  1.00  0.00    -0.091 C  
ENDBRANCH   3   4
BRANCH   3   6
HETATM    6  C   UNL     1      -9.904   3.574  71.746  1.00  0.00    -0.160 C  
BRANCH   6   7
HETATM    7  C   UNL     1      -9.444   3.948  70.325  1.00  0.00    -0.185 C  
BRANCH   7   8
HETATM    8  N   UNL     1      -9.985   5.214  69.887  1.00  0.00    -0.224 N  
HETATM    9  C   UNL     1      -9.191   6.330  69.795  1.00  0.00    -0.146 C  
HETATM   10  H   UNL     1     -10.973   5.280  69.642  1.00  0.00     0.000 HD 
HETATM   11  O   UNL     1      -7.991   6.301  70.060  1.00  0.00    -0.107 OA 
BRANCH   9  12
HETATM   12  C   UNL     1      -9.859   7.547  69.325  1.00  0.00    -0.170 A  
HETATM   13  C   UNL     1     -10.520   7.769  68.121  1.00  0.00    -0.176 A  
HETATM   14  C   UNL     1     -10.804   6.906  66.942  1.00  0.00    -0.380 C  
HETATM   15  N   UNL     1     -11.015   9.056  68.146  1.00  0.00    -0.482 NA 
HETATM   16  H   UNL     1     -11.521   9.496  67.377  1.00  0.00     0.000 HD 
HETATM   17  C   UNL     1     -10.737   9.664  69.339  1.00  0.00    -0.228 A  
HETATM   18  C   UNL     1     -10.015   8.754  70.101  1.00  0.00    -0.201 A  
HETATM   19  C   UNL     1      -9.486   8.957  71.486  1.00  0.00    -0.347 C  
BRANCH  17  20
HETATM   20  C   UNL     1     -11.159  10.981  69.655  1.00  0.00    -0.320 C  
HETATM   21  C   UNL     1     -12.039  11.419  70.566  1.00  0.00    -0.487 C  
HETATM   22  C   UNL     1     -12.899  10.694  71.568  1.00  0.00    -0.462 C  
HETATM   23  N   UNL     1     -13.608  11.693  72.228  1.00  0.00    -0.464 N  
HETATM   24  O   UNL     1     -12.973   9.498  71.766  1.00  0.00    -0.352 OA 
HETATM   25  C   UNL     1     -13.280  12.957  71.746  1.00  0.00    -0.384 A  
HETATM   26  H   UNL     1     -14.283  11.521  72.972  1.00  0.00     0.000 HD 
HETATM   27  C   UNL     1     -12.324  12.856  70.731  1.00  0.00    -0.385 A  
HETATM   28  C   UNL     1     -11.841  13.991  70.103  1.00  0.00    -0.377 A  
HETATM   29  C   UNL     1     -12.345  15.221  70.515  1.00  0.00    -0.387 A  
HETATM   30  F   UNL     1     -11.900  16.337  69.924  1.00  0.00    -0.293 F  
HETATM   31  C   UNL     1     -13.307  15.321  71.529  1.00  0.00    -0.559 A  
HETATM   32  C   UNL     1     -13.788  14.172  72.164  1.00  0.00    -0.613 A  
ENDBRANCH  17  20
ENDBRANCH   9  12
ENDBRANCH   7   8
ENDBRANCH   6   7
ENDBRANCH   3   6
ENDBRANCH   2   3
TORSDOF 7
ENDMDL
MODEL       15
REMARK 921   NORMALIZED FREE ENERGY PREDICTED BY IDOCK:   -6.29 KCAL/MOL
REMARK 922        TOTAL FREE ENERGY PREDICTED BY IDOCK:   -9.95 KCAL/MOL
REMARK 923 INTER-LIGAND FREE ENERGY PREDICTED BY IDOCK:   -9.00 KCAL/MOL
REMARK 924 INTRA-LIGAND FREE ENERGY PREDICTED BY IDOCK:   -0.96 KCAL/MOL
REMARK 927      BINDING AFFINITY PREDICTED BY RF-SCORE:    0.00 PKD
ROOT
HETATM    1  C   UNL     1     -10.561  19.582  67.413  1.00  0.00    -0.607 C  
HETATM    2  C   UNL     1     -10.547  19.003  66.001  1.00  0.00    -0.423 C  
ENDROOT
BRANCH   2   3
HETATM    3  N   UNL     1      -9.734  17.787  65.836  1.00  0.00    -0.546 NA 
BRANCH   3   4
HETATM    4  C   UNL     1      -8.358  17.915  66.358  1.00  0.00    -0.242 C  
HETATM    5  C   UNL     1      -7.920  16.879  67.394  1.00  0.00    -0.190 C  
ENDBRANCH   3   4
BRANCH   3   6
HETATM    6  C   UNL     1     -10.406  16.602  66.422  1.00  0.00    -0.306 C  
BRANCH   6   7
HETATM    7  C   UNL     1     -10.800  15.493  65.429  1.00  0.00    -0.390 C  
BRANCH   7   8
HETATM    8  N   UNL     1     -10.525  14.171  65.943  1.00  0.00    -0.296 N  
HETATM    9  C   UNL     1     -11.496  13.201  65.957  1.00  0.00    -0.335 C  
HETATM   10  H   UNL     1      -9.595  13.955  66.302  1.00  0.00     0.000 HD 
HETATM   11  O   UNL     1     -12.627  13.402  65.521  1.00  0.00    -0.475 OA 
BRANCH   9  12
HETATM   12  C   UNL     1     -11.085  11.899  66.492  1.00  0.00    -0.357 A  
HETATM   13  C   UNL     1     -10.418  10.864  65.846  1.00  0.00    -0.221 A  
HETATM   14  C   UNL     1      -9.880  10.702  64.466  1.00  0.00    -0.388 C  
HETATM   15  N   UNL     1     -10.219   9.854  66.765  1.00  0.00    -0.233 NA 
HETATM   16  H   UNL     1      -9.777   8.960  66.555  1.00  0.00     0.000 HD 
HETATM   17  C   UNL     1     -10.696  10.214  67.996  1.00  0.00    -0.260 A  
HETATM   18  C   UNL     1     -11.244  11.484  67.864  1.00  0.00    -0.344 A  
HETATM   19  C   UNL     1     -11.888  12.303  68.939  1.00  0.00    -0.355 C  
BRANCH  17  20
HETATM   20  C   UNL     1     -10.593   9.382  69.141  1.00  0.00    -0.234 C  
HETATM   21  C   UNL     1     -10.629   8.048  69.255  1.00  0.00    -0.193 C  
HETATM   22  C   UNL     1     -10.800   6.952  68.234  1.00  0.00    -0.184 C  
HETATM   23  N   UNL     1     -10.761   5.769  68.964  1.00  0.00    -0.288 N  
HETATM   24  O   UNL     1     -10.945   7.063  67.034  1.00  0.00    -0.375 OA 
HETATM   25  C   UNL     1     -10.584   6.010  70.323  1.00  0.00    -0.273 A  
HETATM   26  H   UNL     1     -10.850   4.839  68.553  1.00  0.00     0.000 HD 
HETATM   27  C   UNL     1     -10.494   7.384  70.564  1.00  0.00    -0.227 A  
HETATM   28  C   UNL     1     -10.310   7.863  71.850  1.00  0.00    -0.271 A  
HETATM   29  C   UNL     1     -10.226   6.932  72.880  1.00  0.00    -0.203 A  
HETATM   30  F   UNL     1     -10.052   7.365  74.135  1.00  0.00    -0.331 F  
HETATM   31  C   UNL     1     -10.321   5.555  72.638  1.00  0.00    -0.238 A  
HETATM   32  C   UNL     1     -10.502   5.075  71.337  1.00  0.00    -0.213 A  
ENDBRANCH  17  20
ENDBRANCH   9  12
ENDBRANCH   7   8
ENDBRANCH   6   7
ENDBRANCH   3   6
ENDBRANCH   2   3
TORSDOF 7
ENDMDL
MODEL       16
REMARK 921   NORMALIZED FREE ENERGY PREDICTED BY IDOCK:   -6.28 KCAL/MOL
REMARK 922        TOTAL FREE ENERGY PREDICTED BY IDOCK:   -9.93 KCAL/MOL
REMARK 923 INTER-LIGAND FREE ENERGY PREDICTED BY IDOCK:   -9.08 KCAL/MOL
REMARK 924 INTRA-LIGAND FREE ENERGY PREDICTED BY IDOCK:   -0.85 KCAL/MOL
REMARK 927      BINDING AFFINITY PREDICTED BY RF-SCORE:    0.00 PKD
ROOT
HETATM    1  C   UNL     1      -9.958  19.605  69.263  1.00  0.00    -0.344 C  
HETATM    2  C   UNL     1      -9.177  18.596  68.426  1.00  0.00    -0.326 C  
ENDROOT
BRANCH   2   3
HETATM    3  N   UNL     1      -9.170  18.864  66.978  1.00  0.00    -0.296 NA 
BRANCH   3   4
HETATM    4  C   UNL     1      -8.014  18.278  66.270  1.00  0.00    -0.234 C  
HETATM    5  C   UNL     1      -6.889  17.719  67.142  1.00  0.00    -0.196 C  
ENDBRANCH   3   4
BRANCH   3   6
HETATM    6  C   UNL     1     -10.441  18.439  66.342  1.00  0.00    -0.383 C  
BRANCH   6   7
HETATM    7  C   UNL     1     -10.316  17.383  65.229  1.00  0.00     0.240 C  
BRANCH   7   8
HETATM    8  N   UNL     1     -10.474  16.036  65.728  1.00  0.00    -0.358 N  
HETATM    9  C   UNL     1     -11.344  15.158  65.131  1.00  0.00    -0.357 C  
HETATM   10  H   UNL     1      -9.932  15.733  66.537  1.00  0.00     0.000 HD 
HETATM   11  O   UNL     1     -12.007  15.465  64.143  1.00  0.00    -0.503 OA 
BRANCH   9  12
HETATM   12  C   UNL     1     -11.401  13.819  65.726  1.00  0.00    -0.309 A  
HETATM   13  C   UNL     1     -11.069  12.596  65.152  1.00  0.00    -0.294 A  
HETATM   14  C   UNL     1     -10.541  12.208  63.814  1.00  0.00    -0.482 C  
HETATM   15  N   UNL     1     -11.254  11.620  66.108  1.00  0.00    -0.289 NA 
HETATM   16  H   UNL     1     -11.112  10.622  65.952  1.00  0.00     0.000 HD 
HETATM   17  C   UNL     1     -11.653  12.169  67.296  1.00  0.00    -0.334 A  
HETATM   18  C   UNL     1     -11.756  13.540  67.096  1.00  0.00    -0.419 A  
HETATM   19  C   UNL     1     -12.157  14.570  68.105  1.00  0.00    -0.232 C  
BRANCH  17  20
HETATM   20  C   UNL     1     -11.882  11.402  68.467  1.00  0.00    -0.364 C  
HETATM   21  C   UNL     1     -11.044  10.655  69.199  1.00  0.00    -0.309 C  
HETATM   22  C   UNL     1      -9.576  10.348  69.050  1.00  0.00    -0.204 C  
HETATM   23  N   UNL     1      -9.272   9.508  70.116  1.00  0.00    -0.229 N  
HETATM   24  O   UNL     1      -8.812  10.738  68.191  1.00  0.00    -0.125 OA 
HETATM   25  C   UNL     1     -10.389   9.261  70.908  1.00  0.00    -0.296 A  
HETATM   26  H   UNL     1      -8.345   9.120  70.295  1.00  0.00     0.000 HD 
HETATM   27  C   UNL     1     -11.502   9.937  70.401  1.00  0.00    -0.372 A  
HETATM   28  C   UNL     1     -12.731   9.843  71.032  1.00  0.00    -0.425 A  
HETATM   29  C   UNL     1     -12.812   9.053  72.175  1.00  0.00    -0.410 A  
HETATM   30  F   UNL     1     -13.988   8.940  72.805  1.00  0.00    -0.459 F  
HETATM   31  C   UNL     1     -11.696   8.372  72.680  1.00  0.00    -0.364 A  
HETATM   32  C   UNL     1     -10.456   8.474  72.042  1.00  0.00    -0.407 A  
ENDBRANCH  17  20
ENDBRANCH   9  12
ENDBRANCH   7   8
ENDBRANCH   6   7
ENDBRANCH   3   6
ENDBRANCH   2   3
TORSDOF 7
ENDMDL
MODEL       17
REMARK 921   NORMALIZED FREE ENERGY PREDICTED BY IDOCK:   -6.26 KCAL/MOL
REMARK 922        TOTAL FREE ENERGY PREDICTED BY IDOCK:   -9.91 KCAL/MOL
REMARK 923 INTER-LIGAND FREE ENERGY PREDICTED BY IDOCK:   -8.81 KCAL/MOL
REMARK 924 INTRA-LIGAND FREE ENERGY PREDICTED BY IDOCK:   -1.10 KCAL/MOL
REMARK 927      BINDING AFFINITY PREDICTED BY RF-SCORE:    0.00 PKD
ROOT
HETATM    1  C   UNL     1     -12.277   6.945  71.098  1.00  0.00    -0.428 C  
HETATM    2  C   UNL     1     -11.100   5.974  71.097  1.00  0.00    -0.271 C  
ENDROOT
BRANCH   2   3
HETATM    3  N   UNL     1     -10.262   6.015  69.887  1.00  0.00    -0.190 NA 
BRANCH   3   4
HETATM    4  C   UNL     1      -9.495   4.775  69.652  1.00  0.00    -0.153 C  
HETATM    5  C   UNL     1      -9.532   3.726  70.764  1.00  0.00    -0.236 C  
ENDBRANCH   3   4
BRANCH   3   6
HETATM    6  C   UNL     1     -11.059   6.371  68.687  1.00  0.00    -0.311 C  
BRANCH   6   7
HETATM    7  C   UNL     1     -10.428   7.415  67.748  1.00  0.00    -0.232 C  
BRANCH   7   8
HETATM    8  N   UNL     1     -10.864   8.759  68.047  1.00  0.00    -0.476 N  
HETATM    9  C   UNL     1     -10.144   9.566  68.893  1.00  0.00    -0.188 C  
HETATM   10  H   UNL     1     -11.722   9.115  67.624  1.00  0.00     0.000 HD 
HETATM   11  O   UNL     1      -9.095   9.193  69.415  1.00  0.00    -0.141 OA 
BRANCH   9  12
HETATM   12  C   UNL     1     -10.687  10.911  69.102  1.00  0.00    -0.265 A  
HETATM   13  C   UNL     1     -11.805  11.295  69.836  1.00  0.00    -0.360 A  
HETATM   14  C   UNL     1     -12.794  10.540  70.654  1.00  0.00    -0.407 C  
HETATM   15  N   UNL     1     -11.898  12.669  69.771  1.00  0.00    -0.376 NA 
HETATM   16  H   UNL     1     -12.643  13.220  70.198  1.00  0.00     0.000 HD 
HETATM   17  C   UNL     1     -10.857  13.196  69.056  1.00  0.00    -0.161 A  
HETATM   18  C   UNL     1     -10.081  12.129  68.622  1.00  0.00    -0.161 A  
HETATM   19  C   UNL     1      -8.828  12.199  67.805  1.00  0.00    -0.172 C  
BRANCH  17  20
HETATM   20  C   UNL     1     -10.679  14.590  68.858  1.00  0.00    -0.259 C  
HETATM   21  C   UNL     1     -10.677  15.317  67.733  1.00  0.00    -0.286 C  
HETATM   22  C   UNL     1     -10.849  14.936  66.285  1.00  0.00    -0.331 C  
HETATM   23  N   UNL     1     -10.742  16.130  65.581  1.00  0.00    -0.336 N  
HETATM   24  O   UNL     1     -11.037  13.830  65.818  1.00  0.00    -0.288 OA 
HETATM   25  C   UNL     1     -10.524  17.209  66.433  1.00  0.00    -0.255 A  
HETATM   26  H   UNL     1     -10.815  16.207  64.566  1.00  0.00     0.000 HD 
HETATM   27  C   UNL     1     -10.477  16.777  67.761  1.00  0.00    -0.335 A  
HETATM   28  C   UNL     1     -10.274  17.681  68.789  1.00  0.00    -0.373 A  
HETATM   29  C   UNL     1     -10.115  19.021  68.449  1.00  0.00    -0.403 A  
HETATM   30  F   UNL     1      -9.913  19.919  69.421  1.00  0.00    -0.468 F  
HETATM   31  C   UNL     1     -10.157  19.453  67.116  1.00  0.00    -0.490 A  
HETATM   32  C   UNL     1     -10.367  18.537  66.081  1.00  0.00    -0.457 A  
ENDBRANCH  17  20
ENDBRANCH   9  12
ENDBRANCH   7   8
ENDBRANCH   6   7
ENDBRANCH   3   6
ENDBRANCH   2   3
TORSDOF 7
ENDMDL
MODEL       18
REMARK 921   NORMALIZED FREE ENERGY PREDICTED BY IDOCK:   -6.23 KCAL/MOL
REMARK 922        TOTAL FREE ENERGY PREDICTED BY IDOCK:   -9.87 KCAL/MOL
REMARK 923 INTER-LIGAND FREE ENERGY PREDICTED BY IDOCK:   -8.64 KCAL/MOL
REMARK 924 INTRA-LIGAND FREE ENERGY PREDICTED BY IDOCK:   -1.22 KCAL/MOL
REMARK 927      BINDING AFFINITY PREDICTED BY RF-SCORE:    0.00 PKD
ROOT
HETATM    1  C   UNL     1      -7.079  16.959  69.231  1.00  0.00    -0.192 C  
HETATM    2  C   UNL     1      -7.345  17.683  67.915  1.00  0.00    -0.202 C  
ENDROOT
BRANCH   2   3
HETATM    3  N   UNL     1      -8.093  18.946  68.040  1.00  0.00    -0.283 NA 
BRANCH   3   4
HETATM    4  C   UNL     1      -7.913  19.861  66.895  1.00  0.00    -0.306 C  
HETATM    5  C   UNL     1      -6.639  20.707  66.888  1.00  0.00    -0.323 C  
ENDBRANCH   3   4
BRANCH   3   6
HETATM    6  C   UNL     1      -9.534  18.700  68.291  1.00  0.00    -0.336 C  
BRANCH   6   7
HETATM    7  C   UNL     1     -10.352  18.211  67.082  1.00  0.00    -0.379 C  
BRANCH   7   8
HETATM    8  N   UNL     1     -10.814  16.852  67.244  1.00  0.00    -0.202 N  
HETATM    9  C   UNL     1     -10.374  15.851  66.414  1.00  0.00    -0.306 C  
HETATM   10  H   UNL     1     -11.478  16.632  67.986  1.00  0.00     0.000 HD 
HETATM   11  O   UNL     1      -9.560  16.058  65.516  1.00  0.00    -0.418 OA 
BRANCH   9  12
HETATM   12  C   UNL     1     -10.907  14.515  66.693  1.00  0.00    -0.311 A  
HETATM   13  C   UNL     1     -11.844  13.783  65.971  1.00  0.00    -0.390 A  
HETATM   14  C   UNL     1     -12.593  14.048  64.711  1.00  0.00    -0.326 C  
HETATM   15  N   UNL     1     -12.005  12.567  66.602  1.00  0.00    -0.574 NA 
HETATM   16  H   UNL     1     -12.655  11.840  66.302  1.00  0.00     0.000 HD 
HETATM   17  C   UNL     1     -11.174  12.465  67.685  1.00  0.00    -0.288 A  
HETATM   18  C   UNL     1     -10.474  13.662  67.774  1.00  0.00    -0.241 A  
HETATM   19  C   UNL     1      -9.443  14.030  68.795  1.00  0.00    -0.076 C  
BRANCH  17  20
HETATM   20  C   UNL     1     -11.100  11.307  68.500  1.00  0.00    -0.288 C  
HETATM   21  C   UNL     1     -11.600  11.065  69.719  1.00  0.00    -0.401 C  
HETATM   22  C   UNL     1     -12.402  11.919  70.668  1.00  0.00    -0.313 C  
HETATM   23  N   UNL     1     -12.619  11.116  71.782  1.00  0.00    -0.261 N  
HETATM   24  O   UNL     1     -12.781  13.062  70.509  1.00  0.00    -0.170 OA 
HETATM   25  C   UNL     1     -12.041   9.860  71.629  1.00  0.00    -0.373 A  
HETATM   26  H   UNL     1     -13.138  11.411  72.610  1.00  0.00     0.000 HD 
HETATM   27  C   UNL     1     -11.406   9.766  70.387  1.00  0.00    -0.362 A  
HETATM   28  C   UNL     1     -10.763   8.599  70.011  1.00  0.00    -0.233 A  
HETATM   29  C   UNL     1     -10.769   7.539  70.912  1.00  0.00    -0.235 A  
HETATM   30  F   UNL     1     -10.152   6.398  70.578  1.00  0.00    -0.191 F  
HETATM   31  C   UNL     1     -11.402   7.635  72.159  1.00  0.00    -0.341 A  
HETATM   32  C   UNL     1     -12.055   8.814  72.533  1.00  0.00    -0.320 A  
ENDBRANCH  17  20
ENDBRANCH   9  12
ENDBRANCH   7   8
ENDBRANCH   6   7
ENDBRANCH   3   6
ENDBRANCH   2   3
TORSDOF 7
ENDMDL
MODEL       19
REMARK 921   NORMALIZED FREE ENERGY PREDICTED BY IDOCK:   -6.21 KCAL/MOL
REMARK 922        TOTAL FREE ENERGY PREDICTED BY IDOCK:   -9.84 KCAL/MOL
REMARK 923 INTER-LIGAND FREE ENERGY PREDICTED BY IDOCK:   -8.57 KCAL/MOL
REMARK 924 INTRA-LIGAND FREE ENERGY PREDICTED BY IDOCK:   -1.27 KCAL/MOL
REMARK 927      BINDING AFFINITY PREDICTED BY RF-SCORE:    0.00 PKD
ROOT
HETATM    1  C   UNL     1     -11.145  15.247  65.120  1.00  0.00    -0.412 C  
HETATM    2  C   UNL     1     -11.349  14.716  66.535  1.00  0.00    -0.353 C  
ENDROOT
BRANCH   2   3
HETATM    3  N   UNL     1     -10.573  15.410  67.577  1.00  0.00    -0.277 NA 
BRANCH   3   4
HETATM    4  C   UNL     1     -11.407  16.134  68.558  1.00  0.00    -0.359 C  
HETATM    5  C   UNL     1     -12.000  15.303  69.697  1.00  0.00    -0.364 C  
ENDBRANCH   3   4
BRANCH   3   6
HETATM    6  C   UNL     1      -9.641  14.485  68.266  1.00  0.00    -0.212 C  
BRANCH   6   7
HETATM    7  C   UNL     1      -9.714  13.010  67.831  1.00  0.00    -0.218 C  
BRANCH   7   8
HETATM    8  N   UNL     1     -10.111  12.137  68.911  1.00  0.00    -0.418 N  
HETATM    9  C   UNL     1     -11.347  11.541  68.923  1.00  0.00    -0.268 C  
HETATM   10  H   UNL     1      -9.462  11.960  69.679  1.00  0.00     0.000 HD 
HETATM   11  O   UNL     1     -12.160  11.706  68.016  1.00  0.00    -0.597 OA 
BRANCH   9  12
HETATM   12  C   UNL     1     -11.620  10.669  70.068  1.00  0.00    -0.406 A  
HETATM   13  C   UNL     1     -12.418  10.915  71.182  1.00  0.00    -0.405 A  
HETATM   14  C   UNL     1     -13.260  12.072  71.594  1.00  0.00    -0.361 C  
HETATM   15  N   UNL     1     -12.395   9.786  71.973  1.00  0.00    -0.322 NA 
HETATM   16  H   UNL     1     -12.872   9.698  72.870  1.00  0.00     0.000 HD 
HETATM   17  C   UNL     1     -11.646   8.798  71.393  1.00  0.00    -0.299 A  
HETATM   18  C   UNL     1     -11.146   9.312  70.204  1.00  0.00    -0.260 A  
HETATM   19  C   UNL     1     -10.272   8.608  69.214  1.00  0.00    -0.215 C  
BRANCH  17  20
HETATM   20  C   UNL     1     -11.479   7.513  71.969  1.00  0.00    -0.319 C  
HETATM   21  C   UNL     1     -10.484   7.015  72.716  1.00  0.00    -0.266 C  
HETATM   22  C   UNL     1      -9.192   7.616  73.206  1.00  0.00    -0.229 C  
HETATM   23  N   UNL     1      -8.574   6.604  73.932  1.00  0.00    -0.133 N  
HETATM   24  O   UNL     1      -8.768   8.738  73.015  1.00  0.00    -0.368 OA 
HETATM   25  C   UNL     1      -9.340   5.442  73.946  1.00  0.00    -0.133 A  
HETATM   26  H   UNL     1      -7.671   6.700  74.396  1.00  0.00     0.000 HD 
HETATM   27  C   UNL     1     -10.521   5.631  73.223  1.00  0.00    -0.256 A  
HETATM   28  C   UNL     1     -11.446   4.607  73.104  1.00  0.00    -0.317 A  
HETATM   29  C   UNL     1     -11.151   3.396  73.721  1.00  0.00    -0.196 A  
HETATM   30  F   UNL     1     -12.024   2.386  73.621  1.00  0.00    -0.322 F  
HETATM   31  C   UNL     1      -9.965   3.206  74.443  1.00  0.00    -0.174 A  
HETATM   32  C   UNL     1      -9.036   4.244  74.564  1.00  0.00    -0.105 A  
ENDBRANCH  17  20
ENDBRANCH   9  12
ENDBRANCH   7   8
ENDBRANCH   6   7
ENDBRANCH   3   6
ENDBRANCH   2   3
TORSDOF 7
ENDMDL
MODEL       20
REMARK 921   NORMALIZED FREE ENERGY PREDICTED BY IDOCK:   -6.19 KCAL/MOL
REMARK 922        TOTAL FREE ENERGY PREDICTED BY IDOCK:   -9.81 KCAL/MOL
REMARK 923 INTER-LIGAND FREE ENERGY PREDICTED BY IDOCK:   -8.53 KCAL/MOL
REMARK 924 INTRA-LIGAND FREE ENERGY PREDICTED BY IDOCK:   -1.28 KCAL/MOL
REMARK 927      BINDING AFFINITY PREDICTED BY RF-SCORE:    0.00 PKD
ROOT
HETATM    1  C   UNL     1      -9.601   8.239  66.416  1.00  0.00    -0.300 C  
HETATM    2  C   UNL     1      -9.005   7.027  67.127  1.00  0.00    -0.121 C  
ENDROOT
BRANCH   2   3
HETATM    3  N   UNL     1      -9.980   5.997  67.523  1.00  0.00    -0.127 NA 
BRANCH   3   4
HETATM    4  C   UNL     1      -9.979   4.809  66.646  1.00  0.00    -0.235 C  
HETATM    5  C   UNL     1      -9.044   3.666  67.044  1.00  0.00    -0.186 C  
ENDBRANCH   3   4
BRANCH   3   6
HETATM    6  C   UNL     1      -9.805   5.600  68.941  1.00  0.00    -0.147 C  
BRANCH   6   7
HETATM    7  C   UNL     1     -11.003   5.873  69.868  1.00  0.00    -0.374 C  
BRANCH   7   8
HETATM    8  N   UNL     1     -11.433   7.252  69.820  1.00  0.00    -0.497 N  
HETATM    9  C   UNL     1     -11.133   8.123  70.838  1.00  0.00    -0.258 C  
HETATM   10  H   UNL     1     -11.968   7.584  69.017  1.00  0.00     0.000 HD 
HETATM   11  O   UNL     1     -10.476   7.780  71.818  1.00  0.00    -0.208 OA 
BRANCH   9  12
HETATM   12  C   UNL     1     -11.615   9.495  70.661  1.00  0.00    -0.350 A  
HETATM   13  C   UNL     1     -12.780  10.080  71.149  1.00  0.00    -0.387 A  
HETATM   14  C   UNL     1     -13.893   9.575  72.000  1.00  0.00    -0.365 C  
HETATM   15  N   UNL     1     -12.785  11.401  70.751  1.00  0.00    -0.290 NA 
HETATM   16  H   UNL     1     -13.537  12.061  70.947  1.00  0.00     0.000 HD 
HETATM   17  C   UNL     1     -11.645  11.707  70.059  1.00  0.00    -0.255 A  
HETATM   18  C   UNL     1     -10.891  10.543  69.982  1.00  0.00    -0.320 A  
HETATM   19  C   UNL     1      -9.558  10.375  69.323  1.00  0.00    -0.226 C  
BRANCH  17  20
HETATM   20  C   UNL     1     -11.366  13.006  69.561  1.00  0.00    -0.223 C  
HETATM   21  C   UNL     1     -11.315  13.465  68.304  1.00  0.00    -0.330 C  
HETATM   22  C   UNL     1     -11.521  12.788  66.973  1.00  0.00    -0.341 C  
HETATM   23  N   UNL     1     -11.329  13.787  66.025  1.00  0.00    -0.309 N  
HETATM   24  O   UNL     1     -11.791  11.623  66.759  1.00  0.00    -0.557 OA 
HETATM   25  C   UNL     1     -11.028  15.008  66.621  1.00  0.00    -0.325 A  
HETATM   26  H   UNL     1     -11.400  13.642  65.017  1.00  0.00     0.000 HD 
HETATM   27  C   UNL     1     -11.008  14.877  68.012  1.00  0.00    -0.282 A  
HETATM   28  C   UNL     1     -10.734  15.968  68.818  1.00  0.00    -0.282 A  
HETATM   29  C   UNL     1     -10.478  17.185  68.193  1.00  0.00    -0.366 A  
HETATM   30  F   UNL     1     -10.207  18.258  68.946  1.00  0.00    -0.365 F  
HETATM   31  C   UNL     1     -10.494  17.314  66.798  1.00  0.00    -0.261 A  
HETATM   32  C   UNL     1     -10.775  16.210  65.988  1.00  0.00    -0.245 A  
ENDBRANCH  17  20
ENDBRANCH   9  12
ENDBRANCH   7   8
ENDBRANCH   6   7
ENDBRANCH   3   6
ENDBRANCH   2   3
TORSDOF 7
ENDMDL
MODEL       21
REMARK 921   NORMALIZED FREE ENERGY PREDICTED BY IDOCK:   -6.19 KCAL/MOL
REMARK 922        TOTAL FREE ENERGY PREDICTED BY IDOCK:   -9.81 KCAL/MOL
REMARK 923 INTER-LIGAND FREE ENERGY PREDICTED BY IDOCK:   -8.66 KCAL/MOL
REMARK 924 INTRA-LIGAND FREE ENERGY PREDICTED BY IDOCK:   -1.14 KCAL/MOL
REMARK 927      BINDING AFFINITY PREDICTED BY RF-SCORE:    0.00 PKD
ROOT
HETATM    1  C   UNL     1      -6.713   6.353  68.187  1.00  0.00    -0.068 C  
HETATM    2  C   UNL     1      -7.487   5.040  68.137  1.00  0.00    -0.075 C  
ENDROOT
BRANCH   2   3
HETATM    3  N   UNL     1      -8.919   5.149  68.462  1.00  0.00    -0.104 NA 
BRANCH   3   4
HETATM    4  C   UNL     1      -9.785   5.339  67.281  1.00  0.00    -0.149 C  
HETATM    5  C   UNL     1     -10.073   6.783  66.867  1.00  0.00    -0.268 C  
ENDBRANCH   3   4
BRANCH   3   6
HETATM    6  C   UNL     1      -9.383   3.995  69.269  1.00  0.00    -0.168 C  
BRANCH   6   7
HETATM    7  C   UNL     1     -10.050   4.339  70.613  1.00  0.00    -0.070 C  
BRANCH   7   8
HETATM    8  N   UNL     1     -10.795   5.575  70.557  1.00  0.00    -0.243 N  
HETATM    9  C   UNL     1     -11.101   6.270  71.700  1.00  0.00    -0.274 C  
HETATM   10  H   UNL     1     -11.099   5.937  69.653  1.00  0.00     0.000 HD 
HETATM   11  O   UNL     1     -10.743   5.888  72.812  1.00  0.00    -0.212 OA 
BRANCH   9  12
HETATM   12  C   UNL     1     -11.849   7.515  71.505  1.00  0.00    -0.324 A  
HETATM   13  C   UNL     1     -13.225   7.718  71.529  1.00  0.00    -0.316 A  
HETATM   14  C   UNL     1     -14.383   6.814  71.771  1.00  0.00    -0.296 C  
HETATM   15  N   UNL     1     -13.455   9.063  71.328  1.00  0.00    -0.536 NA 
HETATM   16  H   UNL     1     -14.379   9.490  71.270  1.00  0.00     0.000 HD 
HETATM   17  C   UNL     1     -12.276   9.749  71.216  1.00  0.00    -0.374 A  
HETATM   18  C   UNL     1     -11.252   8.816  71.321  1.00  0.00    -0.352 A  
HETATM   19  C   UNL     1      -9.780   9.083  71.263  1.00  0.00    -0.371 C  
BRANCH  17  20
HETATM   20  C   UNL     1     -12.210  11.155  71.040  1.00  0.00    -0.438 C  
HETATM   21  C   UNL     1     -12.025  11.887  69.934  1.00  0.00    -0.398 C  
HETATM   22  C   UNL     1     -11.811  11.502  68.492  1.00  0.00    -0.297 C  
HETATM   23  N   UNL     1     -11.674  12.707  67.811  1.00  0.00    -0.350 N  
HETATM   24  O   UNL     1     -11.763  10.386  68.015  1.00  0.00    -0.383 OA 
HETATM   25  C   UNL     1     -11.780  13.796  68.671  1.00  0.00    -0.356 A  
HETATM   26  H   UNL     1     -11.516  12.783  66.807  1.00  0.00     0.000 HD 
HETATM   27  C   UNL     1     -11.998  13.360  69.981  1.00  0.00    -0.407 A  
HETATM   28  C   UNL     1     -12.141  14.273  71.012  1.00  0.00    -0.416 A  
HETATM   29  C   UNL     1     -12.054  15.625  70.695  1.00  0.00    -0.405 A  
HETATM   30  F   UNL     1     -12.184  16.532  71.671  1.00  0.00    -0.425 F  
HETATM   31  C   UNL     1     -11.831  16.061  69.382  1.00  0.00    -0.247 A  
HETATM   32  C   UNL     1     -11.692  15.135  68.343  1.00  0.00    -0.338 A  
ENDBRANCH  17  20
ENDBRANCH   9  12
ENDBRANCH   7   8
ENDBRANCH   6   7
ENDBRANCH   3   6
ENDBRANCH   2   3
TORSDOF 7
ENDMDL
MODEL       22
REMARK 921   NORMALIZED FREE ENERGY PREDICTED BY IDOCK:   -6.14 KCAL/MOL
REMARK 922        TOTAL FREE ENERGY PREDICTED BY IDOCK:   -9.73 KCAL/MOL
REMARK 923 INTER-LIGAND FREE ENERGY PREDICTED BY IDOCK:   -9.18 KCAL/MOL
REMARK 924 INTRA-LIGAND FREE ENERGY PREDICTED BY IDOCK:   -0.55 KCAL/MOL
REMARK 927      BINDING AFFINITY PREDICTED BY RF-SCORE:    0.00 PKD
ROOT
HETATM    1  C   UNL     1     -14.324  14.356  71.831  1.00  0.00    -0.627 C  
HETATM    2  C   UNL     1     -13.539  15.465  71.137  1.00  0.00    -0.462 C  
ENDROOT
BRANCH   2   3
HETATM    3  N   UNL     1     -12.254  15.805  71.769  1.00  0.00    -0.412 NA 
BRANCH   3   4
HETATM    4  C   UNL     1     -12.041  15.150  73.075  1.00  0.00    -0.374 C  
HETATM    5  C   UNL     1     -12.515  15.917  74.311  1.00  0.00    -0.773 C  
ENDBRANCH   3   4
BRANCH   3   6
HETATM    6  C   UNL     1     -11.114  15.538  70.859  1.00  0.00    -0.348 C  
BRANCH   6   7
HETATM    7  C   UNL     1     -11.412  14.617  69.661  1.00  0.00    -0.289 C  
BRANCH   7   8
HETATM    8  N   UNL     1     -11.372  13.218  70.020  1.00  0.00    -0.501 N  
HETATM    9  C   UNL     1     -11.775  12.249  69.136  1.00  0.00    -0.323 C  
HETATM   10  H   UNL     1     -11.040  12.946  70.946  1.00  0.00     0.000 HD 
HETATM   11  O   UNL     1     -12.166  12.520  68.003  1.00  0.00    -0.310 OA 
BRANCH   9  12
HETATM   12  C   UNL     1     -11.672  10.868  69.618  1.00  0.00    -0.403 A  
HETATM   13  C   UNL     1     -12.237  10.298  70.754  1.00  0.00    -0.350 A  
HETATM   14  C   UNL     1     -13.121  10.829  71.828  1.00  0.00    -0.573 C  
HETATM   15  N   UNL     1     -11.890   8.963  70.771  1.00  0.00    -0.419 NA 
HETATM   16  H   UNL     1     -12.146   8.308  71.509  1.00  0.00     0.000 HD 
HETATM   17  C   UNL     1     -11.155   8.636  69.664  1.00  0.00    -0.013 A  
HETATM   18  C   UNL     1     -10.998   9.799  68.921  1.00  0.00    -0.183 A  
HETATM   19  C   UNL     1     -10.270   9.948  67.622  1.00  0.00    -0.255 C  
BRANCH  17  20
HETATM   20  C   UNL     1     -10.693   7.320  69.401  1.00  0.00    -0.236 C  
HETATM   21  C   UNL     1     -10.456   6.297  70.232  1.00  0.00    -0.276 C  
HETATM   22  C   UNL     1     -10.578   6.164  71.729  1.00  0.00    -0.223 C  
HETATM   23  N   UNL     1     -10.182   4.861  72.010  1.00  0.00    -0.195 N  
HETATM   24  O   UNL     1     -10.939   7.004  72.528  1.00  0.00    -0.239 OA 
HETATM   25  C   UNL     1      -9.829   4.172  70.853  1.00  0.00    -0.177 A  
HETATM   26  H   UNL     1     -10.154   4.460  72.947  1.00  0.00     0.000 HD 
HETATM   27  C   UNL     1      -9.978   4.995  69.734  1.00  0.00    -0.319 A  
HETATM   28  C   UNL     1      -9.689   4.519  68.466  1.00  0.00    -0.198 A  
HETATM   29  C   UNL     1      -9.243   3.206  68.355  1.00  0.00    -0.178 A  
HETATM   30  F   UNL     1      -8.952   2.718  67.143  1.00  0.00    -0.123 F  
HETATM   31  C   UNL     1      -9.090   2.383  69.479  1.00  0.00    -0.182 A  
HETATM   32  C   UNL     1      -9.388   2.866  70.757  1.00  0.00    -0.222 A  
ENDBRANCH  17  20
ENDBRANCH   9  12
ENDBRANCH   7   8
ENDBRANCH   6   7
ENDBRANCH   3   6
ENDBRANCH   2   3
TORSDOF 7
ENDMDL
MODEL       23
REMARK 921   NORMALIZED FREE ENERGY PREDICTED BY IDOCK:   -6.09 KCAL/MOL
REMARK 922        TOTAL FREE ENERGY PREDICTED BY IDOCK:   -9.66 KCAL/MOL
REMARK 923 INTER-LIGAND FREE ENERGY PREDICTED BY IDOCK:   -8.72 KCAL/MOL
REMARK 924 INTRA-LIGAND FREE ENERGY PREDICTED BY IDOCK:   -0.95 KCAL/MOL
REMARK 927      BINDING AFFINITY PREDICTED BY RF-SCORE:    0.00 PKD
ROOT
HETATM    1  C   UNL     1     -14.307   7.704  71.814  1.00  0.00    -0.586 C  
HETATM    2  C   UNL     1     -12.861   7.631  71.331  1.00  0.00    -0.319 C  
ENDROOT
BRANCH   2   3
HETATM    3  N   UNL     1     -11.863   8.157  72.277  1.00  0.00    -0.358 NA 
BRANCH   3   4
HETATM    4  C   UNL     1     -11.094   7.107  72.975  1.00  0.00    -0.283 C  
HETATM    5  C   UNL     1      -9.758   7.531  73.589  1.00  0.00    -0.341 C  
ENDBRANCH   3   4
BRANCH   3   6
HETATM    6  C   UNL     1     -10.950   9.123  71.620  1.00  0.00    -0.374 C  
BRANCH   6   7
HETATM    7  C   UNL     1     -11.240   9.421  70.138  1.00  0.00    -0.219 C  
BRANCH   7   8
HETATM    8  N   UNL     1     -10.400  10.473  69.613  1.00  0.00    -0.347 N  
HETATM    9  C   UNL     1     -10.608  10.986  68.357  1.00  0.00    -0.193 C  
HETATM   10  H   UNL     1      -9.639  10.840  70.185  1.00  0.00     0.000 HD 
HETATM   11  O   UNL     1     -11.521  10.593  67.634  1.00  0.00    -0.474 OA 
BRANCH   9  12
HETATM   12  C   UNL     1      -9.695  12.058  67.950  1.00  0.00    -0.194 A  
HETATM   13  C   UNL     1      -8.571  11.982  67.134  1.00  0.00    -0.182 A  
HETATM   14  C   UNL     1      -7.925  10.864  66.392  1.00  0.00    -0.157 C  
HETATM   15  N   UNL     1      -8.055  13.255  67.011  1.00  0.00    -0.385 NA 
HETATM   16  H   UNL     1      -7.211  13.490  66.489  1.00  0.00     0.000 HD 
HETATM   17  C   UNL     1      -8.828  14.163  67.683  1.00  0.00    -0.194 A  
HETATM   18  C   UNL     1      -9.860  13.453  68.282  1.00  0.00    -0.235 A  
HETATM   19  C   UNL     1     -10.966  14.008  69.124  1.00  0.00    -0.263 C  
BRANCH  17  20
HETATM   20  C   UNL     1      -8.554  15.555  67.697  1.00  0.00    -0.175 C  
HETATM   21  C   UNL     1      -9.168  16.571  67.076  1.00  0.00    -0.233 C  
HETATM   22  C   UNL     1     -10.348  16.616  66.140  1.00  0.00    -0.330 C  
HETATM   23  N   UNL     1     -10.507  17.960  65.822  1.00  0.00    -0.294 N  
HETATM   24  O   UNL     1     -11.021  15.688  65.738  1.00  0.00    -0.314 OA 
HETATM   25  C   UNL     1      -9.557  18.753  66.459  1.00  0.00    -0.348 A  
HETATM   26  H   UNL     1     -11.231  18.321  65.201  1.00  0.00     0.000 HD 
HETATM   27  C   UNL     1      -8.711  17.962  67.242  1.00  0.00    -0.240 A  
HETATM   28  C   UNL     1      -7.687  18.538  67.975  1.00  0.00    -0.281 A  
HETATM   29  C   UNL     1      -7.533  19.918  67.895  1.00  0.00    -0.293 A  
HETATM   30  F   UNL     1      -6.550  20.504  68.590  1.00  0.00    -0.330 F  
HETATM   31  C   UNL     1      -8.379  20.710  67.106  1.00  0.00    -0.292 A  
HETATM   32  C   UNL     1      -9.415  20.125  66.372  1.00  0.00    -0.479 A  
ENDBRANCH  17  20
ENDBRANCH   9  12
ENDBRANCH   7   8
ENDBRANCH   6   7
ENDBRANCH   3   6
ENDBRANCH   2   3
TORSDOF 7
ENDMDL
MODEL       24
REMARK 921   NORMALIZED FREE ENERGY PREDICTED BY IDOCK:   -6.08 KCAL/MOL
REMARK 922        TOTAL FREE ENERGY PREDICTED BY IDOCK:   -9.65 KCAL/MOL
REMARK 923 INTER-LIGAND FREE ENERGY PREDICTED BY IDOCK:   -8.87 KCAL/MOL
REMARK 924 INTRA-LIGAND FREE ENERGY PREDICTED BY IDOCK:   -0.79 KCAL/MOL
REMARK 927      BINDING AFFINITY PREDICTED BY RF-SCORE:    0.00 PKD
ROOT
HETATM    1  C   UNL     1      -9.174   5.886  70.220  1.00  0.00    -0.170 C  
HETATM    2  C   UNL     1      -8.654   5.106  71.425  1.00  0.00    -0.128 C  
ENDROOT
BRANCH   2   3
HETATM    3  N   UNL     1      -9.677   4.748  72.422  1.00  0.00    -0.151 NA 
BRANCH   3   4
HETATM    4  C   UNL     1      -9.971   3.302  72.480  1.00  0.00    -0.157 C  
HETATM    5  C   UNL     1      -9.929   2.651  73.864  1.00  0.00    -0.154 C  
ENDBRANCH   3   4
BRANCH   3   6
HETATM    6  C   UNL     1      -9.328   5.265  73.767  1.00  0.00    -0.132 C  
BRANCH   6   7
HETATM    7  C   UNL     1     -10.242   6.374  74.319  1.00  0.00    -0.344 C  
BRANCH   7   8
HETATM    8  N   UNL     1     -10.857   7.153  73.270  1.00  0.00    -0.446 N  
HETATM    9  C   UNL     1     -10.258   8.290  72.788  1.00  0.00    -0.255 C  
HETATM   10  H   UNL     1     -11.752   6.854  72.881  1.00  0.00     0.000 HD 
HETATM   11  O   UNL     1      -9.173   8.685  73.208  1.00  0.00    -0.196 OA 
BRANCH   9  12
HETATM   12  C   UNL     1     -10.979   8.981  71.715  1.00  0.00    -0.443 A  
HETATM   13  C   UNL     1     -12.333   9.288  71.631  1.00  0.00    -0.372 A  
HETATM   14  C   UNL     1     -13.485   9.069  72.549  1.00  0.00    -0.485 C  
HETATM   15  N   UNL     1     -12.536   9.972  70.451  1.00  0.00    -0.520 NA 
HETATM   16  H   UNL     1     -13.445  10.296  70.119  1.00  0.00     0.000 HD 
HETATM   17  C   UNL     1     -11.356  10.158  69.785  1.00  0.00    -0.256 A  
HETATM   18  C   UNL     1     -10.362   9.552  70.542  1.00  0.00    -0.350 A  
HETATM   19  C   UNL     1      -8.900   9.492  70.227  1.00  0.00    -0.281 C  
BRANCH  17  20
HETATM   20  C   UNL     1     -11.261  10.864  68.557  1.00  0.00    -0.335 C  
HETATM   21  C   UNL     1     -10.804  10.474  67.360  1.00  0.00    -0.349 C  
HETATM   22  C   UNL     1     -10.221   9.170  66.879  1.00  0.00    -0.266 C  
HETATM   23  N   UNL     1      -9.924   9.379  65.537  1.00  0.00    -0.421 N  
HETATM   24  O   UNL     1     -10.039   8.151  67.514  1.00  0.00    -0.188 OA 
HETATM   25  C   UNL     1     -10.260  10.668  65.133  1.00  0.00    -0.299 A  
HETATM   26  H   UNL     1      -9.512   8.675  64.924  1.00  0.00     0.000 HD 
HETATM   27  C   UNL     1     -10.805  11.385  66.202  1.00  0.00    -0.310 A  
HETATM   28  C   UNL     1     -11.219  12.695  66.033  1.00  0.00    -0.345 A  
HETATM   29  C   UNL     1     -11.067  13.263  64.772  1.00  0.00    -0.342 A  
HETATM   30  F   UNL     1     -11.455  14.530  64.578  1.00  0.00    -0.363 F  
HETATM   31  C   UNL     1     -10.516  12.545  63.702  1.00  0.00    -0.418 A  
HETATM   32  C   UNL     1     -10.104  11.220  63.876  1.00  0.00    -0.392 A  
ENDBRANCH  17  20
ENDBRANCH   9  12
ENDBRANCH   7   8
ENDBRANCH   6   7
ENDBRANCH   3   6
ENDBRANCH   2   3
TORSDOF 7
ENDMDL
MODEL       25
REMARK 921   NORMALIZED FREE ENERGY PREDICTED BY IDOCK:   -6.07 KCAL/MOL
REMARK 922        TOTAL FREE ENERGY PREDICTED BY IDOCK:   -9.64 KCAL/MOL
REMARK 923 INTER-LIGAND FREE ENERGY PREDICTED BY IDOCK:   -8.58 KCAL/MOL
REMARK 924 INTRA-LIGAND FREE ENERGY PREDICTED BY IDOCK:   -1.06 KCAL/MOL
REMARK 927      BINDING AFFINITY PREDICTED BY RF-SCORE:    0.00 PKD
ROOT
HETATM    1  C   UNL     1     -12.403  15.546  74.491  1.00  0.00    -0.756 C  
HETATM    2  C   UNL     1     -13.233  15.865  73.251  1.00  0.00    -0.595 C  
ENDROOT
BRANCH   2   3
HETATM    3  N   UNL     1     -13.107  14.893  72.152  1.00  0.00    -0.321 NA 
BRANCH   3   4
HETATM    4  C   UNL     1     -13.928  13.679  72.333  1.00  0.00    -0.548 C  
HETATM    5  C   UNL     1     -13.274  12.349  71.958  1.00  0.00    -0.514 C  
ENDBRANCH   3   4
BRANCH   3   6
HETATM    6  C   UNL     1     -13.388  15.521  70.838  1.00  0.00    -0.353 C  
BRANCH   6   7
HETATM    7  C   UNL     1     -12.178  15.688  69.900  1.00  0.00    -0.294 C  
BRANCH   7   8
HETATM    8  N   UNL     1     -12.057  14.598  68.959  1.00  0.00    -0.516 N  
HETATM    9  C   UNL     1     -11.248  14.702  67.856  1.00  0.00    -0.304 C  
HETATM   10  H   UNL     1     -12.582  13.738  69.117  1.00  0.00     0.000 HD 
HETATM   11  O   UNL     1     -10.580  15.709  67.628  1.00  0.00    -0.280 OA 
BRANCH   9  12
HETATM   12  C   UNL     1     -11.203  13.522  66.988  1.00  0.00    -0.330 A  
HETATM   13  C   UNL     1     -11.961  13.244  65.855  1.00  0.00    -0.419 A  
HETATM   14  C   UNL     1     -13.017  14.000  65.126  1.00  0.00    -0.260 C  
HETATM   15  N   UNL     1     -11.539  12.030  65.355  1.00  0.00    -0.323 NA 
HETATM   16  H   UNL     1     -11.943  11.567  64.541  1.00  0.00     0.000 HD 
HETATM   17  C   UNL     1     -10.505  11.528  66.098  1.00  0.00    -0.251 A  
HETATM   18  C   UNL     1     -10.268  12.432  67.127  1.00  0.00    -0.226 A  
HETATM   19  C   UNL     1      -9.230  12.324  68.200  1.00  0.00    -0.197 C  
BRANCH  17  20
HETATM   20  C   UNL     1      -9.850  10.308  65.791  1.00  0.00    -0.320 C  
HETATM   21  C   UNL     1      -9.379   9.841  64.627  1.00  0.00    -0.318 C  
HETATM   22  C   UNL     1      -9.377  10.417  63.235  1.00  0.00    -0.304 C  
HETATM   23  N   UNL     1      -8.749   9.459  62.447  1.00  0.00    -0.215 N  
HETATM   24  O   UNL     1      -9.825  11.484  62.865  1.00  0.00    -0.358 OA 
HETATM   25  C   UNL     1      -8.361   8.353  63.197  1.00  0.00    -0.084 A  
HETATM   26  H   UNL     1      -8.592   9.555  61.443  1.00  0.00     0.000 HD 
HETATM   27  C   UNL     1      -8.716   8.527  64.537  1.00  0.00     0.016 A  
HETATM   28  C   UNL     1      -8.424   7.552  65.476  1.00  0.00    -0.129 A  
HETATM   29  C   UNL     1      -7.777   6.403  65.033  1.00  0.00    -0.098 A  
HETATM   30  F   UNL     1      -7.484   5.440  65.917  1.00  0.00    -0.076 F  
HETATM   31  C   UNL     1      -7.426   6.227  63.688  1.00  0.00    -0.080 A  
HETATM   32  C   UNL     1      -7.718   7.216  62.744  1.00  0.00    -0.118 A  
ENDBRANCH  17  20
ENDBRANCH   9  12
ENDBRANCH   7   8
ENDBRANCH   6   7
ENDBRANCH   3   6
ENDBRANCH   2   3
TORSDOF 7
ENDMDL
MODEL       26
REMARK 921   NORMALIZED FREE ENERGY PREDICTED BY IDOCK:   -6.05 KCAL/MOL
REMARK 922        TOTAL FREE ENERGY PREDICTED BY IDOCK:   -9.62 KCAL/MOL
REMARK 923 INTER-LIGAND FREE ENERGY PREDICTED BY IDOCK:   -9.18 KCAL/MOL
REMARK 924 INTRA-LIGAND FREE ENERGY PREDICTED BY IDOCK:   -0.44 KCAL/MOL
REMARK 927      BINDING AFFINITY PREDICTED BY RF-SCORE:    0.00 PKD
ROOT
HETATM    1  C   UNL     1      -5.996  17.719  67.895  1.00  0.00    -0.159 C  
HETATM    2  C   UNL     1      -7.226  18.164  68.679  1.00  0.00    -0.281 C  
ENDROOT
BRANCH   2   3
HETATM    3  N   UNL     1      -8.322  18.709  67.860  1.00  0.00    -0.267 NA 
BRANCH   3   4
HETATM    4  C   UNL     1      -7.874  19.667  66.828  1.00  0.00    -0.282 C  
HETATM    5  C   UNL     1      -7.186  20.938  67.328  1.00  0.00    -0.408 C  
ENDBRANCH   3   4
BRANCH   3   6
HETATM    6  C   UNL     1      -9.134  17.627  67.250  1.00  0.00    -0.237 C  
BRANCH   6   7
HETATM    7  C   UNL     1     -10.587  17.517  67.747  1.00  0.00    -0.375 C  
BRANCH   7   8
HETATM    8  N   UNL     1     -10.808  16.331  68.542  1.00  0.00    -0.312 N  
HETATM    9  C   UNL     1     -11.410  15.221  68.005  1.00  0.00    -0.338 C  
HETATM   10  H   UNL     1     -10.513  16.319  69.518  1.00  0.00     0.000 HD 
HETATM   11  O   UNL     1     -11.769  15.176  66.830  1.00  0.00    -0.244 OA 
BRANCH   9  12
HETATM   12  C   UNL     1     -11.563  14.081  68.913  1.00  0.00    -0.351 A  
HETATM   13  C   UNL     1     -12.251  14.015  70.121  1.00  0.00    -0.359 A  
HETATM   14  C   UNL     1     -13.059  15.003  70.887  1.00  0.00    -0.462 C  
HETATM   15  N   UNL     1     -12.142  12.724  70.596  1.00  0.00    -0.509 NA 
HETATM   16  H   UNL     1     -12.529  12.399  71.482  1.00  0.00     0.000 HD 
HETATM   17  C   UNL     1     -11.444  11.938  69.719  1.00  0.00    -0.229 A  
HETATM   18  C   UNL     1     -11.066  12.750  68.657  1.00  0.00    -0.304 A  
HETATM   19  C   UNL     1     -10.287  12.345  67.446  1.00  0.00    -0.217 C  
BRANCH  17  20
HETATM   20  C   UNL     1     -11.211  10.556  69.935  1.00  0.00    -0.374 C  
HETATM   21  C   UNL     1     -11.771   9.701  70.801  1.00  0.00    -0.390 C  
HETATM   22  C   UNL     1     -12.830   9.886  71.858  1.00  0.00    -0.429 C  
HETATM   23  N   UNL     1     -12.984   8.631  72.438  1.00  0.00    -0.520 N  
HETATM   24  O   UNL     1     -13.424  10.903  72.153  1.00  0.00    -0.372 OA 
HETATM   25  C   UNL     1     -12.140   7.690  71.857  1.00  0.00    -0.298 A  
HETATM   26  H   UNL     1     -13.636   8.426  73.195  1.00  0.00     0.000 HD 
HETATM   27  C   UNL     1     -11.375   8.282  70.848  1.00  0.00    -0.292 A  
HETATM   28  C   UNL     1     -10.463   7.534  70.124  1.00  0.00    -0.226 A  
HETATM   29  C   UNL     1     -10.337   6.185  70.443  1.00  0.00    -0.213 A  
HETATM   30  F   UNL     1      -9.460   5.435  69.762  1.00  0.00    -0.153 F  
HETATM   31  C   UNL     1     -11.101   5.593  71.458  1.00  0.00    -0.235 A  
HETATM   32  C   UNL     1     -12.024   6.352  72.183  1.00  0.00    -0.346 A  
ENDBRANCH  17  20
ENDBRANCH   9  12
ENDBRANCH   7   8
ENDBRANCH   6   7
ENDBRANCH   3   6
ENDBRANCH   2   3
TORSDOF 7
ENDMDL
MODEL       27
REMARK 921   NORMALIZED FREE ENERGY PREDICTED BY IDOCK:   -6.03 KCAL/MOL
REMARK 922        TOTAL FREE ENERGY PREDICTED BY IDOCK:   -9.59 KCAL/MOL
REMARK 923 INTER-LIGAND FREE ENERGY PREDICTED BY IDOCK:   -8.97 KCAL/MOL
REMARK 924 INTRA-LIGAND FREE ENERGY PREDICTED BY IDOCK:   -0.62 KCAL/MOL
REMARK 927      BINDING AFFINITY PREDICTED BY RF-SCORE:    0.00 PKD
ROOT
HETATM    1  C   UNL     1     -12.274  12.211  63.346  1.00  0.00    -0.635 C  
HETATM    2  C   UNL     1     -10.781  12.168  63.659  1.00  0.00    -0.467 C  
ENDROOT
BRANCH   2   3
HETATM    3  N   UNL     1     -10.348  13.063  64.745  1.00  0.00    -0.339 NA 
BRANCH   3   4
HETATM    4  C   UNL     1     -11.021  14.378  64.737  1.00  0.00    -0.397 C  
HETATM    5  C   UNL     1     -10.249  15.545  65.355  1.00  0.00    -0.409 C  
ENDBRANCH   3   4
BRANCH   3   6
HETATM    6  C   UNL     1     -10.486  12.414  66.071  1.00  0.00    -0.254 C  
BRANCH   6   7
HETATM    7  C   UNL     1     -11.798  12.697  66.824  1.00  0.00    -0.370 C  
BRANCH   7   8
HETATM    8  N   UNL     1     -11.963  11.845  67.980  1.00  0.00    -0.242 N  
HETATM    9  C   UNL     1     -11.668  12.298  69.241  1.00  0.00    -0.330 C  
HETATM   10  H   UNL     1     -12.305  10.892  67.856  1.00  0.00     0.000 HD 
HETATM   11  O   UNL     1     -11.270  13.442  69.448  1.00  0.00    -0.244 OA 
BRANCH   9  12
HETATM   12  C   UNL     1     -11.892  11.340  70.328  1.00  0.00    -0.446 A  
HETATM   13  C   UNL     1     -12.663  11.490  71.476  1.00  0.00    -0.334 A  
HETATM   14  C   UNL     1     -13.516  12.596  71.993  1.00  0.00    -0.516 C  
HETATM   15  N   UNL     1     -12.597  10.309  72.184  1.00  0.00    -0.219 NA 
HETATM   16  H   UNL     1     -13.047  10.147  73.085  1.00  0.00     0.000 HD 
HETATM   17  C   UNL     1     -11.845   9.381  71.516  1.00  0.00    -0.385 A  
HETATM   18  C   UNL     1     -11.388   9.988  70.354  1.00  0.00    -0.392 A  
HETATM   19  C   UNL     1     -10.528   9.374  69.293  1.00  0.00    -0.230 C  
BRANCH  17  20
HETATM   20  C   UNL     1     -11.637   8.061  71.994  1.00  0.00    -0.369 C  
HETATM   21  C   UNL     1     -10.531   7.468  72.463  1.00  0.00    -0.300 C  
HETATM   22  C   UNL     1      -9.120   7.965  72.645  1.00  0.00    -0.197 C  
HETATM   23  N   UNL     1      -8.420   6.883  73.168  1.00  0.00    -0.117 N  
HETATM   24  O   UNL     1      -8.675   9.066  72.392  1.00  0.00    -0.347 OA 
HETATM   25  C   UNL     1      -9.241   5.771  73.331  1.00  0.00    -0.132 A  
HETATM   26  H   UNL     1      -7.427   6.902  73.404  1.00  0.00     0.000 HD 
HETATM   27  C   UNL     1     -10.544   6.067  72.920  1.00  0.00    -0.262 A  
HETATM   28  C   UNL     1     -11.541   5.109  72.996  1.00  0.00    -0.301 A  
HETATM   29  C   UNL     1     -11.195   3.854  73.486  1.00  0.00    -0.218 A  
HETATM   30  F   UNL     1     -12.136   2.905  73.568  1.00  0.00    -0.262 F  
HETATM   31  C   UNL     1      -9.887   3.557  73.893  1.00  0.00    -0.155 A  
HETATM   32  C   UNL     1      -8.884   4.529  73.819  1.00  0.00    -0.104 A  
ENDBRANCH  17  20
ENDBRANCH   9  12
ENDBRANCH   7   8
ENDBRANCH   6   7
ENDBRANCH   3   6
ENDBRANCH   2   3
TORSDOF 7
ENDMDL
MODEL       28
REMARK 921   NORMALIZED FREE ENERGY PREDICTED BY IDOCK:   -6.01 KCAL/MOL
REMARK 922        TOTAL FREE ENERGY PREDICTED BY IDOCK:   -9.56 KCAL/MOL
REMARK 923 INTER-LIGAND FREE ENERGY PREDICTED BY IDOCK:   -9.16 KCAL/MOL
REMARK 924 INTRA-LIGAND FREE ENERGY PREDICTED BY IDOCK:   -0.40 KCAL/MOL
REMARK 927      BINDING AFFINITY PREDICTED BY RF-SCORE:    0.00 PKD
ROOT
HETATM    1  C   UNL     1      -7.082  16.001  69.290  1.00  0.00    -0.220 C  
HETATM    2  C   UNL     1      -7.451  16.692  67.980  1.00  0.00    -0.164 C  
ENDROOT
BRANCH   2   3
HETATM    3  N   UNL     1      -8.261  17.913  68.129  1.00  0.00    -0.261 NA 
BRANCH   3   4
HETATM    4  C   UNL     1      -7.556  19.015  68.814  1.00  0.00    -0.340 C  
HETATM    5  C   UNL     1      -7.105  20.187  67.941  1.00  0.00    -0.325 C  
ENDBRANCH   3   4
BRANCH   3   6
HETATM    6  C   UNL     1      -8.798  18.369  66.824  1.00  0.00    -0.278 C  
BRANCH   6   7
HETATM    7  C   UNL     1     -10.316  18.200  66.627  1.00  0.00    -0.376 C  
BRANCH   7   8
HETATM    8  N   UNL     1     -10.756  16.847  66.877  1.00  0.00    -0.199 N  
HETATM    9  C   UNL     1     -10.910  15.951  65.848  1.00  0.00    -0.233 C  
HETATM   10  H   UNL     1     -10.956  16.552  67.833  1.00  0.00     0.000 HD 
HETATM   11  O   UNL     1     -10.666  16.248  64.681  1.00  0.00    -0.670 OA 
BRANCH   9  12
HETATM   12  C   UNL     1     -11.348  14.607  66.237  1.00  0.00    -0.347 A  
HETATM   13  C   UNL     1     -11.884  13.601  65.441  1.00  0.00    -0.353 A  
HETATM   14  C   UNL     1     -12.173  13.501  63.983  1.00  0.00    -0.458 C  
HETATM   15  N   UNL     1     -12.111  12.504  66.246  1.00  0.00    -0.605 NA 
HETATM   16  H   UNL     1     -12.528  11.629  65.928  1.00  0.00     0.000 HD 
HETATM   17  C   UNL     1     -11.703  12.747  67.529  1.00  0.00    -0.364 A  
HETATM   18  C   UNL     1     -11.222  14.050  67.563  1.00  0.00    -0.328 A  
HETATM   19  C   UNL     1     -10.660  14.773  68.747  1.00  0.00    -0.251 C  
BRANCH  17  20
HETATM   20  C   UNL     1     -11.784  11.781  68.565  1.00  0.00    -0.390 C  
HETATM   21  C   UNL     1     -11.219  10.571  68.674  1.00  0.00    -0.328 C  
HETATM   22  C   UNL     1     -10.314   9.793  67.753  1.00  0.00    -0.225 C  
HETATM   23  N   UNL     1     -10.068   8.595  68.415  1.00  0.00    -0.185 N  
HETATM   24  O   UNL     1      -9.887  10.125  66.666  1.00  0.00    -0.183 OA 
HETATM   25  C   UNL     1     -10.719   8.545  69.644  1.00  0.00    -0.197 A  
HETATM   26  H   UNL     1      -9.482   7.846  68.046  1.00  0.00     0.000 HD 
HETATM   27  C   UNL     1     -11.437   9.724  69.861  1.00  0.00    -0.190 A  
HETATM   28  C   UNL     1     -12.163   9.903  71.026  1.00  0.00    -0.446 A  
HETATM   29  C   UNL     1     -12.153   8.870  71.958  1.00  0.00    -0.371 A  
HETATM   30  F   UNL     1     -12.849   9.012  73.093  1.00  0.00    -0.321 F  
HETATM   31  C   UNL     1     -11.437   7.686  71.738  1.00  0.00    -0.302 A  
HETATM   32  C   UNL     1     -10.701   7.511  70.561  1.00  0.00    -0.244 A  
ENDBRANCH  17  20
ENDBRANCH   9  12
ENDBRANCH   7   8
ENDBRANCH   6   7
ENDBRANCH   3   6
ENDBRANCH   2   3
TORSDOF 7
ENDMDL
MODEL       29
REMARK 921   NORMALIZED FREE ENERGY PREDICTED BY IDOCK:   -6.00 KCAL/MOL
REMARK 922        TOTAL FREE ENERGY PREDICTED BY IDOCK:   -9.55 KCAL/MOL
REMARK 923 INTER-LIGAND FREE ENERGY PREDICTED BY IDOCK:   -8.55 KCAL/MOL
REMARK 924 INTRA-LIGAND FREE ENERGY PREDICTED BY IDOCK:   -1.00 KCAL/MOL
REMARK 927      BINDING AFFINITY PREDICTED BY RF-SCORE:    0.00 PKD
ROOT
HETATM    1  C   UNL     1     -12.545  16.140  73.794  1.00  0.00    -0.698 C  
HETATM    2  C   UNL     1     -11.858  15.988  72.440  1.00  0.00    -0.535 C  
ENDROOT
BRANCH   2   3
HETATM    3  N   UNL     1     -12.530  15.074  71.502  1.00  0.00    -0.310 NA 
BRANCH   3   4
HETATM    4  C   UNL     1     -13.914  14.734  71.890  1.00  0.00    -0.482 C  
HETATM    5  C   UNL     1     -14.154  13.308  72.389  1.00  0.00    -0.460 C  
ENDBRANCH   3   4
BRANCH   3   6
HETATM    6  C   UNL     1     -12.491  15.596  70.114  1.00  0.00    -0.278 C  
BRANCH   6   7
HETATM    7  C   UNL     1     -11.228  15.252  69.303  1.00  0.00    -0.284 C  
BRANCH   7   8
HETATM    8  N   UNL     1     -10.791  13.892  69.515  1.00  0.00    -0.447 N  
HETATM    9  C   UNL     1     -11.248  12.869  68.722  1.00  0.00    -0.279 C  
HETATM   10  H   UNL     1     -10.132  13.687  70.267  1.00  0.00     0.000 HD 
HETATM   11  O   UNL     1     -12.027  13.062  67.792  1.00  0.00    -0.348 OA 
BRANCH   9  12
HETATM   12  C   UNL     1     -10.717  11.539  69.033  1.00  0.00    -0.233 A  
HETATM   13  C   UNL     1      -9.594  10.904  68.510  1.00  0.00    -0.187 A  
HETATM   14  C   UNL     1      -8.560  11.316  67.521  1.00  0.00    -0.134 C  
HETATM   15  N   UNL     1      -9.477   9.679  69.132  1.00  0.00    -0.163 NA 
HETATM   16  H   UNL     1      -8.756   8.989  68.921  1.00  0.00     0.000 HD 
HETATM   17  C   UNL     1     -10.458   9.512  70.071  1.00  0.00    -0.247 A  
HETATM   18  C   UNL     1     -11.251  10.651  70.038  1.00  0.00    -0.382 A  
HETATM   19  C   UNL     1     -12.451  10.940  70.885  1.00  0.00    -0.507 C  
BRANCH  17  20
HETATM   20  C   UNL     1     -10.559   8.358  70.890  1.00  0.00    -0.243 C  
HETATM   21  C   UNL     1      -9.686   7.823  71.754  1.00  0.00    -0.206 C  
HETATM   22  C   UNL     1      -8.295   8.230  72.165  1.00  0.00    -0.174 C  
HETATM   23  N   UNL     1      -7.897   7.275  73.094  1.00  0.00    -0.095 N  
HETATM   24  O   UNL     1      -7.647   9.181  71.776  1.00  0.00    -0.339 OA 
HETATM   25  C   UNL     1      -8.888   6.321  73.304  1.00  0.00    -0.125 A  
HETATM   26  H   UNL     1      -6.991   7.273  73.563  1.00  0.00     0.000 HD 
HETATM   27  C   UNL     1     -10.007   6.603  72.516  1.00  0.00    -0.184 A  
HETATM   28  C   UNL     1     -11.125   5.788  72.564  1.00  0.00    -0.327 A  
HETATM   29  C   UNL     1     -11.086   4.687  73.414  1.00  0.00    -0.337 A  
HETATM   30  F   UNL     1     -12.151   3.878  73.479  1.00  0.00    -0.226 F  
HETATM   31  C   UNL     1      -9.962   4.403  74.200  1.00  0.00    -0.200 A  
HETATM   32  C   UNL     1      -8.837   5.231  74.153  1.00  0.00    -0.119 A  
ENDBRANCH  17  20
ENDBRANCH   9  12
ENDBRANCH   7   8
ENDBRANCH   6   7
ENDBRANCH   3   6
ENDBRANCH   2   3
TORSDOF 7
ENDMDL
MODEL       30
REMARK 921   NORMALIZED FREE ENERGY PREDICTED BY IDOCK:   -6.00 KCAL/MOL
REMARK 922        TOTAL FREE ENERGY PREDICTED BY IDOCK:   -9.54 KCAL/MOL
REMARK 923 INTER-LIGAND FREE ENERGY PREDICTED BY IDOCK:   -8.57 KCAL/MOL
REMARK 924 INTRA-LIGAND FREE ENERGY PREDICTED BY IDOCK:   -0.98 KCAL/MOL
REMARK 927      BINDING AFFINITY PREDICTED BY RF-SCORE:    0.00 PKD
ROOT
HETATM    1  C   UNL     1     -11.202   6.333  69.690  1.00  0.00    -0.506 C  
HETATM    2  C   UNL     1     -10.548   6.229  68.316  1.00  0.00    -0.258 C  
ENDROOT
BRANCH   2   3
HETATM    3  N   UNL     1      -9.201   6.817  68.224  1.00  0.00    -0.124 NA 
BRANCH   3   4
HETATM    4  C   UNL     1      -8.296   6.092  67.309  1.00  0.00    -0.105 C  
HETATM    5  C   UNL     1      -8.923   5.523  66.035  1.00  0.00    -0.154 C  
ENDBRANCH   3   4
BRANCH   3   6
HETATM    6  C   UNL     1      -9.259   8.256  67.868  1.00  0.00    -0.132 C  
BRANCH   6   7
HETATM    7  C   UNL     1     -10.489   8.696  67.053  1.00  0.00    -0.284 C  
BRANCH   7   8
HETATM    8  N   UNL     1     -10.321  10.007  66.469  1.00  0.00    -0.221 N  
HETATM    9  C   UNL     1     -11.073  11.074  66.896  1.00  0.00    -0.213 C  
HETATM   10  H   UNL     1      -9.634  10.143  65.727  1.00  0.00     0.000 HD 
HETATM   11  O   UNL     1     -11.901  10.970  67.798  1.00  0.00    -0.605 OA 
BRANCH   9  12
HETATM   12  C   UNL     1     -10.796  12.351  66.232  1.00  0.00    -0.299 A  
HETATM   13  C   UNL     1     -11.319  12.846  65.042  1.00  0.00    -0.305 A  
HETATM   14  C   UNL     1     -12.311  12.314  64.067  1.00  0.00    -0.569 C  
HETATM   15  N   UNL     1     -10.788  14.102  64.840  1.00  0.00    -0.389 NA 
HETATM   16  H   UNL     1     -10.978  14.687  64.026  1.00  0.00     0.000 HD 
HETATM   17  C   UNL     1      -9.971  14.460  65.878  1.00  0.00    -0.328 A  
HETATM   18  C   UNL     1      -9.951  13.392  66.766  1.00  0.00    -0.264 A  
HETATM   19  C   UNL     1      -9.200  13.308  68.058  1.00  0.00    -0.217 C  
BRANCH  17  20
HETATM   20  C   UNL     1      -9.318  15.717  65.954  1.00  0.00    -0.356 C  
HETATM   21  C   UNL     1      -9.535  16.765  66.759  1.00  0.00    -0.261 C  
HETATM   22  C   UNL     1     -10.539  17.003  67.858  1.00  0.00    -0.365 C  
HETATM   23  N   UNL     1     -10.272  18.286  68.322  1.00  0.00    -0.376 N  
HETATM   24  O   UNL     1     -11.402  16.249  68.260  1.00  0.00    -0.352 OA 
HETATM   25  C   UNL     1      -9.213  18.870  67.633  1.00  0.00    -0.286 A  
HETATM   26  H   UNL     1     -10.787  18.743  69.074  1.00  0.00     0.000 HD 
HETATM   27  C   UNL     1      -8.718  17.989  66.667  1.00  0.00    -0.276 A  
HETATM   28  C   UNL     1      -7.655  18.354  65.859  1.00  0.00    -0.167 A  
HETATM   29  C   UNL     1      -7.110  19.621  66.042  1.00  0.00    -0.281 A  
HETATM   30  F   UNL     1      -6.082  20.004  65.274  1.00  0.00    -0.191 F  
HETATM   31  C   UNL     1      -7.609  20.505  67.008  1.00  0.00    -0.350 A  
HETATM   32  C   UNL     1      -8.680  20.131  67.825  1.00  0.00    -0.332 A  
ENDBRANCH  17  20
ENDBRANCH   9  12
ENDBRANCH   7   8
ENDBRANCH   6   7
ENDBRANCH   3   6
ENDBRANCH   2   3
TORSDOF 7
ENDMDL
MODEL       31
REMARK 921   NORMALIZED FREE ENERGY PREDICTED BY IDOCK:   -5.98 KCAL/MOL
REMARK 922        TOTAL FREE ENERGY PREDICTED BY IDOCK:   -9.52 KCAL/MOL
REMARK 923 INTER-LIGAND FREE ENERGY PREDICTED BY IDOCK:   -8.46 KCAL/MOL
REMARK 924 INTRA-LIGAND FREE ENERGY PREDICTED BY IDOCK:   -1.06 KCAL/MOL
REMARK 927      BINDING AFFINITY PREDICTED BY RF-SCORE:    0.00 PKD
ROOT
HETATM    1  C   UNL     1     -12.388  15.608  74.514  1.00  0.00    -0.776 C  
HETATM    2  C   UNL     1     -13.220  15.842  73.256  1.00  0.00    -0.581 C  
ENDROOT
BRANCH   2   3
HETATM    3  N   UNL     1     -13.024  14.846  72.188  1.00  0.00    -0.316 NA 
BRANCH   3   4
HETATM    4  C   UNL     1     -13.920  13.677  72.294  1.00  0.00    -0.563 C  
HETATM    5  C   UNL     1     -13.283  12.305  72.064  1.00  0.00    -0.508 C  
ENDBRANCH   3   4
BRANCH   3   6
HETATM    6  C   UNL     1     -13.130  15.465  70.844  1.00  0.00    -0.468 C  
BRANCH   6   7
HETATM    7  C   UNL     1     -11.818  15.560  70.044  1.00  0.00    -0.359 C  
BRANCH   7   8
HETATM    8  N   UNL     1     -11.708  14.525  69.042  1.00  0.00    -0.294 N  
HETATM    9  C   UNL     1     -11.110  14.772  67.831  1.00  0.00    -0.293 C  
HETATM   10  H   UNL     1     -12.081  13.596  69.237  1.00  0.00     0.000 HD 
HETATM   11  O   UNL     1     -10.628  15.868  67.552  1.00  0.00    -0.302 OA 
BRANCH   9  12
HETATM   12  C   UNL     1     -11.051  13.635  66.909  1.00  0.00    -0.314 A  
HETATM   13  C   UNL     1     -11.874  13.349  65.824  1.00  0.00    -0.377 A  
HETATM   14  C   UNL     1     -13.034  14.054  65.212  1.00  0.00    -0.315 C  
HETATM   15  N   UNL     1     -11.409  12.190  65.239  1.00  0.00    -0.333 NA 
HETATM   16  H   UNL     1     -11.842  11.732  64.436  1.00  0.00     0.000 HD 
HETATM   17  C   UNL     1     -10.288  11.735  65.878  1.00  0.00    -0.241 A  
HETATM   18  C   UNL     1     -10.034  12.611  66.926  1.00  0.00    -0.232 A  
HETATM   19  C   UNL     1      -8.911  12.535  67.913  1.00  0.00    -0.185 C  
BRANCH  17  20
HETATM   20  C   UNL     1      -9.575  10.580  65.466  1.00  0.00    -0.282 C  
HETATM   21  C   UNL     1      -9.555   9.341  65.975  1.00  0.00    -0.338 C  
HETATM   22  C   UNL     1     -10.258   8.723  67.157  1.00  0.00    -0.276 C  
HETATM   23  N   UNL     1      -9.829   7.401  67.183  1.00  0.00    -0.177 N  
HETATM   24  O   UNL     1     -11.031   9.253  67.929  1.00  0.00    -0.168 OA 
HETATM   25  C   UNL     1      -8.939   7.130  66.148  1.00  0.00    -0.140 A  
HETATM   26  H   UNL     1     -10.130   6.714  67.875  1.00  0.00     0.000 HD 
HETATM   27  C   UNL     1      -8.733   8.275  65.373  1.00  0.00    -0.147 A  
HETATM   28  C   UNL     1      -7.885   8.243  64.279  1.00  0.00    -0.144 A  
HETATM   29  C   UNL     1      -7.250   7.039  63.990  1.00  0.00    -0.069 A  
HETATM   30  F   UNL     1      -6.421   6.977  62.940  1.00  0.00    -0.044 F  
HETATM   31  C   UNL     1      -7.453   5.892  64.770  1.00  0.00    -0.078 A  
HETATM   32  C   UNL     1      -8.314   5.929  65.871  1.00  0.00    -0.136 A  
ENDBRANCH  17  20
ENDBRANCH   9  12
ENDBRANCH   7   8
ENDBRANCH   6   7
ENDBRANCH   3   6
ENDBRANCH   2   3
TORSDOF 7
ENDMDL
MODEL       32
REMARK 921   NORMALIZED FREE ENERGY PREDICTED BY IDOCK:   -5.96 KCAL/MOL
REMARK 922        TOTAL FREE ENERGY PREDICTED BY IDOCK:   -9.48 KCAL/MOL
REMARK 923 INTER-LIGAND FREE ENERGY PREDICTED BY IDOCK:   -8.55 KCAL/MOL
REMARK 924 INTRA-LIGAND FREE ENERGY PREDICTED BY IDOCK:   -0.93 KCAL/MOL
REMARK 927      BINDING AFFINITY PREDICTED BY RF-SCORE:    0.00 PKD
ROOT
HETATM    1  C   UNL     1      -8.966   7.376  74.113  1.00  0.00    -0.270 C  
HETATM    2  C   UNL     1     -10.362   6.782  73.946  1.00  0.00    -0.368 C  
ENDROOT
BRANCH   2   3
HETATM    3  N   UNL     1     -10.485   5.778  72.875  1.00  0.00    -0.202 NA 
BRANCH   3   4
HETATM    4  C   UNL     1     -10.395   4.384  73.353  1.00  0.00    -0.175 C  
HETATM    5  C   UNL     1      -9.041   3.690  73.187  1.00  0.00    -0.111 C  
ENDBRANCH   3   4
BRANCH   3   6
HETATM    6  C   UNL     1     -11.724   5.979  72.084  1.00  0.00    -0.279 C  
BRANCH   6   7
HETATM    7  C   UNL     1     -11.523   6.427  70.624  1.00  0.00    -0.362 C  
BRANCH   7   8
HETATM    8  N   UNL     1     -11.838   7.824  70.429  1.00  0.00    -0.484 N  
HETATM    9  C   UNL     1     -10.902   8.800  70.662  1.00  0.00    -0.232 C  
HETATM   10  H   UNL     1     -12.772   8.088  70.114  1.00  0.00     0.000 HD 
HETATM   11  O   UNL     1      -9.758   8.535  71.024  1.00  0.00    -0.171 OA 
BRANCH   9  12
HETATM   12  C   UNL     1     -11.344  10.175  70.413  1.00  0.00    -0.401 A  
HETATM   13  C   UNL     1     -12.352  10.895  71.048  1.00  0.00    -0.393 A  
HETATM   14  C   UNL     1     -13.285  10.573  72.163  1.00  0.00    -0.398 C  
HETATM   15  N   UNL     1     -12.377  12.158  70.495  1.00  0.00    -0.312 NA 
HETATM   16  H   UNL     1     -13.039  12.890  70.754  1.00  0.00     0.000 HD 
HETATM   17  C   UNL     1     -11.394  12.300  69.554  1.00  0.00    -0.187 A  
HETATM   18  C   UNL     1     -10.730  11.082  69.474  1.00  0.00    -0.231 A  
HETATM   19  C   UNL     1      -9.573  10.743  68.586  1.00  0.00    -0.187 C  
BRANCH  17  20
HETATM   20  C   UNL     1     -11.164  13.509  68.849  1.00  0.00    -0.316 C  
HETATM   21  C   UNL     1     -11.290  13.797  67.547  1.00  0.00    -0.334 C  
HETATM   22  C   UNL     1     -11.706  12.960  66.364  1.00  0.00    -0.395 C  
HETATM   23  N   UNL     1     -11.635  13.817  65.271  1.00  0.00    -0.313 N  
HETATM   24  O   UNL     1     -12.031  11.790  66.352  1.00  0.00    -0.515 OA 
HETATM   25  C   UNL     1     -11.223  15.092  65.646  1.00  0.00    -0.296 A  
HETATM   26  H   UNL     1     -11.859  13.545  64.314  1.00  0.00     0.000 HD 
HETATM   27  C   UNL     1     -10.999  15.144  67.025  1.00  0.00    -0.322 A  
HETATM   28  C   UNL     1     -10.585  16.320  67.627  1.00  0.00    -0.311 A  
HETATM   29  C   UNL     1     -10.398  17.432  66.813  1.00  0.00    -0.305 A  
HETATM   30  F   UNL     1      -9.994  18.583  67.366  1.00  0.00    -0.294 F  
HETATM   31  C   UNL     1     -10.618  17.378  65.430  1.00  0.00    -0.043 A  
HETATM   32  C   UNL     1     -11.041  16.190  64.826  1.00  0.00    -0.345 A  
ENDBRANCH  17  20
ENDBRANCH   9  12
ENDBRANCH   7   8
ENDBRANCH   6   7
ENDBRANCH   3   6
ENDBRANCH   2   3
TORSDOF 7
ENDMDL
MODEL       33
REMARK 921   NORMALIZED FREE ENERGY PREDICTED BY IDOCK:   -5.94 KCAL/MOL
REMARK 922        TOTAL FREE ENERGY PREDICTED BY IDOCK:   -9.46 KCAL/MOL
REMARK 923 INTER-LIGAND FREE ENERGY PREDICTED BY IDOCK:   -8.26 KCAL/MOL
REMARK 924 INTRA-LIGAND FREE ENERGY PREDICTED BY IDOCK:   -1.20 KCAL/MOL
REMARK 927      BINDING AFFINITY PREDICTED BY RF-SCORE:    0.00 PKD
ROOT
HETATM    1  C   UNL     1     -10.667  19.518  65.696  1.00  0.00    -0.420 C  
HETATM    2  C   UNL     1      -9.571  20.125  66.566  1.00  0.00    -0.404 C  
ENDROOT
BRANCH   2   3
HETATM    3  N   UNL     1      -8.272  19.435  66.501  1.00  0.00    -0.298 NA 
BRANCH   3   4
HETATM    4  C   UNL     1      -7.225  20.202  65.797  1.00  0.00    -0.282 C  
HETATM    5  C   UNL     1      -6.233  20.969  66.672  1.00  0.00    -0.348 C  
ENDBRANCH   3   4
BRANCH   3   6
HETATM    6  C   UNL     1      -7.805  19.030  67.849  1.00  0.00    -0.271 C  
BRANCH   6   7
HETATM    7  C   UNL     1      -8.660  17.970  68.567  1.00  0.00    -0.297 C  
BRANCH   7   8
HETATM    8  N   UNL     1      -8.854  16.785  67.764  1.00  0.00    -0.206 N  
HETATM    9  C   UNL     1     -10.106  16.257  67.571  1.00  0.00    -0.258 C  
HETATM   10  H   UNL     1      -8.047  16.331  67.335  1.00  0.00     0.000 HD 
HETATM   11  O   UNL     1     -11.113  16.773  68.051  1.00  0.00    -0.336 OA 
BRANCH   9  12
HETATM   12  C   UNL     1     -10.167  15.061  66.726  1.00  0.00    -0.260 A  
HETATM   13  C   UNL     1     -10.656  14.934  65.430  1.00  0.00    -0.373 A  
HETATM   14  C   UNL     1     -11.240  15.903  64.463  1.00  0.00    -0.324 C  
HETATM   15  N   UNL     1     -10.472  13.624  65.038  1.00  0.00    -0.370 NA 
HETATM   16  H   UNL     1     -10.765  13.242  64.139  1.00  0.00     0.000 HD 
HETATM   17  C   UNL     1      -9.842  12.906  66.018  1.00  0.00    -0.255 A  
HETATM   18  C   UNL     1      -9.637  13.768  67.087  1.00  0.00    -0.244 A  
HETATM   19  C   UNL     1      -8.979  13.445  68.392  1.00  0.00    -0.136 C  
BRANCH  17  20
HETATM   20  C   UNL     1      -9.492  11.538  65.872  1.00  0.00    -0.251 C  
HETATM   21  C   UNL     1      -9.971  10.446  66.482  1.00  0.00    -0.271 C  
HETATM   22  C   UNL     1     -11.033  10.263  67.537  1.00  0.00    -0.280 C  
HETATM   23  N   UNL     1     -11.077   8.893  67.772  1.00  0.00    -0.445 N  
HETATM   24  O   UNL     1     -11.708  11.117  68.076  1.00  0.00    -0.517 OA 
HETATM   25  C   UNL     1     -10.162   8.207  66.980  1.00  0.00    -0.308 A  
HETATM   26  H   UNL     1     -11.703   8.447  68.442  1.00  0.00     0.000 HD 
HETATM   27  C   UNL     1      -9.458   9.101  66.168  1.00  0.00    -0.309 A  
HETATM   28  C   UNL     1      -8.493   8.642  65.287  1.00  0.00    -0.196 A  
HETATM   29  C   UNL     1      -8.252   7.273  65.249  1.00  0.00    -0.125 A  
HETATM   30  F   UNL     1      -7.322   6.799  64.410  1.00  0.00    -0.065 F  
HETATM   31  C   UNL     1      -8.955   6.378  66.067  1.00  0.00    -0.143 A  
HETATM   32  C   UNL     1      -9.932   6.845  66.952  1.00  0.00    -0.264 A  
ENDBRANCH  17  20
ENDBRANCH   9  12
ENDBRANCH   7   8
ENDBRANCH   6   7
ENDBRANCH   3   6
ENDBRANCH   2   3
TORSDOF 7
ENDMDL
MODEL       34
REMARK 921   NORMALIZED FREE ENERGY PREDICTED BY IDOCK:   -5.94 KCAL/MOL
REMARK 922        TOTAL FREE ENERGY PREDICTED BY IDOCK:   -9.45 KCAL/MOL
REMARK 923 INTER-LIGAND FREE ENERGY PREDICTED BY IDOCK:   -8.55 KCAL/MOL
REMARK 924 INTRA-LIGAND FREE ENERGY PREDICTED BY IDOCK:   -0.90 KCAL/MOL
REMARK 927      BINDING AFFINITY PREDICTED BY RF-SCORE:    0.00 PKD
ROOT
HETATM    1  C   UNL     1     -10.767  18.570  67.502  1.00  0.00    -0.419 C  
HETATM    2  C   UNL     1     -10.205  17.416  66.677  1.00  0.00    -0.324 C  
ENDROOT
BRANCH   2   3
HETATM    3  N   UNL     1     -10.417  16.078  67.255  1.00  0.00    -0.304 NA 
BRANCH   3   4
HETATM    4  C   UNL     1     -11.156  16.092  68.534  1.00  0.00    -0.357 C  
HETATM    5  C   UNL     1     -10.511  15.350  69.705  1.00  0.00    -0.286 C  
ENDBRANCH   3   4
BRANCH   3   6
HETATM    6  C   UNL     1     -11.070  15.166  66.285  1.00  0.00    -0.309 C  
BRANCH   6   7
HETATM    7  C   UNL     1     -10.283  13.892  65.927  1.00  0.00    -0.315 C  
BRANCH   7   8
HETATM    8  N   UNL     1     -10.276  12.929  67.004  1.00  0.00    -0.241 N  
HETATM    9  C   UNL     1     -11.300  12.028  67.155  1.00  0.00    -0.333 C  
HETATM   10  H   UNL     1      -9.498  12.919  67.664  1.00  0.00     0.000 HD 
HETATM   11  O   UNL     1     -12.252  11.985  66.379  1.00  0.00    -0.551 OA 
BRANCH   9  12
HETATM   12  C   UNL     1     -11.166  11.097  68.279  1.00  0.00    -0.343 A  
HETATM   13  C   UNL     1     -11.518  11.283  69.612  1.00  0.00    -0.309 A  
HETATM   14  C   UNL     1     -12.146  12.414  70.351  1.00  0.00    -0.381 C  
HETATM   15  N   UNL     1     -11.234  10.115  70.289  1.00  0.00    -0.296 NA 
HETATM   16  H   UNL     1     -11.367   9.980  71.291  1.00  0.00     0.000 HD 
HETATM   17  C   UNL     1     -10.750   9.162  69.435  1.00  0.00    -0.198 A  
HETATM   18  C   UNL     1     -10.692   9.738  68.173  1.00  0.00    -0.280 A  
HETATM   19  C   UNL     1     -10.231   9.088  66.906  1.00  0.00    -0.339 C  
BRANCH  17  20
HETATM   20  C   UNL     1     -10.409   7.849  69.852  1.00  0.00    -0.224 C  
HETATM   21  C   UNL     1     -10.832   7.130  70.900  1.00  0.00    -0.266 C  
HETATM   22  C   UNL     1     -11.801   7.440  72.012  1.00  0.00    -0.298 C  
HETATM   23  N   UNL     1     -11.821   6.297  72.804  1.00  0.00    -0.504 N  
HETATM   24  O   UNL     1     -12.432   8.462  72.192  1.00  0.00    -0.335 OA 
HETATM   25  C   UNL     1     -10.973   5.313  72.306  1.00  0.00    -0.185 A  
HETATM   26  H   UNL     1     -12.388   6.193  73.646  1.00  0.00     0.000 HD 
HETATM   27  C   UNL     1     -10.342   5.761  71.142  1.00  0.00    -0.286 A  
HETATM   28  C   UNL     1      -9.452   4.945  70.465  1.00  0.00    -0.232 A  
HETATM   29  C   UNL     1      -9.210   3.678  70.988  1.00  0.00    -0.126 A  
HETATM   30  F   UNL     1      -8.352   2.867  70.357  1.00  0.00    -0.055 F  
HETATM   31  C   UNL     1      -9.840   3.232  72.158  1.00  0.00    -0.237 A  
HETATM   32  C   UNL     1     -10.741   4.058  72.836  1.00  0.00    -0.217 A  
ENDBRANCH  17  20
ENDBRANCH   9  12
ENDBRANCH   7   8
ENDBRANCH   6   7
ENDBRANCH   3   6
ENDBRANCH   2   3
TORSDOF 7
ENDMDL
MODEL       35
REMARK 921   NORMALIZED FREE ENERGY PREDICTED BY IDOCK:   -5.91 KCAL/MOL
REMARK 922        TOTAL FREE ENERGY PREDICTED BY IDOCK:   -9.42 KCAL/MOL
REMARK 923 INTER-LIGAND FREE ENERGY PREDICTED BY IDOCK:   -8.46 KCAL/MOL
REMARK 924 INTRA-LIGAND FREE ENERGY PREDICTED BY IDOCK:   -0.96 KCAL/MOL
REMARK 927      BINDING AFFINITY PREDICTED BY RF-SCORE:    0.00 PKD
ROOT
HETATM    1  C   UNL     1     -11.201   6.161  70.352  1.00  0.00    -0.423 C  
HETATM    2  C   UNL     1     -11.183   7.249  71.422  1.00  0.00    -0.248 C  
ENDROOT
BRANCH   2   3
HETATM    3  N   UNL     1     -11.949   8.462  71.087  1.00  0.00    -0.289 NA 
BRANCH   3   4
HETATM    4  C   UNL     1     -13.144   8.663  71.931  1.00  0.00    -0.373 C  
HETATM    5  C   UNL     1     -14.385   7.847  71.566  1.00  0.00    -0.563 C  
ENDBRANCH   3   4
BRANCH   3   6
HETATM    6  C   UNL     1     -11.088   9.669  71.104  1.00  0.00    -0.374 C  
BRANCH   6   7
HETATM    7  C   UNL     1     -11.731  10.960  70.564  1.00  0.00    -0.342 C  
BRANCH   7   8
HETATM    8  N   UNL     1     -10.808  11.747  69.779  1.00  0.00    -0.438 N  
HETATM    9  C   UNL     1     -11.027  11.969  68.442  1.00  0.00    -0.237 C  
HETATM   10  H   UNL     1      -9.981  12.144  70.224  1.00  0.00     0.000 HD 
HETATM   11  O   UNL     1     -12.017  11.530  67.860  1.00  0.00    -0.618 OA 
BRANCH   9  12
HETATM   12  C   UNL     1     -10.024  12.794  67.763  1.00  0.00    -0.219 A  
HETATM   13  C   UNL     1      -9.034  12.402  66.868  1.00  0.00    -0.212 A  
HETATM   14  C   UNL     1      -8.656  11.087  66.279  1.00  0.00    -0.167 C  
HETATM   15  N   UNL     1      -8.355  13.534  66.470  1.00  0.00    -0.302 NA 
HETATM   16  H   UNL     1      -7.556  13.537  65.835  1.00  0.00     0.000 HD 
HETATM   17  C   UNL     1      -8.896  14.654  67.041  1.00  0.00    -0.241 A  
HETATM   18  C   UNL     1      -9.939  14.232  67.855  1.00  0.00    -0.230 A  
HETATM   19  C   UNL     1     -10.838  15.092  68.688  1.00  0.00    -0.249 C  
BRANCH  17  20
HETATM   20  C   UNL     1      -8.419  15.965  66.780  1.00  0.00    -0.297 C  
HETATM   21  C   UNL     1      -7.737  16.815  67.558  1.00  0.00    -0.188 C  
HETATM   22  C   UNL     1      -7.238  16.707  68.976  1.00  0.00    -0.222 C  
HETATM   23  N   UNL     1      -6.604  17.918  69.231  1.00  0.00    -0.252 N  
HETATM   24  O   UNL     1      -7.358  15.773  69.743  1.00  0.00    -0.160 OA 
HETATM   25  C   UNL     1      -6.655  18.765  68.127  1.00  0.00    -0.222 A  
HETATM   26  H   UNL     1      -6.158  18.157  70.116  1.00  0.00     0.000 HD 
HETATM   27  C   UNL     1      -7.332  18.147  67.072  1.00  0.00    -0.226 A  
HETATM   28  C   UNL     1      -7.501  18.801  65.864  1.00  0.00    -0.233 A  
HETATM   29  C   UNL     1      -6.982  20.087  65.748  1.00  0.00    -0.294 A  
HETATM   30  F   UNL     1      -7.133  20.747  64.592  1.00  0.00    -0.277 F  
HETATM   31  C   UNL     1      -6.307  20.708  66.807  1.00  0.00    -0.293 A  
HETATM   32  C   UNL     1      -6.134  20.041  68.024  1.00  0.00    -0.269 A  
ENDBRANCH  17  20
ENDBRANCH   9  12
ENDBRANCH   7   8
ENDBRANCH   6   7
ENDBRANCH   3   6
ENDBRANCH   2   3
TORSDOF 7
ENDMDL
MODEL       36
REMARK 921   NORMALIZED FREE ENERGY PREDICTED BY IDOCK:   -5.91 KCAL/MOL
REMARK 922        TOTAL FREE ENERGY PREDICTED BY IDOCK:   -9.42 KCAL/MOL
REMARK 923 INTER-LIGAND FREE ENERGY PREDICTED BY IDOCK:   -8.29 KCAL/MOL
REMARK 924 INTRA-LIGAND FREE ENERGY PREDICTED BY IDOCK:   -1.12 KCAL/MOL
REMARK 927      BINDING AFFINITY PREDICTED BY RF-SCORE:    0.00 PKD
ROOT
HETATM    1  C   UNL     1     -12.412  15.759  74.520  1.00  0.00    -0.755 C  
HETATM    2  C   UNL     1     -12.018  16.026  73.071  1.00  0.00    -0.492 C  
ENDROOT
BRANCH   2   3
HETATM    3  N   UNL     1     -12.463  15.005  72.107  1.00  0.00    -0.328 NA 
BRANCH   3   4
HETATM    4  C   UNL     1     -13.607  14.200  72.580  1.00  0.00    -0.541 C  
HETATM    5  C   UNL     1     -13.603  12.717  72.204  1.00  0.00    -0.547 C  
ENDBRANCH   3   4
BRANCH   3   6
HETATM    6  C   UNL     1     -12.757  15.602  70.782  1.00  0.00    -0.431 C  
BRANCH   6   7
HETATM    7  C   UNL     1     -11.569  15.684  69.805  1.00  0.00    -0.352 C  
BRANCH   7   8
HETATM    8  N   UNL     1     -10.911  14.410  69.630  1.00  0.00    -0.425 N  
HETATM    9  C   UNL     1     -11.216  13.595  68.569  1.00  0.00    -0.280 C  
HETATM   10  H   UNL     1     -10.208  14.112  70.306  1.00  0.00     0.000 HD 
HETATM   11  O   UNL     1     -12.041  13.914  67.716  1.00  0.00    -0.371 OA 
BRANCH   9  12
HETATM   12  C   UNL     1     -10.467  12.337  68.500  1.00  0.00    -0.248 A  
HETATM   13  C   UNL     1      -9.189  12.110  68.000  1.00  0.00    -0.194 A  
HETATM   14  C   UNL     1      -8.154  13.002  67.409  1.00  0.00    -0.180 C  
HETATM   15  N   UNL     1      -8.899  10.774  68.180  1.00  0.00    -0.129 NA 
HETATM   16  H   UNL     1      -8.034  10.323  67.879  1.00  0.00     0.000 HD 
HETATM   17  C   UNL     1      -9.926  10.132  68.817  1.00  0.00    -0.179 A  
HETATM   18  C   UNL     1     -10.923  11.075  69.032  1.00  0.00    -0.284 A  
HETATM   19  C   UNL     1     -12.244  10.854  69.701  1.00  0.00    -0.354 C  
BRANCH  17  20
HETATM   20  C   UNL     1      -9.884   8.758  69.165  1.00  0.00    -0.181 C  
HETATM   21  C   UNL     1      -9.753   7.668  68.397  1.00  0.00    -0.164 C  
HETATM   22  C   UNL     1      -9.612   7.495  66.907  1.00  0.00    -0.187 C  
HETATM   23  N   UNL     1      -9.521   6.121  66.709  1.00  0.00    -0.141 N  
HETATM   24  O   UNL     1      -9.586   8.357  66.052  1.00  0.00    -0.207 OA 
HETATM   25  C   UNL     1      -9.589   5.424  67.912  1.00  0.00    -0.129 A  
HETATM   26  H   UNL     1      -9.417   5.679  65.795  1.00  0.00     0.000 HD 
HETATM   27  C   UNL     1      -9.728   6.314  68.980  1.00  0.00    -0.147 A  
HETATM   28  C   UNL     1      -9.811   5.846  70.280  1.00  0.00    -0.234 A  
HETATM   29  C   UNL     1      -9.757   4.469  70.476  1.00  0.00    -0.220 A  
HETATM   30  F   UNL     1      -9.838   3.985  71.722  1.00  0.00    -0.206 F  
HETATM   31  C   UNL     1      -9.622   3.577  69.403  1.00  0.00    -0.171 A  
HETATM   32  C   UNL     1      -9.534   4.055  68.092  1.00  0.00    -0.215 A  
ENDBRANCH  17  20
ENDBRANCH   9  12
ENDBRANCH   7   8
ENDBRANCH   6   7
ENDBRANCH   3   6
ENDBRANCH   2   3
TORSDOF 7
ENDMDL
MODEL       37
REMARK 921   NORMALIZED FREE ENERGY PREDICTED BY IDOCK:   -5.89 KCAL/MOL
REMARK 922        TOTAL FREE ENERGY PREDICTED BY IDOCK:   -9.39 KCAL/MOL
REMARK 923 INTER-LIGAND FREE ENERGY PREDICTED BY IDOCK:   -8.18 KCAL/MOL
REMARK 924 INTRA-LIGAND FREE ENERGY PREDICTED BY IDOCK:   -1.21 KCAL/MOL
REMARK 927      BINDING AFFINITY PREDICTED BY RF-SCORE:    0.00 PKD
ROOT
HETATM    1  C   UNL     1     -12.432  15.647  74.485  1.00  0.00    -0.749 C  
HETATM    2  C   UNL     1     -13.179  15.874  73.175  1.00  0.00    -0.592 C  
ENDROOT
BRANCH   2   3
HETATM    3  N   UNL     1     -12.963  14.841  72.148  1.00  0.00    -0.319 NA 
BRANCH   3   4
HETATM    4  C   UNL     1     -13.944  13.739  72.196  1.00  0.00    -0.544 C  
HETATM    5  C   UNL     1     -13.378  12.318  72.180  1.00  0.00    -0.473 C  
ENDBRANCH   3   4
BRANCH   3   6
HETATM    6  C   UNL     1     -12.907  15.431  70.788  1.00  0.00    -0.466 C  
BRANCH   6   7
HETATM    7  C   UNL     1     -11.498  15.724  70.241  1.00  0.00    -0.359 C  
BRANCH   7   8
HETATM    8  N   UNL     1     -10.818  14.526  69.803  1.00  0.00    -0.427 N  
HETATM    9  C   UNL     1     -10.999  14.032  68.536  1.00  0.00    -0.256 C  
HETATM   10  H   UNL     1     -10.193  14.040  70.446  1.00  0.00     0.000 HD 
HETATM   11  O   UNL     1     -11.726  14.588  67.715  1.00  0.00    -0.349 OA 
BRANCH   9  12
HETATM   12  C   UNL     1     -10.241  12.820  68.213  1.00  0.00    -0.245 A  
HETATM   13  C   UNL     1      -8.930  12.706  67.762  1.00  0.00    -0.189 A  
HETATM   14  C   UNL     1      -7.861  13.703  67.478  1.00  0.00    -0.185 C  
HETATM   15  N   UNL     1      -8.647  11.363  67.630  1.00  0.00    -0.127 NA 
HETATM   16  H   UNL     1      -7.761  10.989  67.287  1.00  0.00     0.000 HD 
HETATM   17  C   UNL     1      -9.712  10.598  68.019  1.00  0.00    -0.157 A  
HETATM   18  C   UNL     1     -10.726  11.472  68.389  1.00  0.00    -0.241 A  
HETATM   19  C   UNL     1     -12.090  11.111  68.891  1.00  0.00    -0.276 C  
BRANCH  17  20
HETATM   20  C   UNL     1      -9.688   9.179  68.023  1.00  0.00    -0.177 C  
HETATM   21  C   UNL     1      -9.712   8.310  69.042  1.00  0.00    -0.167 C  
HETATM   22  C   UNL     1      -9.762   8.506  70.535  1.00  0.00    -0.177 C  
HETATM   23  N   UNL     1      -9.759   7.223  71.070  1.00  0.00    -0.169 N  
HETATM   24  O   UNL     1      -9.794   9.552  71.152  1.00  0.00    -0.251 OA 
HETATM   25  C   UNL     1      -9.714   6.253  70.073  1.00  0.00    -0.168 A  
HETATM   26  H   UNL     1      -9.786   7.017  72.069  1.00  0.00     0.000 HD 
HETATM   27  C   UNL     1      -9.687   6.854  68.812  1.00  0.00    -0.137 A  
HETATM   28  C   UNL     1      -9.645   6.082  67.664  1.00  0.00    -0.113 A  
HETATM   29  C   UNL     1      -9.626   4.699  67.816  1.00  0.00    -0.159 A  
HETATM   30  F   UNL     1      -9.583   3.925  66.724  1.00  0.00    -0.180 F  
HETATM   31  C   UNL     1      -9.649   4.096  69.081  1.00  0.00    -0.243 A  
HETATM   32  C   UNL     1      -9.695   4.880  70.238  1.00  0.00    -0.287 A  
ENDBRANCH  17  20
ENDBRANCH   9  12
ENDBRANCH   7   8
ENDBRANCH   6   7
ENDBRANCH   3   6
ENDBRANCH   2   3
TORSDOF 7
ENDMDL
MODEL       38
REMARK 921   NORMALIZED FREE ENERGY PREDICTED BY IDOCK:   -5.86 KCAL/MOL
REMARK 922        TOTAL FREE ENERGY PREDICTED BY IDOCK:   -9.35 KCAL/MOL
REMARK 923 INTER-LIGAND FREE ENERGY PREDICTED BY IDOCK:   -8.27 KCAL/MOL
REMARK 924 INTRA-LIGAND FREE ENERGY PREDICTED BY IDOCK:   -1.08 KCAL/MOL
REMARK 927      BINDING AFFINITY PREDICTED BY RF-SCORE:    0.00 PKD
ROOT
HETATM    1  C   UNL     1      -9.200   4.009  66.950  1.00  0.00    -0.182 C  
HETATM    2  C   UNL     1      -8.681   5.025  65.937  1.00  0.00    -0.131 C  
ENDROOT
BRANCH   2   3
HETATM    3  N   UNL     1      -9.069   6.421  66.203  1.00  0.00    -0.153 NA 
BRANCH   3   4
HETATM    4  C   UNL     1      -9.283   6.717  67.634  1.00  0.00    -0.110 C  
HETATM    5  C   UNL     1     -10.618   7.364  68.006  1.00  0.00    -0.235 C  
ENDBRANCH   3   4
BRANCH   3   6
HETATM    6  C   UNL     1      -8.101   7.375  65.611  1.00  0.00    -0.129 C  
BRANCH   6   7
HETATM    7  C   UNL     1      -8.680   8.376  64.595  1.00  0.00     0.064 C  
BRANCH   7   8
HETATM    8  N   UNL     1      -9.453   9.419  65.229  1.00  0.00    -0.396 N  
HETATM    9  C   UNL     1      -9.437  10.705  64.748  1.00  0.00    -0.256 C  
HETATM   10  H   UNL     1     -10.019   9.197  66.048  1.00  0.00     0.000 HD 
HETATM   11  O   UNL     1      -8.787  11.022  63.755  1.00  0.00    -0.117 OA 
BRANCH   9  12
HETATM   12  C   UNL     1     -10.275  11.664  65.474  1.00  0.00    -0.302 A  
HETATM   13  C   UNL     1     -11.446  12.288  65.056  1.00  0.00    -0.336 A  
HETATM   14  C   UNL     1     -12.255  12.206  63.809  1.00  0.00    -0.630 C  
HETATM   15  N   UNL     1     -11.893  13.079  66.094  1.00  0.00    -0.390 NA 
HETATM   16  H   UNL     1     -12.720  13.674  66.053  1.00  0.00     0.000 HD 
HETATM   17  C   UNL     1     -11.077  12.959  67.186  1.00  0.00    -0.275 A  
HETATM   18  C   UNL     1     -10.056  12.085  66.836  1.00  0.00    -0.224 A  
HETATM   19  C   UNL     1      -8.919  11.636  67.700  1.00  0.00    -0.166 C  
BRANCH  17  20
HETATM   20  C   UNL     1     -11.317  13.633  68.411  1.00  0.00    -0.329 C  
HETATM   21  C   UNL     1     -11.898  13.208  69.541  1.00  0.00    -0.383 C  
HETATM   22  C   UNL     1     -12.510  11.885  69.924  1.00  0.00     0.021 C  
HETATM   23  N   UNL     1     -12.956  12.057  71.230  1.00  0.00    -0.295 N  
HETATM   24  O   UNL     1     -12.605  10.880  69.249  1.00  0.00    -0.356 OA 
HETATM   25  C   UNL     1     -12.686  13.340  71.699  1.00  0.00    -0.230 A  
HETATM   26  H   UNL     1     -13.422  11.333  71.777  1.00  0.00     0.000 HD 
HETATM   27  C   UNL     1     -12.038  14.090  70.713  1.00  0.00    -0.417 A  
HETATM   28  C   UNL     1     -11.665  15.400  70.957  1.00  0.00    -0.408 A  
HETATM   29  C   UNL     1     -11.965  15.935  72.206  1.00  0.00    -0.518 A  
HETATM   30  F   UNL     1     -11.620  17.202  72.471  1.00  0.00    -0.456 F  
HETATM   31  C   UNL     1     -12.618  15.184  73.192  1.00  0.00    -0.585 A  
HETATM   32  C   UNL     1     -12.989  13.859  72.943  1.00  0.00    -0.349 A  
ENDBRANCH  17  20
ENDBRANCH   9  12
ENDBRANCH   7   8
ENDBRANCH   6   7
ENDBRANCH   3   6
ENDBRANCH   2   3
TORSDOF 7
ENDMDL
MODEL       39
REMARK 921   NORMALIZED FREE ENERGY PREDICTED BY IDOCK:   -5.85 KCAL/MOL
REMARK 922        TOTAL FREE ENERGY PREDICTED BY IDOCK:   -9.33 KCAL/MOL
REMARK 923 INTER-LIGAND FREE ENERGY PREDICTED BY IDOCK:   -8.63 KCAL/MOL
REMARK 924 INTRA-LIGAND FREE ENERGY PREDICTED BY IDOCK:   -0.70 KCAL/MOL
REMARK 927      BINDING AFFINITY PREDICTED BY RF-SCORE:    0.00 PKD
ROOT
HETATM    1  C   UNL     1     -10.146  20.120  67.468  1.00  0.00    -0.549 C  
HETATM    2  C   UNL     1      -9.814  19.594  66.075  1.00  0.00    -0.381 C  
ENDROOT
BRANCH   2   3
HETATM    3  N   UNL     1      -9.348  18.197  66.033  1.00  0.00    -0.519 NA 
BRANCH   3   4
HETATM    4  C   UNL     1      -8.261  17.904  66.988  1.00  0.00    -0.226 C  
HETATM    5  C   UNL     1      -6.946  17.397  66.394  1.00  0.00    -0.314 C  
ENDBRANCH   3   4
BRANCH   3   6
HETATM    6  C   UNL     1     -10.471  17.245  66.211  1.00  0.00    -0.268 C  
BRANCH   6   7
HETATM    7  C   UNL     1     -10.352  15.915  65.443  1.00  0.00    -0.372 C  
BRANCH   7   8
HETATM    8  N   UNL     1     -10.390  14.768  66.320  1.00  0.00    -0.287 N  
HETATM    9  C   UNL     1     -11.542  14.038  66.482  1.00  0.00    -0.374 C  
HETATM   10  H   UNL     1      -9.549  14.496  66.829  1.00  0.00     0.000 HD 
HETATM   11  O   UNL     1     -12.578  14.312  65.880  1.00  0.00    -0.450 OA 
BRANCH   9  12
HETATM   12  C   UNL     1     -11.444  12.891  67.389  1.00  0.00    -0.388 A  
HETATM   13  C   UNL     1     -11.783  12.814  68.736  1.00  0.00    -0.323 A  
HETATM   14  C   UNL     1     -12.359  13.794  69.699  1.00  0.00    -0.284 C  
HETATM   15  N   UNL     1     -11.548  11.521  69.155  1.00  0.00    -0.286 NA 
HETATM   16  H   UNL     1     -11.684  11.189  70.109  1.00  0.00     0.000 HD 
HETATM   17  C   UNL     1     -11.109  10.744  68.118  1.00  0.00    -0.280 A  
HETATM   18  C   UNL     1     -11.031  11.565  67.000  1.00  0.00    -0.347 A  
HETATM   19  C   UNL     1     -10.603  11.170  65.620  1.00  0.00    -0.286 C  
BRANCH  17  20
HETATM   20  C   UNL     1     -10.824   9.361  68.252  1.00  0.00    -0.163 C  
HETATM   21  C   UNL     1     -10.741   8.590  69.344  1.00  0.00    -0.166 C  
HETATM   22  C   UNL     1     -10.906   8.897  70.811  1.00  0.00    -0.241 C  
HETATM   23  N   UNL     1     -10.694   7.685  71.460  1.00  0.00    -0.220 N  
HETATM   24  O   UNL     1     -11.165   9.965  71.328  1.00  0.00    -0.361 OA 
HETATM   25  C   UNL     1     -10.418   6.662  70.559  1.00  0.00    -0.203 A  
HETATM   26  H   UNL     1     -10.737   7.562  72.472  1.00  0.00     0.000 HD 
HETATM   27  C   UNL     1     -10.435   7.151  69.250  1.00  0.00    -0.220 A  
HETATM   28  C   UNL     1     -10.190   6.308  68.179  1.00  0.00    -0.200 A  
HETATM   29  C   UNL     1      -9.923   4.971  68.458  1.00  0.00    -0.139 A  
HETATM   30  F   UNL     1      -9.679   4.132  67.444  1.00  0.00    -0.190 F  
HETATM   31  C   UNL     1      -9.902   4.482  69.771  1.00  0.00    -0.295 A  
HETATM   32  C   UNL     1     -10.154   5.337  70.849  1.00  0.00    -0.295 A  
ENDBRANCH  17  20
ENDBRANCH   9  12
ENDBRANCH   7   8
ENDBRANCH   6   7
ENDBRANCH   3   6
ENDBRANCH   2   3
TORSDOF 7
ENDMDL
MODEL       40
REMARK 921   NORMALIZED FREE ENERGY PREDICTED BY IDOCK:   -5.85 KCAL/MOL
REMARK 922        TOTAL FREE ENERGY PREDICTED BY IDOCK:   -9.32 KCAL/MOL
REMARK 923 INTER-LIGAND FREE ENERGY PREDICTED BY IDOCK:   -8.48 KCAL/MOL
REMARK 924 INTRA-LIGAND FREE ENERGY PREDICTED BY IDOCK:   -0.84 KCAL/MOL
REMARK 927      BINDING AFFINITY PREDICTED BY RF-SCORE:    0.00 PKD
ROOT
HETATM    1  C   UNL     1      -6.137  19.715  70.055  1.00  0.00    -0.329 C  
HETATM    2  C   UNL     1      -6.635  18.718  69.014  1.00  0.00    -0.283 C  
ENDROOT
BRANCH   2   3
HETATM    3  N   UNL     1      -8.061  18.842  68.666  1.00  0.00    -0.347 NA 
BRANCH   3   4
HETATM    4  C   UNL     1      -8.306  19.591  67.417  1.00  0.00    -0.294 C  
HETATM    5  C   UNL     1      -9.239  20.799  67.516  1.00  0.00    -0.325 C  
ENDBRANCH   3   4
BRANCH   3   6
HETATM    6  C   UNL     1      -8.725  17.517  68.619  1.00  0.00    -0.258 C  
BRANCH   6   7
HETATM    7  C   UNL     1      -9.993  17.432  67.749  1.00  0.00    -0.301 C  
BRANCH   7   8
HETATM    8  N   UNL     1     -10.521  16.089  67.677  1.00  0.00    -0.286 N  
HETATM    9  C   UNL     1     -10.184  15.250  66.644  1.00  0.00    -0.271 C  
HETATM   10  H   UNL     1     -11.156  15.759  68.404  1.00  0.00     0.000 HD 
HETATM   11  O   UNL     1      -9.410  15.591  65.752  1.00  0.00    -0.332 OA 
BRANCH   9  12
HETATM   12  C   UNL     1     -10.776  13.911  66.695  1.00  0.00    -0.281 A  
HETATM   13  C   UNL     1     -11.921  13.440  66.060  1.00  0.00    -0.415 A  
HETATM   14  C   UNL     1     -12.901  14.067  65.130  1.00  0.00    -0.368 C  
HETATM   15  N   UNL     1     -12.060  12.106  66.381  1.00  0.00    -0.587 NA 
HETATM   16  H   UNL     1     -12.832  11.514  66.074  1.00  0.00     0.000 HD 
HETATM   17  C   UNL     1     -11.024  11.682  67.167  1.00  0.00    -0.280 A  
HETATM   18  C   UNL     1     -10.203  12.781  67.384  1.00  0.00    -0.222 A  
HETATM   19  C   UNL     1      -8.937  12.816  68.183  1.00  0.00    -0.199 C  
BRANCH  17  20
HETATM   20  C   UNL     1     -10.889  10.343  67.617  1.00  0.00    -0.361 C  
HETATM   21  C   UNL     1     -10.298   9.286  67.046  1.00  0.00    -0.325 C  
HETATM   22  C   UNL     1      -9.577   9.121  65.733  1.00  0.00    -0.253 C  
HETATM   23  N   UNL     1      -9.191   7.786  65.696  1.00  0.00    -0.397 N  
HETATM   24  O   UNL     1      -9.372   9.961  64.880  1.00  0.00    -0.232 OA 
HETATM   25  C   UNL     1      -9.592   7.105  66.842  1.00  0.00    -0.168 A  
HETATM   26  H   UNL     1      -8.677   7.358  64.926  1.00  0.00     0.000 HD 
HETATM   27  C   UNL     1     -10.271   7.969  67.706  1.00  0.00    -0.282 A  
HETATM   28  C   UNL     1     -10.761   7.511  68.918  1.00  0.00    -0.135 A  
HETATM   29  C   UNL     1     -10.557   6.171  69.232  1.00  0.00    -0.285 A  
HETATM   30  F   UNL     1     -11.023   5.698  70.395  1.00  0.00    -0.344 F  
HETATM   31  C   UNL     1      -9.880   5.305  68.363  1.00  0.00    -0.208 A  
HETATM   32  C   UNL     1      -9.383   5.772  67.143  1.00  0.00    -0.116 A  
ENDBRANCH  17  20
ENDBRANCH   9  12
ENDBRANCH   7   8
ENDBRANCH   6   7
ENDBRANCH   3   6
ENDBRANCH   2   3
TORSDOF 7
ENDMDL
MODEL       41
REMARK 921   NORMALIZED FREE ENERGY PREDICTED BY IDOCK:   -5.83 KCAL/MOL
REMARK 922        TOTAL FREE ENERGY PREDICTED BY IDOCK:   -9.30 KCAL/MOL
REMARK 923 INTER-LIGAND FREE ENERGY PREDICTED BY IDOCK:   -8.31 KCAL/MOL
REMARK 924 INTRA-LIGAND FREE ENERGY PREDICTED BY IDOCK:   -1.00 KCAL/MOL
REMARK 927      BINDING AFFINITY PREDICTED BY RF-SCORE:    0.00 PKD
ROOT
HETATM    1  C   UNL     1     -12.861   8.339  71.856  1.00  0.00    -0.371 C  
HETATM    2  C   UNL     1     -11.369   8.371  72.174  1.00  0.00    -0.366 C  
ENDROOT
BRANCH   2   3
HETATM    3  N   UNL     1     -10.550   7.413  71.411  1.00  0.00    -0.215 NA 
BRANCH   3   4
HETATM    4  C   UNL     1     -10.857   6.000  71.708  1.00  0.00    -0.260 C  
HETATM    5  C   UNL     1     -10.641   4.999  70.571  1.00  0.00    -0.150 C  
ENDBRANCH   3   4
BRANCH   3   6
HETATM    6  C   UNL     1     -10.632   7.671  69.953  1.00  0.00    -0.235 C  
BRANCH   6   7
HETATM    7  C   UNL     1      -9.538   8.582  69.369  1.00  0.00    -0.170 C  
BRANCH   7   8
HETATM    8  N   UNL     1      -9.915   9.977  69.389  1.00  0.00    -0.210 N  
HETATM    9  C   UNL     1     -10.650  10.526  68.368  1.00  0.00    -0.199 C  
HETATM   10  H   UNL     1      -9.630  10.563  70.174  1.00  0.00     0.000 HD 
HETATM   11  O   UNL     1     -11.035   9.861  67.409  1.00  0.00    -0.269 OA 
BRANCH   9  12
HETATM   12  C   UNL     1     -10.979  11.947  68.516  1.00  0.00    -0.277 A  
HETATM   13  C   UNL     1     -11.742  12.567  69.500  1.00  0.00    -0.309 A  
HETATM   14  C   UNL     1     -12.448  12.063  70.710  1.00  0.00    -0.372 C  
HETATM   15  N   UNL     1     -11.742  13.922  69.239  1.00  0.00    -0.310 NA 
HETATM   16  H   UNL     1     -12.249  14.617  69.788  1.00  0.00     0.000 HD 
HETATM   17  C   UNL     1     -10.971  14.209  68.146  1.00  0.00    -0.249 A  
HETATM   18  C   UNL     1     -10.479  13.002  67.667  1.00  0.00    -0.228 A  
HETATM   19  C   UNL     1      -9.582  12.799  66.486  1.00  0.00    -0.257 C  
BRANCH  17  20
HETATM   20  C   UNL     1     -10.761  15.529  67.671  1.00  0.00    -0.302 C  
HETATM   21  C   UNL     1      -9.802  16.418  67.962  1.00  0.00    -0.238 C  
HETATM   22  C   UNL     1      -8.616  16.356  68.891  1.00  0.00    -0.250 C  
HETATM   23  N   UNL     1      -7.993  17.593  68.766  1.00  0.00    -0.274 N  
HETATM   24  O   UNL     1      -8.270  15.435  69.602  1.00  0.00    -0.235 OA 
HETATM   25  C   UNL     1      -8.661  18.414  67.862  1.00  0.00    -0.272 A  
HETATM   26  H   UNL     1      -7.151  17.865  69.274  1.00  0.00     0.000 HD 
HETATM   27  C   UNL     1      -9.772  17.752  67.335  1.00  0.00    -0.284 A  
HETATM   28  C   UNL     1     -10.589  18.375  66.406  1.00  0.00    -0.342 A  
HETATM   29  C   UNL     1     -10.263  19.674  66.029  1.00  0.00    -0.493 A  
HETATM   30  F   UNL     1     -11.036  20.305  65.135  1.00  0.00    -0.481 F  
HETATM   31  C   UNL     1      -9.151  20.339  66.562  1.00  0.00    -0.354 A  
HETATM   32  C   UNL     1      -8.327  19.704  67.496  1.00  0.00    -0.337 A  
ENDBRANCH  17  20
ENDBRANCH   9  12
ENDBRANCH   7   8
ENDBRANCH   6   7
ENDBRANCH   3   6
ENDBRANCH   2   3
TORSDOF 7
ENDMDL
MODEL       42
REMARK 921   NORMALIZED FREE ENERGY PREDICTED BY IDOCK:   -5.82 KCAL/MOL
REMARK 922        TOTAL FREE ENERGY PREDICTED BY IDOCK:   -9.29 KCAL/MOL
REMARK 923 INTER-LIGAND FREE ENERGY PREDICTED BY IDOCK:   -8.38 KCAL/MOL
REMARK 924 INTRA-LIGAND FREE ENERGY PREDICTED BY IDOCK:   -0.91 KCAL/MOL
REMARK 927      BINDING AFFINITY PREDICTED BY RF-SCORE:    0.00 PKD
ROOT
HETATM    1  C   UNL     1     -11.015  16.562  69.245  1.00  0.00    -0.302 C  
HETATM    2  C   UNL     1     -10.022  17.237  68.304  1.00  0.00    -0.313 C  
ENDROOT
BRANCH   2   3
HETATM    3  N   UNL     1     -10.623  17.889  67.128  1.00  0.00    -0.343 NA 
BRANCH   3   4
HETATM    4  C   UNL     1     -10.461  19.356  67.113  1.00  0.00    -0.466 C  
HETATM    5  C   UNL     1      -9.937  20.000  68.398  1.00  0.00    -0.481 C  
ENDBRANCH   3   4
BRANCH   3   6
HETATM    6  C   UNL     1     -10.125  17.295  65.864  1.00  0.00    -0.211 C  
BRANCH   6   7
HETATM    7  C   UNL     1     -11.001  16.187  65.250  1.00  0.00    -0.270 C  
BRANCH   7   8
HETATM    8  N   UNL     1     -10.673  14.878  65.766  1.00  0.00    -0.314 N  
HETATM    9  C   UNL     1     -11.597  13.863  65.760  1.00  0.00    -0.338 C  
HETATM   10  H   UNL     1      -9.740  14.705  66.140  1.00  0.00     0.000 HD 
HETATM   11  O   UNL     1     -12.728  14.012  65.304  1.00  0.00    -0.595 OA 
BRANCH   9  12
HETATM   12  C   UNL     1     -11.134  12.581  66.298  1.00  0.00    -0.336 A  
HETATM   13  C   UNL     1     -10.756  11.432  65.610  1.00  0.00    -0.242 A  
HETATM   14  C   UNL     1     -10.659  11.099  64.161  1.00  0.00    -0.436 C  
HETATM   15  N   UNL     1     -10.364  10.494  66.541  1.00  0.00    -0.240 NA 
HETATM   16  H   UNL     1     -10.062   9.546  66.317  1.00  0.00     0.000 HD 
HETATM   17  C   UNL     1     -10.433  11.006  67.808  1.00  0.00    -0.199 A  
HETATM   18  C   UNL     1     -10.910  12.306  67.697  1.00  0.00    -0.262 A  
HETATM   19  C   UNL     1     -11.154  13.275  68.810  1.00  0.00    -0.303 C  
BRANCH  17  20
HETATM   20  C   UNL     1     -10.053  10.273  68.962  1.00  0.00    -0.225 C  
HETATM   21  C   UNL     1     -10.785   9.831  69.994  1.00  0.00    -0.326 C  
HETATM   22  C   UNL     1     -12.253   9.951  70.315  1.00  0.00    -0.047 C  
HETATM   23  N   UNL     1     -12.413   9.293  71.529  1.00  0.00    -0.336 N  
HETATM   24  O   UNL     1     -13.118  10.502  69.666  1.00  0.00    -0.020 OA 
HETATM   25  C   UNL     1     -11.207   8.777  71.996  1.00  0.00    -0.373 A  
HETATM   26  H   UNL     1     -13.304   9.199  72.018  1.00  0.00     0.000 HD 
HETATM   27  C   UNL     1     -10.175   9.071  71.100  1.00  0.00    -0.363 A  
HETATM   28  C   UNL     1      -8.881   8.651  71.354  1.00  0.00    -0.276 A  
HETATM   29  C   UNL     1      -8.652   7.939  72.528  1.00  0.00    -0.152 A  
HETATM   30  F   UNL     1      -7.409   7.523  72.804  1.00  0.00    -0.071 F  
HETATM   31  C   UNL     1      -9.686   7.649  73.428  1.00  0.00    -0.363 A  
HETATM   32  C   UNL     1     -10.993   8.071  73.164  1.00  0.00    -0.180 A  
ENDBRANCH  17  20
ENDBRANCH   9  12
ENDBRANCH   7   8
ENDBRANCH   6   7
ENDBRANCH   3   6
ENDBRANCH   2   3
TORSDOF 7
ENDMDL
MODEL       43
REMARK 921   NORMALIZED FREE ENERGY PREDICTED BY IDOCK:   -5.82 KCAL/MOL
REMARK 922        TOTAL FREE ENERGY PREDICTED BY IDOCK:   -9.29 KCAL/MOL
REMARK 923 INTER-LIGAND FREE ENERGY PREDICTED BY IDOCK:   -8.34 KCAL/MOL
REMARK 924 INTRA-LIGAND FREE ENERGY PREDICTED BY IDOCK:   -0.95 KCAL/MOL
REMARK 927      BINDING AFFINITY PREDICTED BY RF-SCORE:    0.00 PKD
ROOT
HETATM    1  C   UNL     1      -7.589   3.463  63.395  1.00  0.00    -0.063 C  
HETATM    2  C   UNL     1      -8.013   4.245  64.634  1.00  0.00    -0.090 C  
ENDROOT
BRANCH   2   3
HETATM    3  N   UNL     1      -8.280   3.424  65.827  1.00  0.00    -0.093 NA 
BRANCH   3   4
HETATM    4  C   UNL     1      -7.310   3.630  66.921  1.00  0.00    -0.068 C  
HETATM    5  C   UNL     1      -7.859   4.227  68.218  1.00  0.00    -0.075 C  
ENDBRANCH   3   4
BRANCH   3   6
HETATM    6  C   UNL     1      -9.667   3.612  66.316  1.00  0.00    -0.074 C  
BRANCH   6   7
HETATM    7  C   UNL     1     -10.419   4.831  65.752  1.00  0.00    -0.238 C  
BRANCH   7   8
HETATM    8  N   UNL     1     -10.800   5.768  66.783  1.00  0.00    -0.513 N  
HETATM    9  C   UNL     1     -10.007   6.846  67.089  1.00  0.00    -0.183 C  
HETATM   10  H   UNL     1     -11.672   5.627  67.294  1.00  0.00     0.000 HD 
HETATM   11  O   UNL     1      -8.956   7.074  66.493  1.00  0.00    -0.136 OA 
BRANCH   9  12
HETATM   12  C   UNL     1     -10.513   7.728  68.144  1.00  0.00    -0.230 A  
HETATM   13  C   UNL     1     -10.820   7.418  69.465  1.00  0.00    -0.189 A  
HETATM   14  C   UNL     1     -10.734   6.164  70.263  1.00  0.00    -0.355 C  
HETATM   15  N   UNL     1     -11.229   8.580  70.085  1.00  0.00    -0.406 NA 
HETATM   16  H   UNL     1     -11.542   8.640  71.054  1.00  0.00     0.000 HD 
HETATM   17  C   UNL     1     -11.158   9.643  69.226  1.00  0.00    -0.118 A  
HETATM   18  C   UNL     1     -10.716   9.150  68.005  1.00  0.00    -0.205 A  
HETATM   19  C   UNL     1     -10.478   9.931  66.751  1.00  0.00    -0.261 C  
BRANCH  17  20
HETATM   20  C   UNL     1     -11.484  10.970  69.606  1.00  0.00    -0.375 C  
HETATM   21  C   UNL     1     -12.273  11.427  70.588  1.00  0.00    -0.484 C  
HETATM   22  C   UNL     1     -13.101  10.719  71.629  1.00  0.00    -0.446 C  
HETATM   23  N   UNL     1     -13.705  11.734  72.363  1.00  0.00    -0.367 N  
HETATM   24  O   UNL     1     -13.226   9.523  71.801  1.00  0.00    -0.367 OA 
HETATM   25  C   UNL     1     -13.343  12.992  71.893  1.00  0.00    -0.446 A  
HETATM   26  H   UNL     1     -14.336  11.575  73.149  1.00  0.00     0.000 HD 
HETATM   27  C   UNL     1     -12.467  12.871  70.810  1.00  0.00    -0.370 A  
HETATM   28  C   UNL     1     -11.967  13.998  70.180  1.00  0.00    -0.399 A  
HETATM   29  C   UNL     1     -12.373  15.239  70.658  1.00  0.00    -0.377 A  
HETATM   30  F   UNL     1     -11.909  16.348  70.067  1.00  0.00    -0.246 F  
HETATM   31  C   UNL     1     -13.255  15.360  71.741  1.00  0.00    -0.544 A  
HETATM   32  C   UNL     1     -13.753  14.219  72.378  1.00  0.00    -0.616 A  
ENDBRANCH  17  20
ENDBRANCH   9  12
ENDBRANCH   7   8
ENDBRANCH   6   7
ENDBRANCH   3   6
ENDBRANCH   2   3
TORSDOF 7
ENDMDL
MODEL       44
REMARK 921   NORMALIZED FREE ENERGY PREDICTED BY IDOCK:   -5.79 KCAL/MOL
REMARK 922        TOTAL FREE ENERGY PREDICTED BY IDOCK:   -9.24 KCAL/MOL
REMARK 923 INTER-LIGAND FREE ENERGY PREDICTED BY IDOCK:   -8.31 KCAL/MOL
REMARK 924 INTRA-LIGAND FREE ENERGY PREDICTED BY IDOCK:   -0.93 KCAL/MOL
REMARK 927      BINDING AFFINITY PREDICTED BY RF-SCORE:    0.00 PKD
ROOT
HETATM    1  C   UNL     1     -10.911   6.014  69.775  1.00  0.00    -0.471 C  
HETATM    2  C   UNL     1     -10.479   7.413  70.203  1.00  0.00    -0.220 C  
ENDROOT
BRANCH   2   3
HETATM    3  N   UNL     1     -10.539   7.667  71.652  1.00  0.00    -0.202 NA 
BRANCH   3   4
HETATM    4  C   UNL     1      -9.281   7.361  72.363  1.00  0.00    -0.139 C  
HETATM    5  C   UNL     1      -7.994   7.901  71.739  1.00  0.00    -0.118 C  
ENDBRANCH   3   4
BRANCH   3   6
HETATM    6  C   UNL     1     -10.979   9.053  71.942  1.00  0.00    -0.353 C  
BRANCH   6   7
HETATM    7  C   UNL     1     -11.850   9.722  70.863  1.00  0.00    -0.336 C  
BRANCH   7   8
HETATM    8  N   UNL     1     -11.687  11.157  70.836  1.00  0.00    -0.328 N  
HETATM    9  C   UNL     1     -11.902  11.873  69.685  1.00  0.00    -0.337 C  
HETATM   10  H   UNL     1     -11.408  11.647  71.686  1.00  0.00     0.000 HD 
HETATM   11  O   UNL     1     -12.257  11.335  68.638  1.00  0.00    -0.562 OA 
BRANCH   9  12
HETATM   12  C   UNL     1     -11.717  13.322  69.795  1.00  0.00    -0.354 A  
HETATM   13  C   UNL     1     -12.449  14.240  70.541  1.00  0.00    -0.361 A  
HETATM   14  C   UNL     1     -13.606  14.106  71.469  1.00  0.00    -0.405 C  
HETATM   15  N   UNL     1     -11.880  15.483  70.354  1.00  0.00    -0.321 NA 
HETATM   16  H   UNL     1     -12.233  16.348  70.762  1.00  0.00     0.000 HD 
HETATM   17  C   UNL     1     -10.779  15.399  69.547  1.00  0.00    -0.267 A  
HETATM   18  C   UNL     1     -10.646  14.066  69.177  1.00  0.00    -0.149 A  
HETATM   19  C   UNL     1      -9.586  13.475  68.301  1.00  0.00    -0.218 C  
BRANCH  17  20
HETATM   20  C   UNL     1      -9.975  16.519  69.213  1.00  0.00    -0.244 C  
HETATM   21  C   UNL     1      -9.784  17.138  68.040  1.00  0.00    -0.274 C  
HETATM   22  C   UNL     1     -10.332  16.876  66.661  1.00  0.00    -0.299 C  
HETATM   23  N   UNL     1      -9.761  17.853  65.853  1.00  0.00    -0.098 N  
HETATM   24  O   UNL     1     -11.103  16.003  66.315  1.00  0.00    -0.144 OA 
HETATM   25  C   UNL     1      -8.921  18.691  66.579  1.00  0.00    -0.304 A  
HETATM   26  H   UNL     1      -9.937  17.944  64.852  1.00  0.00     0.000 HD 
HETATM   27  C   UNL     1      -8.895  18.307  67.922  1.00  0.00    -0.278 A  
HETATM   28  C   UNL     1      -8.127  19.004  68.840  1.00  0.00    -0.310 A  
HETATM   29  C   UNL     1      -7.386  20.085  68.373  1.00  0.00    -0.250 A  
HETATM   30  F   UNL     1      -6.630  20.776  69.235  1.00  0.00    -0.254 F  
HETATM   31  C   UNL     1      -7.408  20.466  67.024  1.00  0.00    -0.348 A  
HETATM   32  C   UNL     1      -8.189  19.763  66.102  1.00  0.00    -0.363 A  
ENDBRANCH  17  20
ENDBRANCH   9  12
ENDBRANCH   7   8
ENDBRANCH   6   7
ENDBRANCH   3   6
ENDBRANCH   2   3
TORSDOF 7
ENDMDL
MODEL       45
REMARK 921   NORMALIZED FREE ENERGY PREDICTED BY IDOCK:   -5.79 KCAL/MOL
REMARK 922        TOTAL FREE ENERGY PREDICTED BY IDOCK:   -9.24 KCAL/MOL
REMARK 923 INTER-LIGAND FREE ENERGY PREDICTED BY IDOCK:   -8.23 KCAL/MOL
REMARK 924 INTRA-LIGAND FREE ENERGY PREDICTED BY IDOCK:   -1.01 KCAL/MOL
REMARK 927      BINDING AFFINITY PREDICTED BY RF-SCORE:    0.00 PKD
ROOT
HETATM    1  C   UNL     1     -10.660  18.826  67.330  1.00  0.00    -0.504 C  
HETATM    2  C   UNL     1      -9.793  17.735  66.709  1.00  0.00    -0.320 C  
ENDROOT
BRANCH   2   3
HETATM    3  N   UNL     1     -10.052  16.375  67.210  1.00  0.00    -0.264 NA 
BRANCH   3   4
HETATM    4  C   UNL     1      -9.524  15.308  66.336  1.00  0.00    -0.298 C  
HETATM    5  C   UNL     1     -10.491  14.728  65.303  1.00  0.00    -0.427 C  
ENDBRANCH   3   4
BRANCH   3   6
HETATM    6  C   UNL     1      -9.559  16.205  68.598  1.00  0.00    -0.226 C  
BRANCH   6   7
HETATM    7  C   UNL     1     -10.638  15.972  69.671  1.00  0.00    -0.311 C  
BRANCH   7   8
HETATM    8  N   UNL     1     -10.757  14.580  70.039  1.00  0.00    -0.466 N  
HETATM    9  C   UNL     1     -11.625  13.745  69.380  1.00  0.00    -0.310 C  
HETATM   10  H   UNL     1     -10.188  14.211  70.800  1.00  0.00     0.000 HD 
HETATM   11  O   UNL     1     -12.320  14.133  68.443  1.00  0.00    -0.237 OA 
BRANCH   9  12
HETATM   12  C   UNL     1     -11.640  12.354  69.840  1.00  0.00    -0.260 A  
HETATM   13  C   UNL     1     -12.316  11.802  70.923  1.00  0.00    -0.320 A  
HETATM   14  C   UNL     1     -13.240  12.370  71.944  1.00  0.00    -0.486 C  
HETATM   15  N   UNL     1     -12.052  10.448  70.938  1.00  0.00    -0.341 NA 
HETATM   16  H   UNL     1     -12.399   9.799  71.644  1.00  0.00     0.000 HD 
HETATM   17  C   UNL     1     -11.263  10.093  69.878  1.00  0.00    -0.287 A  
HETATM   18  C   UNL     1     -10.985  11.256  69.171  1.00  0.00    -0.292 A  
HETATM   19  C   UNL     1     -10.160  11.380  67.928  1.00  0.00    -0.198 C  
BRANCH  17  20
HETATM   20  C   UNL     1     -10.864   8.756  69.622  1.00  0.00    -0.175 C  
HETATM   21  C   UNL     1     -10.779   7.700  70.441  1.00  0.00    -0.241 C  
HETATM   22  C   UNL     1     -11.059   7.540  71.913  1.00  0.00    -0.239 C  
HETATM   23  N   UNL     1     -10.780   6.206  72.192  1.00  0.00    -0.226 N  
HETATM   24  O   UNL     1     -11.443   8.383  72.699  1.00  0.00    -0.380 OA 
HETATM   25  C   UNL     1     -10.358   5.523  71.055  1.00  0.00    -0.239 A  
HETATM   26  H   UNL     1     -10.872   5.782  73.115  1.00  0.00     0.000 HD 
HETATM   27  C   UNL     1     -10.340   6.380  69.952  1.00  0.00    -0.242 A  
HETATM   28  C   UNL     1      -9.957   5.917  68.705  1.00  0.00    -0.195 A  
HETATM   29  C   UNL     1      -9.589   4.579  68.599  1.00  0.00    -0.157 A  
HETATM   30  F   UNL     1      -9.210   4.101  67.407  1.00  0.00    -0.127 F  
HETATM   31  C   UNL     1      -9.604   3.720  69.707  1.00  0.00    -0.253 A  
HETATM   32  C   UNL     1      -9.996   4.192  70.963  1.00  0.00    -0.206 A  
ENDBRANCH  17  20
ENDBRANCH   9  12
ENDBRANCH   7   8
ENDBRANCH   6   7
ENDBRANCH   3   6
ENDBRANCH   2   3
TORSDOF 7
ENDMDL
MODEL       46
REMARK 921   NORMALIZED FREE ENERGY PREDICTED BY IDOCK:   -5.77 KCAL/MOL
REMARK 922        TOTAL FREE ENERGY PREDICTED BY IDOCK:   -9.22 KCAL/MOL
REMARK 923 INTER-LIGAND FREE ENERGY PREDICTED BY IDOCK:   -8.24 KCAL/MOL
REMARK 924 INTRA-LIGAND FREE ENERGY PREDICTED BY IDOCK:   -0.99 KCAL/MOL
REMARK 927      BINDING AFFINITY PREDICTED BY RF-SCORE:    0.00 PKD
ROOT
HETATM    1  C   UNL     1     -12.764   6.836  71.765  1.00  0.00    -0.342 C  
HETATM    2  C   UNL     1     -11.463   6.722  70.977  1.00  0.00    -0.324 C  
ENDROOT
BRANCH   2   3
HETATM    3  N   UNL     1     -11.130   7.897  70.154  1.00  0.00    -0.238 NA 
BRANCH   3   4
HETATM    4  C   UNL     1     -10.622   9.044  70.932  1.00  0.00    -0.250 C  
HETATM    5  C   UNL     1     -11.542  10.263  71.034  1.00  0.00    -0.430 C  
ENDBRANCH   3   4
BRANCH   3   6
HETATM    6  C   UNL     1     -10.186   7.546  69.065  1.00  0.00    -0.205 C  
BRANCH   6   7
HETATM    7  C   UNL     1     -10.733   7.686  67.632  1.00  0.00    -0.175 C  
BRANCH   7   8
HETATM    8  N   UNL     1     -10.669   9.047  67.149  1.00  0.00    -0.334 N  
HETATM    9  C   UNL     1      -9.652   9.459  66.325  1.00  0.00    -0.234 C  
HETATM   10  H   UNL     1     -11.391   9.712  67.426  1.00  0.00     0.000 HD 
HETATM   11  O   UNL     1      -8.767   8.694  65.947  1.00  0.00    -0.151 OA 
BRANCH   9  12
HETATM   12  C   UNL     1      -9.711  10.859  65.896  1.00  0.00    -0.269 A  
HETATM   13  C   UNL     1      -9.845  11.371  64.609  1.00  0.00    -0.259 A  
HETATM   14  C   UNL     1      -9.997  10.735  63.271  1.00  0.00    -0.369 C  
HETATM   15  N   UNL     1      -9.886  12.746  64.707  1.00  0.00    -0.528 NA 
HETATM   16  H   UNL     1      -9.953  13.381  63.911  1.00  0.00     0.000 HD 
HETATM   17  C   UNL     1      -9.826  13.145  66.014  1.00  0.00    -0.260 A  
HETATM   18  C   UNL     1      -9.715  11.995  66.785  1.00  0.00    -0.218 A  
HETATM   19  C   UNL     1      -9.620  11.916  68.277  1.00  0.00    -0.201 C  
BRANCH  17  20
HETATM   20  C   UNL     1      -9.885  14.505  66.413  1.00  0.00    -0.306 C  
HETATM   21  C   UNL     1      -8.965  15.283  67.000  1.00  0.00    -0.254 C  
HETATM   22  C   UNL     1      -7.555  15.008  67.455  1.00  0.00    -0.192 C  
HETATM   23  N   UNL     1      -7.110  16.210  67.997  1.00  0.00    -0.126 N  
HETATM   24  O   UNL     1      -6.931  13.970  67.377  1.00  0.00    -0.180 OA 
HETATM   25  C   UNL     1      -8.087  17.197  67.926  1.00  0.00    -0.201 A  
HETATM   26  H   UNL     1      -6.181  16.349  68.396  1.00  0.00     0.000 HD 
HETATM   27  C   UNL     1      -9.244  16.693  67.324  1.00  0.00    -0.228 A  
HETATM   28  C   UNL     1     -10.353  17.501  67.142  1.00  0.00    -0.330 A  
HETATM   29  C   UNL     1     -10.271  18.819  67.583  1.00  0.00    -0.399 A  
HETATM   30  F   UNL     1     -11.329  19.624  67.423  1.00  0.00    -0.513 F  
HETATM   31  C   UNL     1      -9.113  19.322  68.190  1.00  0.00    -0.381 A  
HETATM   32  C   UNL     1      -7.994  18.504  68.368  1.00  0.00    -0.337 A  
ENDBRANCH  17  20
ENDBRANCH   9  12
ENDBRANCH   7   8
ENDBRANCH   6   7
ENDBRANCH   3   6
ENDBRANCH   2   3
TORSDOF 7
ENDMDL
MODEL       47
REMARK 921   NORMALIZED FREE ENERGY PREDICTED BY IDOCK:   -5.75 KCAL/MOL
REMARK 922        TOTAL FREE ENERGY PREDICTED BY IDOCK:   -9.20 KCAL/MOL
REMARK 923 INTER-LIGAND FREE ENERGY PREDICTED BY IDOCK:   -8.34 KCAL/MOL
REMARK 924 INTRA-LIGAND FREE ENERGY PREDICTED BY IDOCK:   -0.86 KCAL/MOL
REMARK 927      BINDING AFFINITY PREDICTED BY RF-SCORE:    0.00 PKD
ROOT
HETATM    1  C   UNL     1      -8.604   3.981  67.184  1.00  0.00    -0.104 C  
HETATM    2  C   UNL     1      -8.258   4.913  66.027  1.00  0.00    -0.112 C  
ENDROOT
BRANCH   2   3
HETATM    3  N   UNL     1      -8.512   6.341  66.282  1.00  0.00    -0.128 NA 
BRANCH   3   4
HETATM    4  C   UNL     1      -8.355   6.730  67.698  1.00  0.00    -0.123 C  
HETATM    5  C   UNL     1      -7.245   7.735  68.013  1.00  0.00    -0.087 C  
ENDBRANCH   3   4
BRANCH   3   6
HETATM    6  C   UNL     1      -7.681   7.204  65.408  1.00  0.00    -0.111 C  
BRANCH   6   7
HETATM    7  C   UNL     1      -8.446   8.046  64.371  1.00  0.00     0.072 C  
BRANCH   7   8
HETATM    8  N   UNL     1      -9.334   9.004  64.988  1.00  0.00    -0.443 N  
HETATM    9  C   UNL     1      -9.434  10.287  64.510  1.00  0.00    -0.298 C  
HETATM   10  H   UNL     1      -9.896   8.724  65.792  1.00  0.00     0.000 HD 
HETATM   11  O   UNL     1      -8.795  10.672  63.533  1.00  0.00    -0.182 OA 
BRANCH   9  12
HETATM   12  C   UNL     1     -10.380  11.156  65.216  1.00  0.00    -0.336 A  
HETATM   13  C   UNL     1     -11.460  11.867  64.703  1.00  0.00    -0.279 A  
HETATM   14  C   UNL     1     -12.043  11.989  63.338  1.00  0.00    -0.597 C  
HETATM   15  N   UNL     1     -12.075  12.513  65.755  1.00  0.00    -0.583 NA 
HETATM   16  H   UNL     1     -12.881  13.132  65.663  1.00  0.00     0.000 HD 
HETATM   17  C   UNL     1     -11.460  12.213  66.939  1.00  0.00    -0.351 A  
HETATM   18  C   UNL     1     -10.397  11.370  66.643  1.00  0.00    -0.272 A  
HETATM   19  C   UNL     1      -9.427  10.767  67.611  1.00  0.00    -0.166 C  
BRANCH  17  20
HETATM   20  C   UNL     1     -11.904  12.710  68.192  1.00  0.00    -0.366 C  
HETATM   21  C   UNL     1     -11.647  13.870  68.810  1.00  0.00    -0.370 C  
HETATM   22  C   UNL     1     -10.799  15.055  68.422  1.00  0.00    -0.256 C  
HETATM   23  N   UNL     1     -10.922  15.951  69.478  1.00  0.00    -0.284 N  
HETATM   24  O   UNL     1     -10.142  15.206  67.412  1.00  0.00    -0.227 OA 
HETATM   25  C   UNL     1     -11.754  15.453  70.477  1.00  0.00    -0.325 A  
HETATM   26  H   UNL     1     -10.461  16.860  69.516  1.00  0.00     0.000 HD 
HETATM   27  C   UNL     1     -12.230  14.187  70.127  1.00  0.00    -0.415 A  
HETATM   28  C   UNL     1     -13.083  13.496  70.970  1.00  0.00    -0.219 A  
HETATM   29  C   UNL     1     -13.437  14.105  72.170  1.00  0.00    -0.454 A  
HETATM   30  F   UNL     1     -14.258  13.460  73.009  1.00  0.00    -0.283 F  
HETATM   31  C   UNL     1     -12.955  15.373  72.524  1.00  0.00    -0.500 A  
HETATM   32  C   UNL     1     -12.098  16.069  71.666  1.00  0.00    -0.537 A  
ENDBRANCH  17  20
ENDBRANCH   9  12
ENDBRANCH   7   8
ENDBRANCH   6   7
ENDBRANCH   3   6
ENDBRANCH   2   3
TORSDOF 7
ENDMDL
MODEL       48
REMARK 921   NORMALIZED FREE ENERGY PREDICTED BY IDOCK:   -5.74 KCAL/MOL
REMARK 922        TOTAL FREE ENERGY PREDICTED BY IDOCK:   -9.17 KCAL/MOL
REMARK 923 INTER-LIGAND FREE ENERGY PREDICTED BY IDOCK:   -8.24 KCAL/MOL
REMARK 924 INTRA-LIGAND FREE ENERGY PREDICTED BY IDOCK:   -0.94 KCAL/MOL
REMARK 927      BINDING AFFINITY PREDICTED BY RF-SCORE:    0.00 PKD
ROOT
HETATM    1  C   UNL     1     -11.112   6.711  67.333  1.00  0.00    -0.398 C  
HETATM    2  C   UNL     1      -9.768   7.085  66.717  1.00  0.00    -0.184 C  
ENDROOT
BRANCH   2   3
HETATM    3  N   UNL     1      -9.383   8.498  66.876  1.00  0.00    -0.161 NA 
BRANCH   3   4
HETATM    4  C   UNL     1      -9.313   9.243  65.603  1.00  0.00    -0.244 C  
HETATM    5  C   UNL     1      -8.373   8.685  64.534  1.00  0.00    -0.157 C  
ENDBRANCH   3   4
BRANCH   3   6
HETATM    6  C   UNL     1     -10.266   9.196  67.841  1.00  0.00    -0.216 C  
BRANCH   6   7
HETATM    7  C   UNL     1     -11.149  10.314  67.258  1.00  0.00    -0.142 C  
BRANCH   7   8
HETATM    8  N   UNL     1     -10.852  11.606  67.834  1.00  0.00    -0.199 N  
HETATM    9  C   UNL     1     -11.477  12.742  67.384  1.00  0.00    -0.340 C  
HETATM   10  H   UNL     1     -10.168  11.674  68.588  1.00  0.00     0.000 HD 
HETATM   11  O   UNL     1     -12.322  12.713  66.492  1.00  0.00    -0.500 OA 
BRANCH   9  12
HETATM   12  C   UNL     1     -11.098  13.985  68.062  1.00  0.00    -0.282 A  
HETATM   13  C   UNL     1     -11.630  14.545  69.219  1.00  0.00    -0.302 A  
HETATM   14  C   UNL     1     -12.699  14.111  70.160  1.00  0.00    -0.227 C  
HETATM   15  N   UNL     1     -10.928  15.700  69.488  1.00  0.00    -0.256 NA 
HETATM   16  H   UNL     1     -11.126  16.330  70.266  1.00  0.00     0.000 HD 
HETATM   17  C   UNL     1      -9.930  15.890  68.572  1.00  0.00    -0.216 A  
HETATM   18  C   UNL     1     -10.005  14.840  67.666  1.00  0.00    -0.226 A  
HETATM   19  C   UNL     1      -9.120  14.607  66.481  1.00  0.00    -0.267 C  
BRANCH  17  20
HETATM   20  C   UNL     1      -9.025  16.982  68.626  1.00  0.00    -0.267 C  
HETATM   21  C   UNL     1      -8.862  18.021  67.797  1.00  0.00    -0.255 C  
HETATM   22  C   UNL     1      -9.557  18.409  66.517  1.00  0.00    -0.327 C  
HETATM   23  N   UNL     1      -8.941  19.589  66.114  1.00  0.00    -0.353 N  
HETATM   24  O   UNL     1     -10.457  17.826  65.947  1.00  0.00    -0.491 OA 
HETATM   25  C   UNL     1      -7.943  19.976  67.003  1.00  0.00    -0.314 A  
HETATM   26  H   UNL     1      -9.191  20.108  65.272  1.00  0.00     0.000 HD 
HETATM   27  C   UNL     1      -7.848  19.060  68.054  1.00  0.00    -0.319 A  
HETATM   28  C   UNL     1      -6.922  19.243  69.067  1.00  0.00    -0.381 A  
HETATM   29  C   UNL     1      -6.096  20.360  68.992  1.00  0.00    -0.341 A  
HETATM   30  F   UNL     1      -5.187  20.562  69.955  1.00  0.00    -0.241 F  
HETATM   31  C   UNL     1      -6.189  21.276  67.936  1.00  0.00    -0.330 A  
HETATM   32  C   UNL     1      -7.129  21.089  66.918  1.00  0.00    -0.298 A  
ENDBRANCH  17  20
ENDBRANCH   9  12
ENDBRANCH   7   8
ENDBRANCH   6   7
ENDBRANCH   3   6
ENDBRANCH   2   3
TORSDOF 7
ENDMDL
MODEL       49
REMARK 921   NORMALIZED FREE ENERGY PREDICTED BY IDOCK:   -5.73 KCAL/MOL
REMARK 922        TOTAL FREE ENERGY PREDICTED BY IDOCK:   -9.17 KCAL/MOL
REMARK 923 INTER-LIGAND FREE ENERGY PREDICTED BY IDOCK:   -7.87 KCAL/MOL
REMARK 924 INTRA-LIGAND FREE ENERGY PREDICTED BY IDOCK:   -1.30 KCAL/MOL
REMARK 927      BINDING AFFINITY PREDICTED BY RF-SCORE:    0.00 PKD
ROOT
HETATM    1  C   UNL     1     -12.194   9.484  71.233  1.00  0.00    -0.433 C  
HETATM    2  C   UNL     1     -11.844   8.000  71.167  1.00  0.00    -0.284 C  
ENDROOT
BRANCH   2   3
HETATM    3  N   UNL     1     -10.899   7.632  70.099  1.00  0.00    -0.248 NA 
BRANCH   3   4
HETATM    4  C   UNL     1      -9.561   7.249  70.594  1.00  0.00    -0.172 C  
HETATM    5  C   UNL     1      -8.877   8.231  71.546  1.00  0.00    -0.216 C  
ENDBRANCH   3   4
BRANCH   3   6
HETATM    6  C   UNL     1     -11.456   6.571  69.225  1.00  0.00    -0.238 C  
BRANCH   6   7
HETATM    7  C   UNL     1     -10.933   6.551  67.777  1.00  0.00    -0.316 C  
BRANCH   7   8
HETATM    8  N   UNL     1     -10.657   7.877  67.274  1.00  0.00    -0.414 N  
HETATM    9  C   UNL     1      -9.367   8.313  67.098  1.00  0.00    -0.151 C  
HETATM   10  H   UNL     1     -11.432   8.500  67.046  1.00  0.00     0.000 HD 
HETATM   11  O   UNL     1      -8.397   7.598  67.339  1.00  0.00    -0.114 OA 
BRANCH   9  12
HETATM   12  C   UNL     1      -9.224   9.672  66.568  1.00  0.00    -0.197 A  
HETATM   13  C   UNL     1      -9.070  10.082  65.248  1.00  0.00    -0.200 A  
HETATM   14  C   UNL     1      -9.022   9.347  63.953  1.00  0.00    -0.166 C  
HETATM   15  N   UNL     1      -9.010  11.459  65.239  1.00  0.00    -0.390 NA 
HETATM   16  H   UNL     1      -8.871  12.028  64.403  1.00  0.00     0.000 HD 
HETATM   17  C   UNL     1      -9.162  11.963  66.502  1.00  0.00    -0.214 A  
HETATM   18  C   UNL     1      -9.297  10.878  67.359  1.00  0.00    -0.166 A  
HETATM   19  C   UNL     1      -9.491  10.919  68.842  1.00  0.00    -0.182 C  
BRANCH  17  20
HETATM   20  C   UNL     1      -9.178  13.353  66.786  1.00  0.00    -0.242 C  
HETATM   21  C   UNL     1      -9.842  14.356  66.197  1.00  0.00    -0.340 C  
HETATM   22  C   UNL     1     -10.794  14.386  65.028  1.00  0.00    -0.407 C  
HETATM   23  N   UNL     1     -11.149  15.723  64.885  1.00  0.00    -0.461 N  
HETATM   24  O   UNL     1     -11.174  13.455  64.348  1.00  0.00    -0.358 OA 
HETATM   25  C   UNL     1     -10.523  16.524  65.836  1.00  0.00    -0.323 A  
HETATM   26  H   UNL     1     -11.789  16.073  64.172  1.00  0.00     0.000 HD 
HETATM   27  C   UNL     1      -9.714  15.746  66.668  1.00  0.00    -0.266 A  
HETATM   28  C   UNL     1      -8.994  16.330  67.697  1.00  0.00    -0.194 A  
HETATM   29  C   UNL     1      -9.104  17.707  67.861  1.00  0.00    -0.260 A  
HETATM   30  F   UNL     1      -8.417  18.302  68.845  1.00  0.00    -0.313 F  
HETATM   31  C   UNL     1      -9.912  18.487  67.023  1.00  0.00    -0.365 A  
HETATM   32  C   UNL     1     -10.641  17.892  65.988  1.00  0.00    -0.235 A  
ENDBRANCH  17  20
ENDBRANCH   9  12
ENDBRANCH   7   8
ENDBRANCH   6   7
ENDBRANCH   3   6
ENDBRANCH   2   3
TORSDOF 7
ENDMDL
MODEL       50
REMARK 921   NORMALIZED FREE ENERGY PREDICTED BY IDOCK:   -5.73 KCAL/MOL
REMARK 922        TOTAL FREE ENERGY PREDICTED BY IDOCK:   -9.16 KCAL/MOL
REMARK 923 INTER-LIGAND FREE ENERGY PREDICTED BY IDOCK:   -8.30 KCAL/MOL
REMARK 924 INTRA-LIGAND FREE ENERGY PREDICTED BY IDOCK:   -0.86 KCAL/MOL
REMARK 927      BINDING AFFINITY PREDICTED BY RF-SCORE:    0.00 PKD
ROOT
HETATM    1  C   UNL     1      -7.310  18.831  68.931  1.00  0.00    -0.325 C  
HETATM    2  C   UNL     1      -8.402  19.151  67.914  1.00  0.00    -0.298 C  
ENDROOT
BRANCH   2   3
HETATM    3  N   UNL     1      -9.711  18.536  68.194  1.00  0.00    -0.322 NA 
BRANCH   3   4
HETATM    4  C   UNL     1     -10.785  18.984  67.285  1.00  0.00    -0.470 C  
HETATM    5  C   UNL     1     -10.359  19.843  66.093  1.00  0.00    -0.604 C  
ENDBRANCH   3   4
BRANCH   3   6
HETATM    6  C   UNL     1      -9.623  17.056  68.209  1.00  0.00    -0.273 C  
BRANCH   6   7
HETATM    7  C   UNL     1     -10.770  16.307  67.507  1.00  0.00    -0.300 C  
BRANCH   7   8
HETATM    8  N   UNL     1     -10.676  14.875  67.674  1.00  0.00    -0.265 N  
HETATM    9  C   UNL     1     -11.612  14.035  67.124  1.00  0.00    -0.372 C  
HETATM   10  H   UNL     1      -9.902  14.482  68.210  1.00  0.00     0.000 HD 
HETATM   11  O   UNL     1     -12.553  14.455  66.455  1.00  0.00    -0.301 OA 
BRANCH   9  12
HETATM   12  C   UNL     1     -11.395  12.605  67.356  1.00  0.00    -0.367 A  
HETATM   13  C   UNL     1     -10.966  11.632  66.458  1.00  0.00    -0.299 A  
HETATM   14  C   UNL     1     -10.567  11.675  65.024  1.00  0.00    -0.342 C  
HETATM   15  N   UNL     1     -10.879  10.438  67.143  1.00  0.00    -0.264 NA 
HETATM   16  H   UNL     1     -10.614   9.547  66.722  1.00  0.00     0.000 HD 
HETATM   17  C   UNL     1     -11.194  10.608  68.464  1.00  0.00    -0.282 A  
HETATM   18  C   UNL     1     -11.523  11.947  68.634  1.00  0.00    -0.350 A  
HETATM   19  C   UNL     1     -11.934  12.619  69.906  1.00  0.00    -0.365 C  
BRANCH  17  20
HETATM   20  C   UNL     1     -11.154   9.554  69.413  1.00  0.00    -0.136 C  
HETATM   21  C   UNL     1     -10.144   9.098  70.166  1.00  0.00    -0.233 C  
HETATM   22  C   UNL     1      -8.700   9.516  70.279  1.00  0.00    -0.235 C  
HETATM   23  N   UNL     1      -8.149   8.660  71.226  1.00  0.00    -0.135 N  
HETATM   24  O   UNL     1      -8.128  10.403  69.678  1.00  0.00    -0.161 OA 
HETATM   25  C   UNL     1      -9.091   7.759  71.713  1.00  0.00    -0.137 A  
HETATM   26  H   UNL     1      -7.174   8.689  71.527  1.00  0.00     0.000 HD 
HETATM   27  C   UNL     1     -10.330   7.978  71.106  1.00  0.00    -0.229 A  
HETATM   28  C   UNL     1     -11.425   7.199  71.440  1.00  0.00    -0.303 A  
HETATM   29  C   UNL     1     -11.241   6.199  72.389  1.00  0.00    -0.287 A  
HETATM   30  F   UNL     1     -12.281   5.427  72.730  1.00  0.00    -0.333 F  
HETATM   31  C   UNL     1      -9.997   5.977  72.994  1.00  0.00    -0.186 A  
HETATM   32  C   UNL     1      -8.894   6.769  72.657  1.00  0.00    -0.131 A  
ENDBRANCH  17  20
ENDBRANCH   9  12
ENDBRANCH   7   8
ENDBRANCH   6   7
ENDBRANCH   3   6
ENDBRANCH   2   3
TORSDOF 7
ENDMDL
MODEL       51
REMARK 921   NORMALIZED FREE ENERGY PREDICTED BY IDOCK:   -5.72 KCAL/MOL
REMARK 922        TOTAL FREE ENERGY PREDICTED BY IDOCK:   -9.14 KCAL/MOL
REMARK 923 INTER-LIGAND FREE ENERGY PREDICTED BY IDOCK:   -8.33 KCAL/MOL
REMARK 924 INTRA-LIGAND FREE ENERGY PREDICTED BY IDOCK:   -0.81 KCAL/MOL
REMARK 927      BINDING AFFINITY PREDICTED BY RF-SCORE:    0.00 PKD
ROOT
HETATM    1  C   UNL     1     -11.103  13.996  64.595  1.00  0.00    -0.387 C  
HETATM    2  C   UNL     1     -10.999  14.663  65.963  1.00  0.00    -0.325 C  
ENDROOT
BRANCH   2   3
HETATM    3  N   UNL     1      -9.629  14.985  66.395  1.00  0.00    -0.271 NA 
BRANCH   3   4
HETATM    4  C   UNL     1      -9.237  16.386  66.140  1.00  0.00    -0.330 C  
HETATM    5  C   UNL     1     -10.337  17.440  66.275  1.00  0.00    -0.330 C  
ENDBRANCH   3   4
BRANCH   3   6
HETATM    6  C   UNL     1      -9.413  14.634  67.820  1.00  0.00    -0.205 C  
BRANCH   6   7
HETATM    7  C   UNL     1     -10.683  14.503  68.680  1.00  0.00    -0.253 C  
BRANCH   7   8
HETATM    8  N   UNL     1     -10.768  13.223  69.345  1.00  0.00    -0.438 N  
HETATM    9  C   UNL     1     -11.568  12.222  68.854  1.00  0.00    -0.316 C  
HETATM   10  H   UNL     1     -10.225  13.061  70.193  1.00  0.00     0.000 HD 
HETATM   11  O   UNL     1     -12.228  12.358  67.826  1.00  0.00    -0.395 OA 
BRANCH   9  12
HETATM   12  C   UNL     1     -11.554  10.969  69.613  1.00  0.00    -0.390 A  
HETATM   13  C   UNL     1     -12.177  10.676  70.823  1.00  0.00    -0.375 A  
HETATM   14  C   UNL     1     -13.056  11.462  71.732  1.00  0.00    -0.523 C  
HETATM   15  N   UNL     1     -11.905   9.358  71.127  1.00  0.00    -0.315 NA 
HETATM   16  H   UNL     1     -12.215   8.884  71.975  1.00  0.00     0.000 HD 
HETATM   17  C   UNL     1     -11.163   8.772  70.138  1.00  0.00    -0.152 A  
HETATM   18  C   UNL     1     -10.924   9.746  69.177  1.00  0.00    -0.205 A  
HETATM   19  C   UNL     1     -10.157   9.585  67.901  1.00  0.00    -0.234 C  
BRANCH  17  20
HETATM   20  C   UNL     1     -10.769   7.409  70.168  1.00  0.00    -0.254 C  
HETATM   21  C   UNL     1     -10.661   6.556  71.195  1.00  0.00    -0.285 C  
HETATM   22  C   UNL     1     -10.904   6.721  72.674  1.00  0.00    -0.250 C  
HETATM   23  N   UNL     1     -10.616   5.479  73.229  1.00  0.00    -0.230 N  
HETATM   24  O   UNL     1     -11.269   7.716  73.267  1.00  0.00    -0.358 OA 
HETATM   25  C   UNL     1     -10.222   4.563  72.258  1.00  0.00    -0.192 A  
HETATM   26  H   UNL     1     -10.684   5.265  74.224  1.00  0.00     0.000 HD 
HETATM   27  C   UNL     1     -10.232   5.160  70.995  1.00  0.00    -0.295 A  
HETATM   28  C   UNL     1      -9.880   4.435  69.869  1.00  0.00    -0.290 A  
HETATM   29  C   UNL     1      -9.513   3.104  70.047  1.00  0.00    -0.148 A  
HETATM   30  F   UNL     1      -9.163   2.378  68.978  1.00  0.00    -0.144 F  
HETATM   31  C   UNL     1      -9.498   2.507  71.315  1.00  0.00    -0.220 A  
HETATM   32  C   UNL     1      -9.860   3.242  72.448  1.00  0.00    -0.226 A  
ENDBRANCH  17  20
ENDBRANCH   9  12
ENDBRANCH   7   8
ENDBRANCH   6   7
ENDBRANCH   3   6
ENDBRANCH   2   3
TORSDOF 7
ENDMDL
MODEL       52
REMARK 921   NORMALIZED FREE ENERGY PREDICTED BY IDOCK:   -5.71 KCAL/MOL
REMARK 922        TOTAL FREE ENERGY PREDICTED BY IDOCK:   -9.13 KCAL/MOL
REMARK 923 INTER-LIGAND FREE ENERGY PREDICTED BY IDOCK:   -8.02 KCAL/MOL
REMARK 924 INTRA-LIGAND FREE ENERGY PREDICTED BY IDOCK:   -1.11 KCAL/MOL
REMARK 927      BINDING AFFINITY PREDICTED BY RF-SCORE:    0.00 PKD
ROOT
HETATM    1  C   UNL     1     -10.741  19.706  65.657  1.00  0.00    -0.428 C  
HETATM    2  C   UNL     1      -9.772  20.320  66.664  1.00  0.00    -0.414 C  
ENDROOT
BRANCH   2   3
HETATM    3  N   UNL     1      -8.690  19.426  67.109  1.00  0.00    -0.287 NA 
BRANCH   3   4
HETATM    4  C   UNL     1      -7.338  19.913  66.771  1.00  0.00    -0.245 C  
HETATM    5  C   UNL     1      -6.510  20.487  67.922  1.00  0.00    -0.337 C  
ENDBRANCH   3   4
BRANCH   3   6
HETATM    6  C   UNL     1      -8.792  19.131  68.559  1.00  0.00    -0.367 C  
BRANCH   6   7
HETATM    7  C   UNL     1      -9.942  18.196  68.976  1.00  0.00    -0.280 C  
BRANCH   7   8
HETATM    8  N   UNL     1      -9.570  16.802  68.905  1.00  0.00    -0.254 N  
HETATM    9  C   UNL     1      -9.965  16.016  67.851  1.00  0.00    -0.233 C  
HETATM   10  H   UNL     1      -9.005  16.394  69.650  1.00  0.00     0.000 HD 
HETATM   11  O   UNL     1     -10.631  16.461  66.919  1.00  0.00    -0.305 OA 
BRANCH   9  12
HETATM   12  C   UNL     1      -9.510  14.624  67.892  1.00  0.00    -0.210 A  
HETATM   13  C   UNL     1      -8.233  14.117  67.673  1.00  0.00    -0.186 A  
HETATM   14  C   UNL     1      -6.925  14.755  67.359  1.00  0.00    -0.141 C  
HETATM   15  N   UNL     1      -8.286  12.751  67.854  1.00  0.00    -0.160 NA 
HETATM   16  H   UNL     1      -7.496  12.119  67.729  1.00  0.00     0.000 HD 
HETATM   17  C   UNL     1      -9.543  12.356  68.225  1.00  0.00    -0.211 A  
HETATM   18  C   UNL     1     -10.334  13.497  68.259  1.00  0.00    -0.253 A  
HETATM   19  C   UNL     1     -11.786  13.577  68.614  1.00  0.00    -0.404 C  
BRANCH  17  20
HETATM   20  C   UNL     1      -9.878  11.008  68.514  1.00  0.00    -0.194 C  
HETATM   21  C   UNL     1      -9.927   9.932  67.718  1.00  0.00    -0.201 C  
HETATM   22  C   UNL     1      -9.659   9.753  66.246  1.00  0.00    -0.213 C  
HETATM   23  N   UNL     1      -9.882   8.403  65.998  1.00  0.00    -0.474 N  
HETATM   24  O   UNL     1      -9.324  10.596  65.438  1.00  0.00    -0.187 OA 
HETATM   25  C   UNL     1     -10.258   7.726  67.154  1.00  0.00    -0.295 A  
HETATM   26  H   UNL     1      -9.783   7.964  65.083  1.00  0.00     0.000 HD 
HETATM   27  C   UNL     1     -10.300   8.605  68.240  1.00  0.00    -0.252 A  
HETATM   28  C   UNL     1     -10.646   8.151  69.501  1.00  0.00    -0.215 A  
HETATM   29  C   UNL     1     -10.952   6.801  69.640  1.00  0.00    -0.288 A  
HETATM   30  F   UNL     1     -11.294   6.332  70.847  1.00  0.00    -0.328 F  
HETATM   31  C   UNL     1     -10.914   5.921  68.550  1.00  0.00    -0.277 A  
HETATM   32  C   UNL     1     -10.559   6.382  67.279  1.00  0.00    -0.382 A  
ENDBRANCH  17  20
ENDBRANCH   9  12
ENDBRANCH   7   8
ENDBRANCH   6   7
ENDBRANCH   3   6
ENDBRANCH   2   3
TORSDOF 7
ENDMDL
MODEL       53
REMARK 921   NORMALIZED FREE ENERGY PREDICTED BY IDOCK:   -5.70 KCAL/MOL
REMARK 922        TOTAL FREE ENERGY PREDICTED BY IDOCK:   -9.12 KCAL/MOL
REMARK 923 INTER-LIGAND FREE ENERGY PREDICTED BY IDOCK:   -8.16 KCAL/MOL
REMARK 924 INTRA-LIGAND FREE ENERGY PREDICTED BY IDOCK:   -0.95 KCAL/MOL
REMARK 927      BINDING AFFINITY PREDICTED BY RF-SCORE:    0.00 PKD
ROOT
HETATM    1  C   UNL     1      -5.395   8.740  66.696  1.00  0.00    -0.039 C  
HETATM    2  C   UNL     1      -5.621   7.992  65.385  1.00  0.00    -0.036 C  
ENDROOT
BRANCH   2   3
HETATM    3  N   UNL     1      -7.020   7.955  64.924  1.00  0.00    -0.058 NA 
BRANCH   3   4
HETATM    4  C   UNL     1      -7.265   8.744  63.700  1.00  0.00    -0.094 C  
HETATM    5  C   UNL     1      -8.659   9.354  63.547  1.00  0.00    -0.215 C  
ENDBRANCH   3   4
BRANCH   3   6
HETATM    6  C   UNL     1      -7.496   6.561  64.751  1.00  0.00    -0.091 C  
BRANCH   6   7
HETATM    7  C   UNL     1      -7.829   5.799  66.046  1.00  0.00    -0.101 C  
BRANCH   7   8
HETATM    8  N   UNL     1      -8.505   6.630  67.016  1.00  0.00    -0.113 N  
HETATM    9  C   UNL     1      -9.872   6.601  67.142  1.00  0.00    -0.151 C  
HETATM   10  H   UNL     1      -7.959   7.248  67.616  1.00  0.00     0.000 HD 
HETATM   11  O   UNL     1     -10.575   5.862  66.457  1.00  0.00    -0.243 OA 
BRANCH   9  12
HETATM   12  C   UNL     1     -10.432   7.481  68.171  1.00  0.00    -0.233 A  
HETATM   13  C   UNL     1     -10.780   7.177  69.483  1.00  0.00    -0.239 A  
HETATM   14  C   UNL     1     -10.698   5.931  70.295  1.00  0.00    -0.383 C  
HETATM   15  N   UNL     1     -11.233   8.336  70.077  1.00  0.00    -0.433 NA 
HETATM   16  H   UNL     1     -11.582   8.398  71.034  1.00  0.00     0.000 HD 
HETATM   17  C   UNL     1     -11.152   9.392  69.212  1.00  0.00    -0.045 A  
HETATM   18  C   UNL     1     -10.658   8.898  68.012  1.00  0.00    -0.226 A  
HETATM   19  C   UNL     1     -10.389   9.672  66.759  1.00  0.00    -0.292 C  
BRANCH  17  20
HETATM   20  C   UNL     1     -11.518  10.716  69.567  1.00  0.00    -0.360 C  
HETATM   21  C   UNL     1     -12.262  11.172  70.584  1.00  0.00    -0.492 C  
HETATM   22  C   UNL     1     -12.985  10.465  71.701  1.00  0.00    -0.475 C  
HETATM   23  N   UNL     1     -13.589  11.477  72.439  1.00  0.00    -0.410 N  
HETATM   24  O   UNL     1     -13.040   9.272  71.921  1.00  0.00    -0.354 OA 
HETATM   25  C   UNL     1     -13.320  12.733  71.903  1.00  0.00    -0.413 A  
HETATM   26  H   UNL     1     -14.159  11.319  73.271  1.00  0.00     0.000 HD 
HETATM   27  C   UNL     1     -12.511  12.613  70.769  1.00  0.00    -0.357 A  
HETATM   28  C   UNL     1     -12.109  13.737  70.069  1.00  0.00    -0.416 A  
HETATM   29  C   UNL     1     -12.543  14.976  70.532  1.00  0.00    -0.369 A  
HETATM   30  F   UNL     1     -12.173  16.082  69.873  1.00  0.00    -0.327 F  
HETATM   31  C   UNL     1     -13.357  15.095  71.666  1.00  0.00    -0.521 A  
HETATM   32  C   UNL     1     -13.757  13.957  72.373  1.00  0.00    -0.678 A  
ENDBRANCH  17  20
ENDBRANCH   9  12
ENDBRANCH   7   8
ENDBRANCH   6   7
ENDBRANCH   3   6
ENDBRANCH   2   3
TORSDOF 7
ENDMDL
MODEL       54
REMARK 921   NORMALIZED FREE ENERGY PREDICTED BY IDOCK:   -5.70 KCAL/MOL
REMARK 922        TOTAL FREE ENERGY PREDICTED BY IDOCK:   -9.12 KCAL/MOL
REMARK 923 INTER-LIGAND FREE ENERGY PREDICTED BY IDOCK:   -8.22 KCAL/MOL
REMARK 924 INTRA-LIGAND FREE ENERGY PREDICTED BY IDOCK:   -0.90 KCAL/MOL
REMARK 927      BINDING AFFINITY PREDICTED BY RF-SCORE:    0.00 PKD
ROOT
HETATM    1  C   UNL     1     -10.398  19.626  67.686  1.00  0.00    -0.583 C  
HETATM    2  C   UNL     1      -8.968  19.850  67.204  1.00  0.00    -0.338 C  
ENDROOT
BRANCH   2   3
HETATM    3  N   UNL     1      -8.558  19.012  66.065  1.00  0.00    -0.465 NA 
BRANCH   3   4
HETATM    4  C   UNL     1      -7.094  18.874  65.924  1.00  0.00    -0.260 C  
HETATM    5  C   UNL     1      -6.342  20.086  65.371  1.00  0.00    -0.284 C  
ENDBRANCH   3   4
BRANCH   3   6
HETATM    6  C   UNL     1      -9.205  17.679  66.111  1.00  0.00    -0.119 C  
BRANCH   6   7
HETATM    7  C   UNL     1      -8.254  16.473  66.213  1.00  0.00    -0.325 C  
BRANCH   7   8
HETATM    8  N   UNL     1      -8.959  15.212  66.179  1.00  0.00    -0.468 N  
HETATM    9  C   UNL     1      -9.562  14.707  67.304  1.00  0.00    -0.221 C  
HETATM   10  H   UNL     1      -9.008  14.687  65.305  1.00  0.00     0.000 HD 
HETATM   11  O   UNL     1      -9.548  15.306  68.377  1.00  0.00    -0.198 OA 
BRANCH   9  12
HETATM   12  C   UNL     1     -10.255  13.427  67.132  1.00  0.00    -0.247 A  
HETATM   13  C   UNL     1     -11.523  13.185  66.614  1.00  0.00    -0.348 A  
HETATM   14  C   UNL     1     -12.578  14.072  66.050  1.00  0.00    -0.452 C  
HETATM   15  N   UNL     1     -11.727  11.821  66.622  1.00  0.00    -0.554 NA 
HETATM   16  H   UNL     1     -12.587  11.363  66.321  1.00  0.00     0.000 HD 
HETATM   17  C   UNL     1     -10.620  11.165  67.087  1.00  0.00    -0.244 A  
HETATM   18  C   UNL     1      -9.681  12.134  67.417  1.00  0.00    -0.180 A  
HETATM   19  C   UNL     1      -8.307  11.908  67.966  1.00  0.00    -0.160 C  
BRANCH  17  20
HETATM   20  C   UNL     1     -10.535   9.751  67.170  1.00  0.00    -0.316 C  
HETATM   21  C   UNL     1     -10.621   8.933  68.227  1.00  0.00    -0.203 C  
HETATM   22  C   UNL     1     -10.826   9.201  69.696  1.00  0.00    -0.197 C  
HETATM   23  N   UNL     1     -10.819   7.947  70.298  1.00  0.00    -0.241 N  
HETATM   24  O   UNL     1     -10.965  10.273  70.250  1.00  0.00    -0.286 OA 
HETATM   25  C   UNL     1     -10.634   6.932  69.364  1.00  0.00    -0.229 A  
HETATM   26  H   UNL     1     -10.936   7.791  71.299  1.00  0.00     0.000 HD 
HETATM   27  C   UNL     1     -10.509   7.471  68.080  1.00  0.00    -0.233 A  
HETATM   28  C   UNL     1     -10.321   6.645  66.985  1.00  0.00    -0.330 A  
HETATM   29  C   UNL     1     -10.256   5.274  67.214  1.00  0.00    -0.206 A  
HETATM   30  F   UNL     1     -10.072   4.450  66.175  1.00  0.00    -0.192 F  
HETATM   31  C   UNL     1     -10.377   4.735  68.502  1.00  0.00     0.037 A  
HETATM   32  C   UNL     1     -10.572   5.572  69.604  1.00  0.00    -0.375 A  
ENDBRANCH  17  20
ENDBRANCH   9  12
ENDBRANCH   7   8
ENDBRANCH   6   7
ENDBRANCH   3   6
ENDBRANCH   2   3
TORSDOF 7
ENDMDL
MODEL       55
REMARK 921   NORMALIZED FREE ENERGY PREDICTED BY IDOCK:   -5.70 KCAL/MOL
REMARK 922        TOTAL FREE ENERGY PREDICTED BY IDOCK:   -9.12 KCAL/MOL
REMARK 923 INTER-LIGAND FREE ENERGY PREDICTED BY IDOCK:   -7.94 KCAL/MOL
REMARK 924 INTRA-LIGAND FREE ENERGY PREDICTED BY IDOCK:   -1.18 KCAL/MOL
REMARK 927      BINDING AFFINITY PREDICTED BY RF-SCORE:    0.00 PKD
ROOT
HETATM    1  C   UNL     1     -11.055   7.167  71.098  1.00  0.00    -0.281 C  
HETATM    2  C   UNL     1     -11.169   5.976  70.152  1.00  0.00    -0.342 C  
ENDROOT
BRANCH   2   3
HETATM    3  N   UNL     1     -10.354   6.073  68.930  1.00  0.00    -0.194 NA 
BRANCH   3   4
HETATM    4  C   UNL     1      -9.674   4.813  68.566  1.00  0.00    -0.151 C  
HETATM    5  C   UNL     1      -8.365   4.942  67.785  1.00  0.00    -0.104 C  
ENDBRANCH   3   4
BRANCH   3   6
HETATM    6  C   UNL     1     -11.148   6.586  67.787  1.00  0.00    -0.270 C  
BRANCH   6   7
HETATM    7  C   UNL     1     -10.468   7.668  66.929  1.00  0.00    -0.318 C  
BRANCH   7   8
HETATM    8  N   UNL     1     -10.803   9.005  67.362  1.00  0.00    -0.432 N  
HETATM    9  C   UNL     1      -9.995   9.690  68.234  1.00  0.00    -0.155 C  
HETATM   10  H   UNL     1     -11.655   9.447  67.016  1.00  0.00     0.000 HD 
HETATM   11  O   UNL     1      -8.949   9.212  68.668  1.00  0.00    -0.135 OA 
BRANCH   9  12
HETATM   12  C   UNL     1     -10.441  11.042  68.584  1.00  0.00    -0.214 A  
HETATM   13  C   UNL     1     -11.293  11.440  69.609  1.00  0.00    -0.275 A  
HETATM   14  C   UNL     1     -12.008  10.699  70.685  1.00  0.00    -0.466 C  
HETATM   15  N   UNL     1     -11.389  12.815  69.565  1.00  0.00    -0.448 NA 
HETATM   16  H   UNL     1     -11.972  13.375  70.187  1.00  0.00     0.000 HD 
HETATM   17  C   UNL     1     -10.596  13.329  68.575  1.00  0.00    -0.256 A  
HETATM   18  C   UNL     1      -9.989  12.252  67.940  1.00  0.00    -0.202 A  
HETATM   19  C   UNL     1      -9.029  12.306  66.794  1.00  0.00    -0.209 C  
BRANCH  17  20
HETATM   20  C   UNL     1     -10.471  14.719  68.324  1.00  0.00    -0.241 C  
HETATM   21  C   UNL     1      -9.434  15.548  68.505  1.00  0.00    -0.200 C  
HETATM   22  C   UNL     1      -8.043  15.322  69.041  1.00  0.00    -0.202 C  
HETATM   23  N   UNL     1      -7.429  16.568  68.991  1.00  0.00    -0.223 N  
HETATM   24  O   UNL     1      -7.553  14.284  69.437  1.00  0.00    -0.052 OA 
HETATM   25  C   UNL     1      -8.284  17.541  68.483  1.00  0.00    -0.278 A  
HETATM   26  H   UNL     1      -6.470  16.747  69.289  1.00  0.00     0.000 HD 
HETATM   27  C   UNL     1      -9.523  16.979  68.165  1.00  0.00    -0.262 A  
HETATM   28  C   UNL     1     -10.536  17.761  67.636  1.00  0.00    -0.385 A  
HETATM   29  C   UNL     1     -10.274  19.113  67.443  1.00  0.00    -0.400 A  
HETATM   30  F   UNL     1     -11.236  19.896  66.936  1.00  0.00    -0.515 F  
HETATM   31  C   UNL     1      -9.033  19.677  67.766  1.00  0.00    -0.385 A  
HETATM   32  C   UNL     1      -8.011  18.883  68.295  1.00  0.00    -0.343 A  
ENDBRANCH  17  20
ENDBRANCH   9  12
ENDBRANCH   7   8
ENDBRANCH   6   7
ENDBRANCH   3   6
ENDBRANCH   2   3
TORSDOF 7
ENDMDL
MODEL       56
REMARK 921   NORMALIZED FREE ENERGY PREDICTED BY IDOCK:   -5.70 KCAL/MOL
REMARK 922        TOTAL FREE ENERGY PREDICTED BY IDOCK:   -9.12 KCAL/MOL
REMARK 923 INTER-LIGAND FREE ENERGY PREDICTED BY IDOCK:   -7.97 KCAL/MOL
REMARK 924 INTRA-LIGAND FREE ENERGY PREDICTED BY IDOCK:   -1.15 KCAL/MOL
REMARK 927      BINDING AFFINITY PREDICTED BY RF-SCORE:    0.00 PKD
ROOT
HETATM    1  C   UNL     1     -12.479  13.016  65.250  1.00  0.00    -0.555 C  
HETATM    2  C   UNL     1     -12.100  14.056  66.300  1.00  0.00    -0.456 C  
ENDROOT
BRANCH   2   3
HETATM    3  N   UNL     1     -10.701  13.997  66.756  1.00  0.00    -0.284 NA 
BRANCH   3   4
HETATM    4  C   UNL     1      -9.808  14.948  66.064  1.00  0.00    -0.318 C  
HETATM    5  C   UNL     1     -10.412  16.301  65.686  1.00  0.00    -0.386 C  
ENDBRANCH   3   4
BRANCH   3   6
HETATM    6  C   UNL     1     -10.603  14.163  68.226  1.00  0.00    -0.251 C  
BRANCH   6   7
HETATM    7  C   UNL     1     -11.859  13.782  69.031  1.00  0.00    -0.357 C  
BRANCH   7   8
HETATM    8  N   UNL     1     -11.624  12.671  69.924  1.00  0.00    -0.511 N  
HETATM    9  C   UNL     1     -11.852  11.378  69.522  1.00  0.00    -0.357 C  
HETATM   10  H   UNL     1     -11.283  12.849  70.869  1.00  0.00     0.000 HD 
HETATM   11  O   UNL     1     -12.244  11.106  68.390  1.00  0.00    -0.610 OA 
BRANCH   9  12
HETATM   12  C   UNL     1     -11.561  10.343  70.518  1.00  0.00    -0.433 A  
HETATM   13  C   UNL     1     -12.372   9.868  71.543  1.00  0.00    -0.412 A  
HETATM   14  C   UNL     1     -13.761  10.190  71.976  1.00  0.00    -0.204 C  
HETATM   15  N   UNL     1     -11.681   8.871  72.198  1.00  0.00    -0.362 NA 
HETATM   16  H   UNL     1     -12.028   8.364  73.013  1.00  0.00     0.000 HD 
HETATM   17  C   UNL     1     -10.466   8.651  71.609  1.00  0.00    -0.296 A  
HETATM   18  C   UNL     1     -10.355   9.551  70.557  1.00  0.00    -0.350 A  
HETATM   19  C   UNL     1      -9.204   9.695  69.611  1.00  0.00    -0.225 C  
BRANCH  17  20
HETATM   20  C   UNL     1      -9.558   7.655  72.052  1.00  0.00    -0.200 C  
HETATM   21  C   UNL     1      -9.434   6.369  71.699  1.00  0.00    -0.160 C  
HETATM   22  C   UNL     1     -10.202   5.511  70.727  1.00  0.00    -0.235 C  
HETATM   23  N   UNL     1      -9.607   4.256  70.803  1.00  0.00    -0.171 N  
HETATM   24  O   UNL     1     -11.140   5.830  70.025  1.00  0.00    -0.348 OA 
HETATM   25  C   UNL     1      -8.555   4.242  71.714  1.00  0.00    -0.106 A  
HETATM   26  H   UNL     1      -9.905   3.446  70.258  1.00  0.00     0.000 HD 
HETATM   27  C   UNL     1      -8.398   5.504  72.292  1.00  0.00    -0.119 A  
HETATM   28  C   UNL     1      -7.404   5.730  73.229  1.00  0.00    -0.094 A  
HETATM   29  C   UNL     1      -6.583   4.660  73.572  1.00  0.00    -0.061 A  
HETATM   30  F   UNL     1      -5.615   4.847  74.478  1.00  0.00    -0.021 F  
HETATM   31  C   UNL     1      -6.745   3.394  72.994  1.00  0.00    -0.034 A  
HETATM   32  C   UNL     1      -7.747   3.171  72.045  1.00  0.00    -0.054 A  
ENDBRANCH  17  20
ENDBRANCH   9  12
ENDBRANCH   7   8
ENDBRANCH   6   7
ENDBRANCH   3   6
ENDBRANCH   2   3
TORSDOF 7
ENDMDL
MODEL       57
REMARK 921   NORMALIZED FREE ENERGY PREDICTED BY IDOCK:   -5.69 KCAL/MOL
REMARK 922        TOTAL FREE ENERGY PREDICTED BY IDOCK:   -9.11 KCAL/MOL
REMARK 923 INTER-LIGAND FREE ENERGY PREDICTED BY IDOCK:   -7.88 KCAL/MOL
REMARK 924 INTRA-LIGAND FREE ENERGY PREDICTED BY IDOCK:   -1.23 KCAL/MOL
REMARK 927      BINDING AFFINITY PREDICTED BY RF-SCORE:    0.00 PKD
ROOT
HETATM    1  C   UNL     1      -7.346   3.478  66.248  1.00  0.00    -0.076 C  
HETATM    2  C   UNL     1      -8.745   3.532  66.853  1.00  0.00    -0.120 C  
ENDROOT
BRANCH   2   3
HETATM    3  N   UNL     1      -8.789   3.463  68.324  1.00  0.00    -0.108 NA 
BRANCH   3   4
HETATM    4  C   UNL     1      -9.442   2.245  68.844  1.00  0.00    -0.100 C  
HETATM    5  C   UNL     1      -8.868   1.660  70.135  1.00  0.00    -0.115 C  
ENDBRANCH   3   4
BRANCH   3   6
HETATM    6  C   UNL     1      -7.438   3.624  68.914  1.00  0.00    -0.053 C  
BRANCH   6   7
HETATM    7  C   UNL     1      -7.242   4.857  69.816  1.00  0.00    -0.055 C  
BRANCH   7   8
HETATM    8  N   UNL     1      -8.257   5.862  69.602  1.00  0.00    -0.108 N  
HETATM    9  C   UNL     1      -8.026   6.938  68.782  1.00  0.00    -0.120 C  
HETATM   10  H   UNL     1      -9.160   5.771  70.068  1.00  0.00     0.000 HD 
HETATM   11  O   UNL     1      -6.964   7.087  68.183  1.00  0.00    -0.074 OA 
BRANCH   9  12
HETATM   12  C   UNL     1      -9.142   7.878  68.639  1.00  0.00    -0.136 A  
HETATM   13  C   UNL     1     -10.300   7.747  67.879  1.00  0.00    -0.217 A  
HETATM   14  C   UNL     1     -10.824   6.665  67.001  1.00  0.00    -0.467 C  
HETATM   15  N   UNL     1     -11.070   8.872  68.089  1.00  0.00    -0.449 NA 
HETATM   16  H   UNL     1     -11.964   9.055  67.634  1.00  0.00     0.000 HD 
HETATM   17  C   UNL     1     -10.473   9.710  68.991  1.00  0.00    -0.213 A  
HETATM   18  C   UNL     1      -9.268   9.124  69.356  1.00  0.00    -0.156 A  
HETATM   19  C   UNL     1      -8.260   9.662  70.323  1.00  0.00    -0.217 C  
BRANCH  17  20
HETATM   20  C   UNL     1     -11.060  10.928  69.424  1.00  0.00    -0.317 C  
HETATM   21  C   UNL     1     -11.878  11.184  70.453  1.00  0.00    -0.462 C  
HETATM   22  C   UNL     1     -12.479  10.293  71.510  1.00  0.00    -0.422 C  
HETATM   23  N   UNL     1     -13.251  11.138  72.300  1.00  0.00    -0.534 N  
HETATM   24  O   UNL     1     -12.333   9.096  71.652  1.00  0.00    -0.317 OA 
HETATM   25  C   UNL     1     -13.194  12.454  71.850  1.00  0.00    -0.382 A  
HETATM   26  H   UNL     1     -13.792  10.832  73.109  1.00  0.00     0.000 HD 
HETATM   27  C   UNL     1     -12.369  12.547  70.726  1.00  0.00    -0.376 A  
HETATM   28  C   UNL     1     -12.157  13.766  70.106  1.00  0.00    -0.429 A  
HETATM   29  C   UNL     1     -12.797  14.881  70.638  1.00  0.00    -0.353 A  
HETATM   30  F   UNL     1     -12.615  16.074  70.059  1.00  0.00    -0.332 F  
HETATM   31  C   UNL     1     -13.629  14.786  71.763  1.00  0.00    -0.485 A  
HETATM   32  C   UNL     1     -13.836  13.553  72.388  1.00  0.00    -0.687 A  
ENDBRANCH  17  20
ENDBRANCH   9  12
ENDBRANCH   7   8
ENDBRANCH   6   7
ENDBRANCH   3   6
ENDBRANCH   2   3
TORSDOF 7
ENDMDL
MODEL       58
REMARK 921   NORMALIZED FREE ENERGY PREDICTED BY IDOCK:   -5.69 KCAL/MOL
REMARK 922        TOTAL FREE ENERGY PREDICTED BY IDOCK:   -9.10 KCAL/MOL
REMARK 923 INTER-LIGAND FREE ENERGY PREDICTED BY IDOCK:   -7.76 KCAL/MOL
REMARK 924 INTRA-LIGAND FREE ENERGY PREDICTED BY IDOCK:   -1.34 KCAL/MOL
REMARK 927      BINDING AFFINITY PREDICTED BY RF-SCORE:    0.00 PKD
ROOT
HETATM    1  C   UNL     1      -9.096   7.753  67.855  1.00  0.00    -0.132 C  
HETATM    2  C   UNL     1     -10.459   7.117  68.108  1.00  0.00    -0.200 C  
ENDROOT
BRANCH   2   3
HETATM    3  N   UNL     1     -10.948   7.224  69.493  1.00  0.00    -0.205 NA 
BRANCH   3   4
HETATM    4  C   UNL     1     -10.989   5.935  70.212  1.00  0.00    -0.320 C  
HETATM    5  C   UNL     1     -10.384   5.915  71.616  1.00  0.00    -0.268 C  
ENDBRANCH   3   4
BRANCH   3   6
HETATM    6  C   UNL     1     -10.175   8.228  70.265  1.00  0.00    -0.196 C  
BRANCH   6   7
HETATM    7  C   UNL     1     -10.882   9.572  70.517  1.00  0.00    -0.292 C  
BRANCH   7   8
HETATM    8  N   UNL     1     -10.269  10.661  69.792  1.00  0.00    -0.436 N  
HETATM    9  C   UNL     1     -10.740  11.046  68.561  1.00  0.00    -0.202 C  
HETATM   10  H   UNL     1      -9.473  11.151  70.200  1.00  0.00     0.000 HD 
HETATM   11  O   UNL     1     -11.706  10.502  68.032  1.00  0.00    -0.450 OA 
BRANCH   9  12
HETATM   12  C   UNL     1     -10.038  12.172  67.938  1.00  0.00    -0.199 A  
HETATM   13  C   UNL     1      -9.130  12.157  66.885  1.00  0.00    -0.203 A  
HETATM   14  C   UNL     1      -8.579  11.069  66.030  1.00  0.00    -0.173 C  
HETATM   15  N   UNL     1      -8.765  13.462  66.627  1.00  0.00    -0.441 NA 
HETATM   16  H   UNL     1      -8.086  13.744  65.920  1.00  0.00     0.000 HD 
HETATM   17  C   UNL     1      -9.436  14.328  67.446  1.00  0.00    -0.211 A  
HETATM   18  C   UNL     1     -10.239  13.560  68.279  1.00  0.00    -0.250 A  
HETATM   19  C   UNL     1     -11.165  14.055  69.346  1.00  0.00    -0.283 C  
BRANCH  17  20
HETATM   20  C   UNL     1      -9.284  15.737  67.376  1.00  0.00    -0.208 C  
HETATM   21  C   UNL     1      -8.179  16.492  67.304  1.00  0.00    -0.196 C  
HETATM   22  C   UNL     1      -6.715  16.138  67.280  1.00  0.00    -0.198 C  
HETATM   23  N   UNL     1      -6.049  17.356  67.204  1.00  0.00    -0.134 N  
HETATM   24  O   UNL     1      -6.210  15.034  67.322  1.00  0.00    -0.315 OA 
HETATM   25  C   UNL     1      -6.939  18.426  67.176  1.00  0.00    -0.198 A  
HETATM   26  H   UNL     1      -5.034  17.454  67.171  1.00  0.00     0.000 HD 
HETATM   27  C   UNL     1      -8.256  17.962  67.232  1.00  0.00    -0.225 A  
HETATM   28  C   UNL     1      -9.317  18.851  67.213  1.00  0.00    -0.324 A  
HETATM   29  C   UNL     1      -9.021  20.209  67.142  1.00  0.00    -0.360 A  
HETATM   30  F   UNL     1     -10.026  21.094  67.125  1.00  0.00    -0.572 F  
HETATM   31  C   UNL     1      -7.699  20.673  67.091  1.00  0.00    -0.348 A  
HETATM   32  C   UNL     1      -6.631  19.772  67.106  1.00  0.00    -0.219 A  
ENDBRANCH  17  20
ENDBRANCH   9  12
ENDBRANCH   7   8
ENDBRANCH   6   7
ENDBRANCH   3   6
ENDBRANCH   2   3
TORSDOF 7
ENDMDL
MODEL       59
REMARK 921   NORMALIZED FREE ENERGY PREDICTED BY IDOCK:   -5.66 KCAL/MOL
REMARK 922        TOTAL FREE ENERGY PREDICTED BY IDOCK:   -9.06 KCAL/MOL
REMARK 923 INTER-LIGAND FREE ENERGY PREDICTED BY IDOCK:   -8.02 KCAL/MOL
REMARK 924 INTRA-LIGAND FREE ENERGY PREDICTED BY IDOCK:   -1.05 KCAL/MOL
REMARK 927      BINDING AFFINITY PREDICTED BY RF-SCORE:    0.00 PKD
ROOT
HETATM    1  C   UNL     1      -9.185   9.756  64.547  1.00  0.00    -0.310 C  
HETATM    2  C   UNL     1      -8.260   8.833  65.335  1.00  0.00    -0.136 C  
ENDROOT
BRANCH   2   3
HETATM    3  N   UNL     1      -8.780   7.472  65.554  1.00  0.00    -0.089 NA 
BRANCH   3   4
HETATM    4  C   UNL     1      -7.909   6.408  65.015  1.00  0.00    -0.112 C  
HETATM    5  C   UNL     1      -6.405   6.573  65.245  1.00  0.00    -0.034 C  
ENDBRANCH   3   4
BRANCH   3   6
HETATM    6  C   UNL     1      -9.075   7.229  66.987  1.00  0.00    -0.135 C  
BRANCH   6   7
HETATM    7  C   UNL     1     -10.555   7.345  67.397  1.00  0.00    -0.301 C  
BRANCH   7   8
HETATM    8  N   UNL     1     -10.926   8.700  67.737  1.00  0.00    -0.487 N  
HETATM    9  C   UNL     1     -10.500   9.279  68.905  1.00  0.00    -0.215 C  
HETATM   10  H   UNL     1     -11.516   9.234  67.098  1.00  0.00     0.000 HD 
HETATM   11  O   UNL     1      -9.774   8.687  69.701  1.00  0.00    -0.175 OA 
BRANCH   9  12
HETATM   12  C   UNL     1     -10.935  10.661  69.124  1.00  0.00    -0.296 A  
HETATM   13  C   UNL     1     -11.979  11.131  69.915  1.00  0.00    -0.363 A  
HETATM   14  C   UNL     1     -12.969  10.458  70.800  1.00  0.00    -0.422 C  
HETATM   15  N   UNL     1     -11.982  12.508  69.832  1.00  0.00    -0.340 NA 
HETATM   16  H   UNL     1     -12.661  13.114  70.292  1.00  0.00     0.000 HD 
HETATM   17  C   UNL     1     -10.950  12.952  69.051  1.00  0.00    -0.197 A  
HETATM   18  C   UNL     1     -10.276  11.829  68.590  1.00  0.00    -0.211 A  
HETATM   19  C   UNL     1      -9.071  11.801  67.702  1.00  0.00    -0.177 C  
BRANCH  17  20
HETATM   20  C   UNL     1     -10.689  14.328  68.820  1.00  0.00    -0.262 C  
HETATM   21  C   UNL     1     -10.720  15.043  67.688  1.00  0.00    -0.274 C  
HETATM   22  C   UNL     1     -11.028  14.663  66.262  1.00  0.00    -0.327 C  
HETATM   23  N   UNL     1     -10.890  15.841  65.536  1.00  0.00    -0.346 N  
HETATM   24  O   UNL     1     -11.330  13.570  65.827  1.00  0.00    -0.302 OA 
HETATM   25  C   UNL     1     -10.531  16.908  66.353  1.00  0.00    -0.252 A  
HETATM   26  H   UNL     1     -11.034  15.913  64.528  1.00  0.00     0.000 HD 
HETATM   27  C   UNL     1     -10.414  16.485  67.680  1.00  0.00    -0.305 A  
HETATM   28  C   UNL     1     -10.069  17.381  68.678  1.00  0.00    -0.355 A  
HETATM   29  C   UNL     1      -9.841  18.703  68.308  1.00  0.00    -0.371 A  
HETATM   30  F   UNL     1      -9.502  19.592  69.250  1.00  0.00    -0.422 F  
HETATM   31  C   UNL     1      -9.953  19.125  66.976  1.00  0.00    -0.423 A  
HETATM   32  C   UNL     1     -10.306  18.218  65.973  1.00  0.00    -0.377 A  
ENDBRANCH  17  20
ENDBRANCH   9  12
ENDBRANCH   7   8
ENDBRANCH   6   7
ENDBRANCH   3   6
ENDBRANCH   2   3
TORSDOF 7
ENDMDL
MODEL       60
REMARK 921   NORMALIZED FREE ENERGY PREDICTED BY IDOCK:   -5.64 KCAL/MOL
REMARK 922        TOTAL FREE ENERGY PREDICTED BY IDOCK:   -9.03 KCAL/MOL
REMARK 923 INTER-LIGAND FREE ENERGY PREDICTED BY IDOCK:   -8.02 KCAL/MOL
REMARK 924 INTRA-LIGAND FREE ENERGY PREDICTED BY IDOCK:   -1.01 KCAL/MOL
REMARK 927      BINDING AFFINITY PREDICTED BY RF-SCORE:    0.00 PKD
ROOT
HETATM    1  C   UNL     1     -10.390   7.049  73.240  1.00  0.00    -0.343 C  
HETATM    2  C   UNL     1     -11.287   7.043  72.005  1.00  0.00    -0.264 C  
ENDROOT
BRANCH   2   3
HETATM    3  N   UNL     1     -11.621   8.374  71.472  1.00  0.00    -0.270 NA 
BRANCH   3   4
HETATM    4  C   UNL     1     -12.760   9.020  72.154  1.00  0.00    -0.401 C  
HETATM    5  C   UNL     1     -13.029  10.484  71.800  1.00  0.00    -0.582 C  
ENDBRANCH   3   4
BRANCH   3   6
HETATM    6  C   UNL     1     -10.438   9.269  71.470  1.00  0.00    -0.315 C  
BRANCH   6   7
HETATM    7  C   UNL     1      -9.603   9.276  70.176  1.00  0.00    -0.220 C  
BRANCH   7   8
HETATM    8  N   UNL     1      -9.756  10.502  69.428  1.00  0.00    -0.349 N  
HETATM    9  C   UNL     1      -8.905  10.814  68.398  1.00  0.00    -0.146 C  
HETATM   10  H   UNL     1     -10.509  11.146  69.669  1.00  0.00     0.000 HD 
HETATM   11  O   UNL     1      -7.993  10.065  68.054  1.00  0.00    -0.100 OA 
BRANCH   9  12
HETATM   12  C   UNL     1      -9.178  12.080  67.711  1.00  0.00    -0.190 A  
HETATM   13  C   UNL     1     -10.199  12.384  66.817  1.00  0.00    -0.219 A  
HETATM   14  C   UNL     1     -11.343  11.600  66.273  1.00  0.00    -0.293 C  
HETATM   15  N   UNL     1     -10.066  13.710  66.462  1.00  0.00    -0.279 NA 
HETATM   16  H   UNL     1     -10.666  14.194  65.794  1.00  0.00     0.000 HD 
HETATM   17  C   UNL     1      -9.020  14.290  67.126  1.00  0.00    -0.225 A  
HETATM   18  C   UNL     1      -8.441  13.304  67.914  1.00  0.00    -0.177 A  
HETATM   19  C   UNL     1      -7.265  13.454  68.827  1.00  0.00    -0.092 C  
BRANCH  17  20
HETATM   20  C   UNL     1      -8.674  15.659  66.982  1.00  0.00    -0.256 C  
HETATM   21  C   UNL     1      -9.322  16.767  67.364  1.00  0.00    -0.233 C  
HETATM   22  C   UNL     1     -10.640  16.974  68.066  1.00  0.00    -0.373 C  
HETATM   23  N   UNL     1     -10.777  18.353  68.180  1.00  0.00    -0.303 N  
HETATM   24  O   UNL     1     -11.424  16.130  68.451  1.00  0.00    -0.369 OA 
HETATM   25  C   UNL     1      -9.690  19.023  67.627  1.00  0.00    -0.315 A  
HETATM   26  H   UNL     1     -11.575  18.816  68.615  1.00  0.00     0.000 HD 
HETATM   27  C   UNL     1      -8.765  18.109  67.115  1.00  0.00    -0.249 A  
HETATM   28  C   UNL     1      -7.596  18.549  66.518  1.00  0.00    -0.270 A  
HETATM   29  C   UNL     1      -7.385  19.922  66.445  1.00  0.00    -0.272 A  
HETATM   30  F   UNL     1      -6.265  20.378  65.870  1.00  0.00    -0.203 F  
HETATM   31  C   UNL     1      -8.315  20.838  66.955  1.00  0.00    -0.181 A  
HETATM   32  C   UNL     1      -9.492  20.390  67.561  1.00  0.00    -0.532 A  
ENDBRANCH  17  20
ENDBRANCH   9  12
ENDBRANCH   7   8
ENDBRANCH   6   7
ENDBRANCH   3   6
ENDBRANCH   2   3
TORSDOF 7
ENDMDL
MODEL       61
REMARK 921   NORMALIZED FREE ENERGY PREDICTED BY IDOCK:   -5.61 KCAL/MOL
REMARK 922        TOTAL FREE ENERGY PREDICTED BY IDOCK:   -9.00 KCAL/MOL
REMARK 923 INTER-LIGAND FREE ENERGY PREDICTED BY IDOCK:   -7.95 KCAL/MOL
REMARK 924 INTRA-LIGAND FREE ENERGY PREDICTED BY IDOCK:   -1.05 KCAL/MOL
REMARK 927      BINDING AFFINITY PREDICTED BY RF-SCORE:    0.00 PKD
ROOT
HETATM    1  C   UNL     1     -11.737  15.719  68.766  1.00  0.00    -0.387 C  
HETATM    2  C   UNL     1     -10.956  16.281  67.582  1.00  0.00    -0.245 C  
ENDROOT
BRANCH   2   3
HETATM    3  N   UNL     1      -9.646  16.863  67.922  1.00  0.00    -0.240 NA 
BRANCH   3   4
HETATM    4  C   UNL     1      -9.678  18.326  68.119  1.00  0.00    -0.327 C  
HETATM    5  C   UNL     1     -10.723  19.103  67.315  1.00  0.00    -0.585 C  
ENDBRANCH   3   4
BRANCH   3   6
HETATM    6  C   UNL     1      -9.043  16.191  69.098  1.00  0.00    -0.243 C  
BRANCH   6   7
HETATM    7  C   UNL     1      -8.150  14.974  68.792  1.00  0.00    -0.166 C  
BRANCH   7   8
HETATM    8  N   UNL     1      -8.858  13.723  68.936  1.00  0.00    -0.380 N  
HETATM    9  C   UNL     1      -8.656  12.690  68.056  1.00  0.00    -0.189 C  
HETATM   10  H   UNL     1      -9.519  13.605  69.704  1.00  0.00     0.000 HD 
HETATM   11  O   UNL     1      -7.858  12.772  67.125  1.00  0.00    -0.161 OA 
BRANCH   9  12
HETATM   12  C   UNL     1      -9.424  11.470  68.321  1.00  0.00    -0.189 A  
HETATM   13  C   UNL     1     -10.669  11.100  67.822  1.00  0.00    -0.222 A  
HETATM   14  C   UNL     1     -11.620  11.745  66.875  1.00  0.00    -0.310 C  
HETATM   15  N   UNL     1     -10.969   9.852  68.327  1.00  0.00    -0.415 NA 
HETATM   16  H   UNL     1     -11.837   9.348  68.148  1.00  0.00     0.000 HD 
HETATM   17  C   UNL     1      -9.945   9.379  69.102  1.00  0.00    -0.182 A  
HETATM   18  C   UNL     1      -8.963  10.362  69.122  1.00  0.00    -0.188 A  
HETATM   19  C   UNL     1      -7.648  10.309  69.834  1.00  0.00    -0.153 C  
BRANCH  17  20
HETATM   20  C   UNL     1      -9.965   8.103  69.720  1.00  0.00    -0.191 C  
HETATM   21  C   UNL     1     -10.571   7.686  70.840  1.00  0.00    -0.219 C  
HETATM   22  C   UNL     1     -11.431   8.404  71.849  1.00  0.00    -0.318 C  
HETATM   23  N   UNL     1     -11.757   7.440  72.797  1.00  0.00    -0.560 N  
HETATM   24  O   UNL     1     -11.770   9.570  71.849  1.00  0.00    -0.374 OA 
HETATM   25  C   UNL     1     -11.196   6.205  72.487  1.00  0.00    -0.287 A  
HETATM   26  H   UNL     1     -12.337   7.616  73.618  1.00  0.00     0.000 HD 
HETATM   27  C   UNL     1     -10.461   6.290  71.301  1.00  0.00    -0.264 A  
HETATM   28  C   UNL     1      -9.814   5.177  70.791  1.00  0.00    -0.270 A  
HETATM   29  C   UNL     1      -9.919   3.987  71.504  1.00  0.00    -0.150 A  
HETATM   30  F   UNL     1      -9.302   2.894  71.038  1.00  0.00    -0.164 F  
HETATM   31  C   UNL     1     -10.653   3.903  72.695  1.00  0.00    -0.170 A  
HETATM   32  C   UNL     1     -11.308   5.028  73.204  1.00  0.00    -0.397 A  
ENDBRANCH  17  20
ENDBRANCH   9  12
ENDBRANCH   7   8
ENDBRANCH   6   7
ENDBRANCH   3   6
ENDBRANCH   2   3
TORSDOF 7
ENDMDL
MODEL       62
REMARK 921   NORMALIZED FREE ENERGY PREDICTED BY IDOCK:   -5.61 KCAL/MOL
REMARK 922        TOTAL FREE ENERGY PREDICTED BY IDOCK:   -9.00 KCAL/MOL
REMARK 923 INTER-LIGAND FREE ENERGY PREDICTED BY IDOCK:   -7.86 KCAL/MOL
REMARK 924 INTRA-LIGAND FREE ENERGY PREDICTED BY IDOCK:   -1.14 KCAL/MOL
REMARK 927      BINDING AFFINITY PREDICTED BY RF-SCORE:    0.00 PKD
ROOT
HETATM    1  C   UNL     1      -8.129  16.842  68.810  1.00  0.00    -0.252 C  
HETATM    2  C   UNL     1      -8.337  15.397  69.254  1.00  0.00    -0.254 C  
ENDROOT
BRANCH   2   3
HETATM    3  N   UNL     1      -7.984  14.381  68.248  1.00  0.00    -0.131 NA 
BRANCH   3   4
HETATM    4  C   UNL     1      -6.971  13.411  68.711  1.00  0.00    -0.103 C  
HETATM    5  C   UNL     1      -7.298  11.931  68.506  1.00  0.00    -0.111 C  
ENDBRANCH   3   4
BRANCH   3   6
HETATM    6  C   UNL     1      -9.188  13.678  67.742  1.00  0.00    -0.214 C  
BRANCH   6   7
HETATM    7  C   UNL     1     -10.504  13.983  68.480  1.00  0.00    -0.249 C  
BRANCH   7   8
HETATM    8  N   UNL     1     -10.809  12.996  69.491  1.00  0.00    -0.443 N  
HETATM    9  C   UNL     1     -11.630  11.931  69.215  1.00  0.00    -0.315 C  
HETATM   10  H   UNL     1     -10.409  13.093  70.424  1.00  0.00     0.000 HD 
HETATM   11  O   UNL     1     -12.123  11.757  68.103  1.00  0.00    -0.556 OA 
BRANCH   9  12
HETATM   12  C   UNL     1     -11.849  10.995  70.322  1.00  0.00    -0.456 A  
HETATM   13  C   UNL     1     -12.615  11.168  71.470  1.00  0.00    -0.325 A  
HETATM   14  C   UNL     1     -13.468  12.283  71.967  1.00  0.00    -0.418 C  
HETATM   15  N   UNL     1     -12.544  10.001  72.201  1.00  0.00    -0.283 NA 
HETATM   16  H   UNL     1     -12.991   9.857  73.107  1.00  0.00     0.000 HD 
HETATM   17  C   UNL     1     -11.794   9.060  71.549  1.00  0.00    -0.345 A  
HETATM   18  C   UNL     1     -11.342   9.645  70.373  1.00  0.00    -0.337 A  
HETATM   19  C   UNL     1     -10.486   9.011  69.322  1.00  0.00    -0.238 C  
BRANCH  17  20
HETATM   20  C   UNL     1     -11.582   7.751  72.053  1.00  0.00    -0.347 C  
HETATM   21  C   UNL     1     -10.489   7.188  72.584  1.00  0.00    -0.269 C  
HETATM   22  C   UNL     1      -9.099   7.717  72.831  1.00  0.00    -0.197 C  
HETATM   23  N   UNL     1      -8.403   6.657  73.401  1.00  0.00    -0.118 N  
HETATM   24  O   UNL     1      -8.666   8.825  72.587  1.00  0.00    -0.408 OA 
HETATM   25  C   UNL     1      -9.208   5.530  73.536  1.00  0.00    -0.130 A  
HETATM   26  H   UNL     1      -7.425   6.700  73.686  1.00  0.00     0.000 HD 
HETATM   27  C   UNL     1     -10.495   5.792  73.057  1.00  0.00    -0.248 A  
HETATM   28  C   UNL     1     -11.473   4.813  73.095  1.00  0.00    -0.348 A  
HETATM   29  C   UNL     1     -11.125   3.572  73.617  1.00  0.00    -0.221 A  
HETATM   30  F   UNL     1     -12.049   2.603  73.663  1.00  0.00    -0.288 F  
HETATM   31  C   UNL     1      -9.834   3.308  74.093  1.00  0.00    -0.159 A  
HETATM   32  C   UNL     1      -8.850   4.301  74.057  1.00  0.00    -0.095 A  
ENDBRANCH  17  20
ENDBRANCH   9  12
ENDBRANCH   7   8
ENDBRANCH   6   7
ENDBRANCH   3   6
ENDBRANCH   2   3
TORSDOF 7
ENDMDL
MODEL       63
REMARK 921   NORMALIZED FREE ENERGY PREDICTED BY IDOCK:   -5.61 KCAL/MOL
REMARK 922        TOTAL FREE ENERGY PREDICTED BY IDOCK:   -8.99 KCAL/MOL
REMARK 923 INTER-LIGAND FREE ENERGY PREDICTED BY IDOCK:   -7.97 KCAL/MOL
REMARK 924 INTRA-LIGAND FREE ENERGY PREDICTED BY IDOCK:   -1.03 KCAL/MOL
REMARK 927      BINDING AFFINITY PREDICTED BY RF-SCORE:    0.00 PKD
ROOT
HETATM    1  C   UNL     1      -9.646   4.394  69.514  1.00  0.00    -0.271 C  
HETATM    2  C   UNL     1     -10.095   5.397  70.573  1.00  0.00    -0.236 C  
ENDROOT
BRANCH   2   3
HETATM    3  N   UNL     1     -10.778   6.591  70.048  1.00  0.00    -0.227 NA 
BRANCH   3   4
HETATM    4  C   UNL     1     -11.167   7.561  71.091  1.00  0.00    -0.257 C  
HETATM    5  C   UNL     1     -12.566   7.399  71.689  1.00  0.00    -0.391 C  
ENDBRANCH   3   4
BRANCH   3   6
HETATM    6  C   UNL     1      -9.975   7.254  68.991  1.00  0.00    -0.177 C  
BRANCH   6   7
HETATM    7  C   UNL     1     -10.760   8.144  68.010  1.00  0.00    -0.044 C  
BRANCH   7   8
HETATM    8  N   UNL     1     -10.210   9.477  67.915  1.00  0.00    -0.192 N  
HETATM    9  C   UNL     1      -9.935  10.044  66.696  1.00  0.00    -0.216 C  
HETATM   10  H   UNL     1     -10.022  10.005  68.768  1.00  0.00     0.000 HD 
HETATM   11  O   UNL     1     -10.159   9.459  65.638  1.00  0.00    -0.261 OA 
BRANCH   9  12
HETATM   12  C   UNL     1      -9.393  11.405  66.737  1.00  0.00    -0.192 A  
HETATM   13  C   UNL     1      -8.066  11.812  66.836  1.00  0.00    -0.160 A  
HETATM   14  C   UNL     1      -6.776  11.071  66.907  1.00  0.00    -0.120 C  
HETATM   15  N   UNL     1      -8.046  13.191  66.803  1.00  0.00    -0.397 NA 
HETATM   16  H   UNL     1      -7.203  13.759  66.887  1.00  0.00     0.000 HD 
HETATM   17  C   UNL     1      -9.308  13.694  66.644  1.00  0.00    -0.254 A  
HETATM   18  C   UNL     1     -10.175  12.609  66.600  1.00  0.00    -0.246 A  
HETATM   19  C   UNL     1     -11.662  12.650  66.433  1.00  0.00    -0.466 C  
BRANCH  17  20
HETATM   20  C   UNL     1      -9.583  15.082  66.541  1.00  0.00    -0.299 C  
HETATM   21  C   UNL     1      -9.246  16.099  67.345  1.00  0.00    -0.213 C  
HETATM   22  C   UNL     1      -8.475  16.150  68.639  1.00  0.00    -0.216 C  
HETATM   23  N   UNL     1      -8.462  17.493  69.000  1.00  0.00    -0.116 N  
HETATM   24  O   UNL     1      -7.973  15.227  69.248  1.00  0.00    -0.193 OA 
HETATM   25  C   UNL     1      -9.137  18.280  68.072  1.00  0.00    -0.290 A  
HETATM   26  H   UNL     1      -8.011  17.857  69.840  1.00  0.00     0.000 HD 
HETATM   27  C   UNL     1      -9.637  17.486  67.035  1.00  0.00    -0.268 A  
HETATM   28  C   UNL     1     -10.344  18.056  65.990  1.00  0.00    -0.333 A  
HETATM   29  C   UNL     1     -10.540  19.433  66.017  1.00  0.00    -0.480 A  
HETATM   30  F   UNL     1     -11.223  20.013  65.022  1.00  0.00    -0.451 F  
HETATM   31  C   UNL     1     -10.042  20.227  67.059  1.00  0.00    -0.567 A  
HETATM   32  C   UNL     1      -9.324  19.649  68.110  1.00  0.00    -0.433 A  
ENDBRANCH  17  20
ENDBRANCH   9  12
ENDBRANCH   7   8
ENDBRANCH   6   7
ENDBRANCH   3   6
ENDBRANCH   2   3
TORSDOF 7
ENDMDL
MODEL       64
REMARK 921   NORMALIZED FREE ENERGY PREDICTED BY IDOCK:   -5.61 KCAL/MOL
REMARK 922        TOTAL FREE ENERGY PREDICTED BY IDOCK:   -8.99 KCAL/MOL
REMARK 923 INTER-LIGAND FREE ENERGY PREDICTED BY IDOCK:   -8.04 KCAL/MOL
REMARK 924 INTRA-LIGAND FREE ENERGY PREDICTED BY IDOCK:   -0.95 KCAL/MOL
REMARK 927      BINDING AFFINITY PREDICTED BY RF-SCORE:    0.00 PKD
ROOT
HETATM    1  C   UNL     1     -12.484  15.813  74.270  1.00  0.00    -0.800 C  
HETATM    2  C   UNL     1     -12.281  16.105  72.787  1.00  0.00    -0.531 C  
ENDROOT
BRANCH   2   3
HETATM    3  N   UNL     1     -12.633  14.998  71.881  1.00  0.00    -0.315 NA 
BRANCH   3   4
HETATM    4  C   UNL     1     -13.550  14.008  72.481  1.00  0.00    -0.566 C  
HETATM    5  C   UNL     1     -13.325  12.545  72.094  1.00  0.00    -0.540 C  
ENDBRANCH   3   4
BRANCH   3   6
HETATM    6  C   UNL     1     -13.175  15.501  70.595  1.00  0.00    -0.241 C  
BRANCH   6   7
HETATM    7  C   UNL     1     -12.156  15.659  69.453  1.00  0.00    -0.266 C  
BRANCH   7   8
HETATM    8  N   UNL     1     -12.038  14.462  68.651  1.00  0.00    -0.541 N  
HETATM    9  C   UNL     1     -11.117  14.377  67.637  1.00  0.00    -0.300 C  
HETATM   10  H   UNL     1     -12.648  13.668  68.842  1.00  0.00     0.000 HD 
HETATM   11  O   UNL     1     -10.345  15.298  67.377  1.00  0.00    -0.249 OA 
BRANCH   9  12
HETATM   12  C   UNL     1     -11.090  13.105  66.909  1.00  0.00    -0.308 A  
HETATM   13  C   UNL     1     -11.418  12.854  65.581  1.00  0.00    -0.332 A  
HETATM   14  C   UNL     1     -11.868  13.726  64.461  1.00  0.00    -0.445 C  
HETATM   15  N   UNL     1     -11.204  11.513  65.342  1.00  0.00    -0.199 NA 
HETATM   16  H   UNL     1     -11.390  11.046  64.455  1.00  0.00     0.000 HD 
HETATM   17  C   UNL     1     -10.707  10.892  66.456  1.00  0.00    -0.209 A  
HETATM   18  C   UNL     1     -10.623  11.853  67.454  1.00  0.00    -0.257 A  
HETATM   19  C   UNL     1     -10.133  11.658  68.855  1.00  0.00    -0.109 C  
BRANCH  17  20
HETATM   20  C   UNL     1     -10.359   9.517  66.486  1.00  0.00    -0.263 C  
HETATM   21  C   UNL     1      -9.162   8.919  66.418  1.00  0.00    -0.240 C  
HETATM   22  C   UNL     1      -7.766   9.469  66.277  1.00  0.00    -0.101 C  
HETATM   23  N   UNL     1      -6.937   8.352  66.257  1.00  0.00    -0.072 N  
HETATM   24  O   UNL     1      -7.424  10.631  66.193  1.00  0.00    -0.130 OA 
HETATM   25  C   UNL     1      -7.665   7.172  66.372  1.00  0.00    -0.100 A  
HETATM   26  H   UNL     1      -5.922   8.393  66.170  1.00  0.00     0.000 HD 
HETATM   27  C   UNL     1      -9.030   7.452  66.477  1.00  0.00    -0.184 A  
HETATM   28  C   UNL     1      -9.952   6.427  66.607  1.00  0.00    -0.207 A  
HETATM   29  C   UNL     1      -9.469   5.122  66.622  1.00  0.00    -0.144 A  
HETATM   30  F   UNL     1     -10.336   4.109  66.743  1.00  0.00    -0.213 F  
HETATM   31  C   UNL     1      -8.100   4.842  66.512  1.00  0.00    -0.107 A  
HETATM   32  C   UNL     1      -7.172   5.880  66.386  1.00  0.00    -0.077 A  
ENDBRANCH  17  20
ENDBRANCH   9  12
ENDBRANCH   7   8
ENDBRANCH   6   7
ENDBRANCH   3   6
ENDBRANCH   2   3
TORSDOF 7
ENDMDL
MODEL       65
REMARK 921   NORMALIZED FREE ENERGY PREDICTED BY IDOCK:   -5.59 KCAL/MOL
REMARK 922        TOTAL FREE ENERGY PREDICTED BY IDOCK:   -8.96 KCAL/MOL
REMARK 923 INTER-LIGAND FREE ENERGY PREDICTED BY IDOCK:   -8.35 KCAL/MOL
REMARK 924 INTRA-LIGAND FREE ENERGY PREDICTED BY IDOCK:   -0.61 KCAL/MOL
REMARK 927      BINDING AFFINITY PREDICTED BY RF-SCORE:    0.00 PKD
ROOT
HETATM    1  C   UNL     1     -11.412   6.384  69.955  1.00  0.00    -0.483 C  
HETATM    2  C   UNL     1     -10.981   7.847  69.973  1.00  0.00    -0.207 C  
ENDROOT
BRANCH   2   3
HETATM    3  N   UNL     1     -11.241   8.556  71.237  1.00  0.00    -0.252 NA 
BRANCH   3   4
HETATM    4  C   UNL     1     -10.196   8.349  72.261  1.00  0.00    -0.326 C  
HETATM    5  C   UNL     1     -10.545   7.407  73.414  1.00  0.00    -0.427 C  
ENDBRANCH   3   4
BRANCH   3   6
HETATM    6  C   UNL     1     -11.471  10.003  71.011  1.00  0.00    -0.383 C  
BRANCH   6   7
HETATM    7  C   UNL     1     -11.553  10.448  69.539  1.00  0.00    -0.219 C  
BRANCH   7   8
HETATM    8  N   UNL     1     -11.172  11.830  69.360  1.00  0.00    -0.367 N  
HETATM    9  C   UNL     1     -11.508  12.516  68.220  1.00  0.00    -0.308 C  
HETATM   10  H   UNL     1     -10.643  12.304  70.093  1.00  0.00     0.000 HD 
HETATM   11  O   UNL     1     -12.160  11.999  67.315  1.00  0.00    -0.572 OA 
BRANCH   9  12
HETATM   12  C   UNL     1     -11.074  13.915  68.169  1.00  0.00    -0.278 A  
HETATM   13  C   UNL     1     -11.517  14.993  68.928  1.00  0.00    -0.314 A  
HETATM   14  C   UNL     1     -12.516  15.125  70.024  1.00  0.00    -0.316 C  
HETATM   15  N   UNL     1     -10.790  16.102  68.546  1.00  0.00    -0.296 NA 
HETATM   16  H   UNL     1     -10.926  17.040  68.921  1.00  0.00     0.000 HD 
HETATM   17  C   UNL     1      -9.861  15.774  67.597  1.00  0.00    -0.232 A  
HETATM   18  C   UNL     1     -10.008  14.417  67.335  1.00  0.00    -0.242 A  
HETATM   19  C   UNL     1      -9.214  13.594  66.370  1.00  0.00    -0.142 C  
BRANCH  17  20
HETATM   20  C   UNL     1      -8.948  16.711  67.048  1.00  0.00    -0.227 C  
HETATM   21  C   UNL     1      -8.627  17.950  67.444  1.00  0.00    -0.239 C  
HETATM   22  C   UNL     1      -9.112  18.800  68.591  1.00  0.00    -0.330 C  
HETATM   23  N   UNL     1      -8.412  19.996  68.476  1.00  0.00    -0.117 N  
HETATM   24  O   UNL     1      -9.936  18.517  69.437  1.00  0.00    -0.176 OA 
HETATM   25  C   UNL     1      -7.547  19.981  67.386  1.00  0.00    -0.281 A  
HETATM   26  H   UNL     1      -8.519  20.786  69.112  1.00  0.00     0.000 HD 
HETATM   27  C   UNL     1      -7.631  18.757  66.717  1.00  0.00    -0.243 A  
HETATM   28  C   UNL     1      -6.853  18.510  65.598  1.00  0.00    -0.279 A  
HETATM   29  C   UNL     1      -6.000  19.522  65.170  1.00  0.00    -0.235 A  
HETATM   30  F   UNL     1      -5.237  19.315  64.088  1.00  0.00    -0.180 F  
HETATM   31  C   UNL     1      -5.919  20.751  65.838  1.00  0.00    -0.269 A  
HETATM   32  C   UNL     1      -6.703  20.994  66.970  1.00  0.00    -0.409 A  
ENDBRANCH  17  20
ENDBRANCH   9  12
ENDBRANCH   7   8
ENDBRANCH   6   7
ENDBRANCH   3   6
ENDBRANCH   2   3
TORSDOF 7
ENDMDL
MODEL       66
REMARK 921   NORMALIZED FREE ENERGY PREDICTED BY IDOCK:   -5.56 KCAL/MOL
REMARK 922        TOTAL FREE ENERGY PREDICTED BY IDOCK:   -8.92 KCAL/MOL
REMARK 923 INTER-LIGAND FREE ENERGY PREDICTED BY IDOCK:   -7.87 KCAL/MOL
REMARK 924 INTRA-LIGAND FREE ENERGY PREDICTED BY IDOCK:   -1.05 KCAL/MOL
REMARK 927      BINDING AFFINITY PREDICTED BY RF-SCORE:    0.00 PKD
ROOT
HETATM    1  C   UNL     1     -11.660   7.674  72.266  1.00  0.00    -0.370 C  
HETATM    2  C   UNL     1     -11.536   6.241  71.756  1.00  0.00    -0.304 C  
ENDROOT
BRANCH   2   3
HETATM    3  N   UNL     1     -10.577   6.055  70.653  1.00  0.00    -0.244 NA 
BRANCH   3   4
HETATM    4  C   UNL     1      -9.829   4.784  70.724  1.00  0.00    -0.210 C  
HETATM    5  C   UNL     1      -8.310   4.891  70.871  1.00  0.00    -0.108 C  
ENDBRANCH   3   4
BRANCH   3   6
HETATM    6  C   UNL     1     -11.235   6.200  69.332  1.00  0.00    -0.396 C  
BRANCH   6   7
HETATM    7  C   UNL     1     -10.442   6.983  68.270  1.00  0.00    -0.202 C  
BRANCH   7   8
HETATM    8  N   UNL     1     -10.715   8.401  68.313  1.00  0.00    -0.433 N  
HETATM    9  C   UNL     1      -9.916   9.254  69.033  1.00  0.00    -0.182 C  
HETATM   10  H   UNL     1     -11.514   8.775  67.801  1.00  0.00     0.000 HD 
HETATM   11  O   UNL     1      -8.931   8.859  69.653  1.00  0.00    -0.140 OA 
BRANCH   9  12
HETATM   12  C   UNL     1     -10.293  10.669  68.984  1.00  0.00    -0.237 A  
HETATM   13  C   UNL     1     -11.377  11.304  69.582  1.00  0.00    -0.287 A  
HETATM   14  C   UNL     1     -12.479  10.824  70.461  1.00  0.00    -0.447 C  
HETATM   15  N   UNL     1     -11.296  12.647  69.281  1.00  0.00    -0.359 NA 
HETATM   16  H   UNL     1     -11.980  13.347  69.569  1.00  0.00     0.000 HD 
HETATM   17  C   UNL     1     -10.174  12.916  68.545  1.00  0.00    -0.205 A  
HETATM   18  C   UNL     1      -9.524  11.706  68.339  1.00  0.00    -0.193 A  
HETATM   19  C   UNL     1      -8.247  11.485  67.590  1.00  0.00    -0.131 C  
BRANCH  17  20
HETATM   20  C   UNL     1      -9.817  14.223  68.125  1.00  0.00    -0.226 C  
HETATM   21  C   UNL     1     -10.128  15.420  68.641  1.00  0.00    -0.212 C  
HETATM   22  C   UNL     1     -10.964  15.820  69.829  1.00  0.00    -0.316 C  
HETATM   23  N   UNL     1     -10.919  17.210  69.852  1.00  0.00    -0.236 N  
HETATM   24  O   UNL     1     -11.557  15.098  70.605  1.00  0.00    -0.267 OA 
HETATM   25  C   UNL     1     -10.147  17.715  68.810  1.00  0.00    -0.377 A  
HETATM   26  H   UNL     1     -11.392  17.788  70.547  1.00  0.00     0.000 HD 
HETATM   27  C   UNL     1      -9.634  16.670  68.036  1.00  0.00    -0.225 A  
HETATM   28  C   UNL     1      -8.828  16.934  66.942  1.00  0.00    -0.248 A  
HETATM   29  C   UNL     1      -8.559  18.266  66.644  1.00  0.00    -0.273 A  
HETATM   30  F   UNL     1      -7.786  18.554  65.589  1.00  0.00    -0.226 F  
HETATM   31  C   UNL     1      -9.078  19.314  67.418  1.00  0.00    -0.345 A  
HETATM   32  C   UNL     1      -9.887  19.042  68.525  1.00  0.00    -0.473 A  
ENDBRANCH  17  20
ENDBRANCH   9  12
ENDBRANCH   7   8
ENDBRANCH   6   7
ENDBRANCH   3   6
ENDBRANCH   2   3
TORSDOF 7
ENDMDL
MODEL       67
REMARK 921   NORMALIZED FREE ENERGY PREDICTED BY IDOCK:   -5.54 KCAL/MOL
REMARK 922        TOTAL FREE ENERGY PREDICTED BY IDOCK:   -8.90 KCAL/MOL
REMARK 923 INTER-LIGAND FREE ENERGY PREDICTED BY IDOCK:   -8.07 KCAL/MOL
REMARK 924 INTRA-LIGAND FREE ENERGY PREDICTED BY IDOCK:   -0.83 KCAL/MOL
REMARK 927      BINDING AFFINITY PREDICTED BY RF-SCORE:    0.00 PKD
ROOT
HETATM    1  C   UNL     1      -8.867   3.599  70.966  1.00  0.00    -0.136 C  
HETATM    2  C   UNL     1      -9.065   5.010  71.511  1.00  0.00    -0.140 C  
ENDROOT
BRANCH   2   3
HETATM    3  N   UNL     1     -10.197   5.748  70.925  1.00  0.00    -0.205 NA 
BRANCH   3   4
HETATM    4  C   UNL     1     -11.312   5.975  71.866  1.00  0.00    -0.279 C  
HETATM    5  C   UNL     1     -11.252   5.216  73.193  1.00  0.00    -0.398 C  
ENDBRANCH   3   4
BRANCH   3   6
HETATM    6  C   UNL     1      -9.755   7.029  70.322  1.00  0.00    -0.175 C  
BRANCH   6   7
HETATM    7  C   UNL     1     -10.851   8.092  70.122  1.00  0.00    -0.242 C  
BRANCH   7   8
HETATM    8  N   UNL     1     -10.319   9.351  69.654  1.00  0.00    -0.205 N  
HETATM    9  C   UNL     1     -10.384   9.698  68.328  1.00  0.00    -0.204 C  
HETATM   10  H   UNL     1      -9.886   9.991  70.319  1.00  0.00     0.000 HD 
HETATM   11  O   UNL     1     -10.911   8.972  67.487  1.00  0.00    -0.232 OA 
BRANCH   9  12
HETATM   12  C   UNL     1      -9.821  11.007  67.986  1.00  0.00    -0.183 A  
HETATM   13  C   UNL     1      -8.723  11.301  67.184  1.00  0.00    -0.151 A  
HETATM   14  C   UNL     1      -7.780  10.456  66.399  1.00  0.00    -0.125 C  
HETATM   15  N   UNL     1      -8.597  12.673  67.130  1.00  0.00    -0.196 NA 
HETATM   16  H   UNL     1      -7.856  13.167  66.632  1.00  0.00     0.000 HD 
HETATM   17  C   UNL     1      -9.599  13.283  67.833  1.00  0.00    -0.217 A  
HETATM   18  C   UNL     1     -10.382  12.276  68.383  1.00  0.00    -0.231 A  
HETATM   19  C   UNL     1     -11.601  12.445  69.234  1.00  0.00    -0.379 C  
BRANCH  17  20
HETATM   20  C   UNL     1      -9.739  14.693  67.919  1.00  0.00    -0.216 C  
HETATM   21  C   UNL     1     -10.073  15.594  66.986  1.00  0.00    -0.253 C  
HETATM   22  C   UNL     1     -10.409  15.455  65.523  1.00  0.00    -0.387 C  
HETATM   23  N   UNL     1     -10.664  16.750  65.085  1.00  0.00    -0.250 N  
HETATM   24  O   UNL     1     -10.449  14.440  64.857  1.00  0.00    -0.415 OA 
HETATM   25  C   UNL     1     -10.524  17.676  66.115  1.00  0.00    -0.295 A  
HETATM   26  H   UNL     1     -10.921  16.991  64.128  1.00  0.00     0.000 HD 
HETATM   27  C   UNL     1     -10.167  17.031  67.302  1.00  0.00    -0.310 A  
HETATM   28  C   UNL     1      -9.977  17.754  68.467  1.00  0.00    -0.370 A  
HETATM   29  C   UNL     1     -10.149  19.133  68.406  1.00  0.00    -0.418 A  
HETATM   30  F   UNL     1      -9.969  19.861  69.516  1.00  0.00    -0.461 F  
HETATM   31  C   UNL     1     -10.502  19.780  67.214  1.00  0.00    -0.579 A  
HETATM   32  C   UNL     1     -10.697  19.045  66.041  1.00  0.00    -0.417 A  
ENDBRANCH  17  20
ENDBRANCH   9  12
ENDBRANCH   7   8
ENDBRANCH   6   7
ENDBRANCH   3   6
ENDBRANCH   2   3
TORSDOF 7
ENDMDL
MODEL       68
REMARK 921   NORMALIZED FREE ENERGY PREDICTED BY IDOCK:   -5.51 KCAL/MOL
REMARK 922        TOTAL FREE ENERGY PREDICTED BY IDOCK:   -8.85 KCAL/MOL
REMARK 923 INTER-LIGAND FREE ENERGY PREDICTED BY IDOCK:   -7.69 KCAL/MOL
REMARK 924 INTRA-LIGAND FREE ENERGY PREDICTED BY IDOCK:   -1.16 KCAL/MOL
REMARK 927      BINDING AFFINITY PREDICTED BY RF-SCORE:    0.00 PKD
ROOT
HETATM    1  C   UNL     1      -9.459  10.019  64.557  1.00  0.00    -0.359 C  
HETATM    2  C   UNL     1      -8.553   9.281  65.538  1.00  0.00    -0.152 C  
ENDROOT
BRANCH   2   3
HETATM    3  N   UNL     1      -9.068   7.980  66.000  1.00  0.00    -0.167 NA 
BRANCH   3   4
HETATM    4  C   UNL     1      -8.323   6.822  65.465  1.00  0.00    -0.142 C  
HETATM    5  C   UNL     1      -6.940   7.110  64.877  1.00  0.00    -0.055 C  
ENDBRANCH   3   4
BRANCH   3   6
HETATM    6  C   UNL     1      -9.137   7.918  67.480  1.00  0.00    -0.133 C  
BRANCH   6   7
HETATM    7  C   UNL     1     -10.533   8.120  68.096  1.00  0.00    -0.170 C  
BRANCH   7   8
HETATM    8  N   UNL     1     -10.904   9.514  68.173  1.00  0.00    -0.430 N  
HETATM    9  C   UNL     1     -10.460  10.310  69.199  1.00  0.00    -0.224 C  
HETATM   10  H   UNL     1     -11.507   9.914  67.453  1.00  0.00     0.000 HD 
HETATM   11  O   UNL     1      -9.718   9.884  70.081  1.00  0.00    -0.247 OA 
BRANCH   9  12
HETATM   12  C   UNL     1     -10.897  11.708  69.153  1.00  0.00    -0.231 A  
HETATM   13  C   UNL     1     -11.894  12.335  69.894  1.00  0.00    -0.311 A  
HETATM   14  C   UNL     1     -12.817  11.862  70.963  1.00  0.00    -0.291 C  
HETATM   15  N   UNL     1     -11.918  13.664  69.527  1.00  0.00    -0.330 NA 
HETATM   16  H   UNL     1     -12.573  14.354  69.894  1.00  0.00     0.000 HD 
HETATM   17  C   UNL     1     -10.944  13.933  68.604  1.00  0.00    -0.261 A  
HETATM   18  C   UNL     1     -10.287  12.737  68.345  1.00  0.00    -0.248 A  
HETATM   19  C   UNL     1      -9.142  12.523  67.405  1.00  0.00    -0.185 C  
BRANCH  17  20
HETATM   20  C   UNL     1     -10.714  15.230  68.076  1.00  0.00    -0.268 C  
HETATM   21  C   UNL     1      -9.681  16.067  68.238  1.00  0.00    -0.214 C  
HETATM   22  C   UNL     1      -8.407  15.954  69.035  1.00  0.00    -0.239 C  
HETATM   23  N   UNL     1      -7.733  17.150  68.813  1.00  0.00    -0.260 N  
HETATM   24  O   UNL     1      -8.036  15.028  69.728  1.00  0.00    -0.140 OA 
HETATM   25  C   UNL     1      -8.449  17.991  67.965  1.00  0.00    -0.261 A  
HETATM   26  H   UNL     1      -6.827  17.382  69.219  1.00  0.00     0.000 HD 
HETATM   27  C   UNL     1      -9.647  17.384  67.578  1.00  0.00    -0.257 A  
HETATM   28  C   UNL     1     -10.524  18.036  66.728  1.00  0.00    -0.335 A  
HETATM   29  C   UNL     1     -10.170  19.307  66.285  1.00  0.00    -0.464 A  
HETATM   30  F   UNL     1     -10.999  19.964  65.464  1.00  0.00    -0.561 F  
HETATM   31  C   UNL     1      -8.970  19.916  66.677  1.00  0.00    -0.452 A  
HETATM   32  C   UNL     1      -8.086  19.253  67.533  1.00  0.00    -0.307 A  
ENDBRANCH  17  20
ENDBRANCH   9  12
ENDBRANCH   7   8
ENDBRANCH   6   7
ENDBRANCH   3   6
ENDBRANCH   2   3
TORSDOF 7
ENDMDL
MODEL       69
REMARK 921   NORMALIZED FREE ENERGY PREDICTED BY IDOCK:   -5.49 KCAL/MOL
REMARK 922        TOTAL FREE ENERGY PREDICTED BY IDOCK:   -8.83 KCAL/MOL
REMARK 923 INTER-LIGAND FREE ENERGY PREDICTED BY IDOCK:   -7.61 KCAL/MOL
REMARK 924 INTRA-LIGAND FREE ENERGY PREDICTED BY IDOCK:   -1.22 KCAL/MOL
REMARK 927      BINDING AFFINITY PREDICTED BY RF-SCORE:    0.00 PKD
ROOT
HETATM    1  C   UNL     1     -11.052  16.067  64.742  1.00  0.00    -0.378 C  
HETATM    2  C   UNL     1     -10.799  14.633  65.195  1.00  0.00    -0.401 C  
ENDROOT
BRANCH   2   3
HETATM    3  N   UNL     1     -11.992  13.913  65.672  1.00  0.00    -0.371 NA 
BRANCH   3   4
HETATM    4  C   UNL     1     -12.190  12.597  65.030  1.00  0.00    -0.476 C  
HETATM    5  C   UNL     1     -12.225  12.581  63.501  1.00  0.00    -0.652 C  
ENDBRANCH   3   4
BRANCH   3   6
HETATM    6  C   UNL     1     -11.990  13.777  67.149  1.00  0.00    -0.405 C  
BRANCH   6   7
HETATM    7  C   UNL     1     -10.659  14.102  67.852  1.00  0.00    -0.243 C  
BRANCH   7   8
HETATM    8  N   UNL     1     -10.118  12.963  68.557  1.00  0.00    -0.329 N  
HETATM    9  C   UNL     1      -9.243  12.101  67.945  1.00  0.00    -0.188 C  
HETATM   10  H   UNL     1     -10.390  12.797  69.526  1.00  0.00     0.000 HD 
HETATM   11  O   UNL     1      -8.868  12.265  66.786  1.00  0.00    -0.202 OA 
BRANCH   9  12
HETATM   12  C   UNL     1      -8.757  10.994  68.774  1.00  0.00    -0.146 A  
HETATM   13  C   UNL     1      -7.591  10.918  69.529  1.00  0.00    -0.050 A  
HETATM   14  C   UNL     1      -6.480  11.875  69.785  1.00  0.00    -0.077 C  
HETATM   15  N   UNL     1      -7.582   9.694  70.165  1.00  0.00    -0.142 NA 
HETATM   16  H   UNL     1      -6.828   9.359  70.764  1.00  0.00     0.000 HD 
HETATM   17  C   UNL     1      -8.721   8.990  69.884  1.00  0.00    -0.156 A  
HETATM   18  C   UNL     1      -9.478   9.768  69.019  1.00  0.00    -0.173 A  
HETATM   19  C   UNL     1     -10.812   9.427  68.431  1.00  0.00    -0.156 C  
BRANCH  17  20
HETATM   20  C   UNL     1      -8.997   7.711  70.433  1.00  0.00    -0.152 C  
HETATM   21  C   UNL     1      -9.912   7.327  71.333  1.00  0.00    -0.193 C  
HETATM   22  C   UNL     1     -10.965   8.094  72.091  1.00  0.00    -0.306 C  
HETATM   23  N   UNL     1     -11.603   7.146  72.884  1.00  0.00    -0.545 N  
HETATM   24  O   UNL     1     -11.211   9.282  72.036  1.00  0.00    -0.343 OA 
HETATM   25  C   UNL     1     -11.064   5.877  72.699  1.00  0.00    -0.280 A  
HETATM   26  H   UNL     1     -12.372   7.356  73.521  1.00  0.00     0.000 HD 
HETATM   27  C   UNL     1     -10.028   5.922  71.761  1.00  0.00    -0.200 A  
HETATM   28  C   UNL     1      -9.344   4.770  71.413  1.00  0.00    -0.201 A  
HETATM   29  C   UNL     1      -9.721   3.582  72.032  1.00  0.00    -0.162 A  
HETATM   30  F   UNL     1      -9.075   2.452  71.718  1.00  0.00    -0.104 F  
HETATM   31  C   UNL     1     -10.756   3.539  72.975  1.00  0.00    -0.232 A  
HETATM   32  C   UNL     1     -11.447   4.704  73.321  1.00  0.00    -0.346 A  
ENDBRANCH  17  20
ENDBRANCH   9  12
ENDBRANCH   7   8
ENDBRANCH   6   7
ENDBRANCH   3   6
ENDBRANCH   2   3
TORSDOF 7
ENDMDL
MODEL       70
REMARK 921   NORMALIZED FREE ENERGY PREDICTED BY IDOCK:   -5.49 KCAL/MOL
REMARK 922        TOTAL FREE ENERGY PREDICTED BY IDOCK:   -8.82 KCAL/MOL
REMARK 923 INTER-LIGAND FREE ENERGY PREDICTED BY IDOCK:   -7.72 KCAL/MOL
REMARK 924 INTRA-LIGAND FREE ENERGY PREDICTED BY IDOCK:   -1.10 KCAL/MOL
REMARK 927      BINDING AFFINITY PREDICTED BY RF-SCORE:    0.00 PKD
ROOT
HETATM    1  C   UNL     1      -8.820   4.213  70.288  1.00  0.00    -0.137 C  
HETATM    2  C   UNL     1      -9.652   4.903  69.211  1.00  0.00    -0.171 C  
ENDROOT
BRANCH   2   3
HETATM    3  N   UNL     1     -10.884   5.548  69.697  1.00  0.00    -0.292 NA 
BRANCH   3   4
HETATM    4  C   UNL     1     -10.748   6.161  71.034  1.00  0.00    -0.260 C  
HETATM    5  C   UNL     1     -12.002   6.812  71.619  1.00  0.00    -0.391 C  
ENDBRANCH   3   4
BRANCH   3   6
HETATM    6  C   UNL     1     -11.399   6.538  68.719  1.00  0.00    -0.148 C  
BRANCH   6   7
HETATM    7  C   UNL     1     -10.696   6.559  67.350  1.00  0.00    -0.340 C  
BRANCH   7   8
HETATM    8  N   UNL     1     -10.463   7.902  66.872  1.00  0.00    -0.371 N  
HETATM    9  C   UNL     1      -9.234   8.499  67.005  1.00  0.00    -0.152 C  
HETATM   10  H   UNL     1     -11.225   8.416  66.428  1.00  0.00     0.000 HD 
HETATM   11  O   UNL     1      -8.279   7.918  67.516  1.00  0.00    -0.121 OA 
BRANCH   9  12
HETATM   12  C   UNL     1      -9.127   9.857  66.467  1.00  0.00    -0.179 A  
HETATM   13  C   UNL     1      -8.945  10.260  65.147  1.00  0.00    -0.191 A  
HETATM   14  C   UNL     1      -8.825   9.516  63.863  1.00  0.00    -0.240 C  
HETATM   15  N   UNL     1      -8.939  11.639  65.126  1.00  0.00    -0.407 NA 
HETATM   16  H   UNL     1      -8.794  12.204  64.290  1.00  0.00     0.000 HD 
HETATM   17  C   UNL     1      -9.152  12.148  66.379  1.00  0.00    -0.177 A  
HETATM   18  C   UNL     1      -9.273  11.066  67.242  1.00  0.00    -0.156 A  
HETATM   19  C   UNL     1      -9.518  11.113  68.718  1.00  0.00    -0.173 C  
BRANCH  17  20
HETATM   20  C   UNL     1      -9.231  13.538  66.648  1.00  0.00    -0.221 C  
HETATM   21  C   UNL     1      -9.887  14.514  66.006  1.00  0.00    -0.342 C  
HETATM   22  C   UNL     1     -10.759  14.505  64.777  1.00  0.00    -0.393 C  
HETATM   23  N   UNL     1     -11.147  15.828  64.597  1.00  0.00    -0.667 N  
HETATM   24  O   UNL     1     -11.064  13.556  64.082  1.00  0.00    -0.367 OA 
HETATM   25  C   UNL     1     -10.612  16.656  65.579  1.00  0.00    -0.258 A  
HETATM   26  H   UNL     1     -11.749  16.152  63.840  1.00  0.00     0.000 HD 
HETATM   27  C   UNL     1      -9.835  15.912  66.471  1.00  0.00    -0.277 A  
HETATM   28  C   UNL     1      -9.204  16.527  67.539  1.00  0.00    -0.203 A  
HETATM   29  C   UNL     1      -9.369  17.901  67.682  1.00  0.00    -0.258 A  
HETATM   30  F   UNL     1      -8.769  18.526  68.703  1.00  0.00    -0.323 F  
HETATM   31  C   UNL     1     -10.145  18.648  66.785  1.00  0.00    -0.413 A  
HETATM   32  C   UNL     1     -10.784  18.021  65.710  1.00  0.00    -0.091 A  
ENDBRANCH  17  20
ENDBRANCH   9  12
ENDBRANCH   7   8
ENDBRANCH   6   7
ENDBRANCH   3   6
ENDBRANCH   2   3
TORSDOF 7
ENDMDL
MODEL       71
REMARK 921   NORMALIZED FREE ENERGY PREDICTED BY IDOCK:   -5.47 KCAL/MOL
REMARK 922        TOTAL FREE ENERGY PREDICTED BY IDOCK:   -8.79 KCAL/MOL
REMARK 923 INTER-LIGAND FREE ENERGY PREDICTED BY IDOCK:   -7.43 KCAL/MOL
REMARK 924 INTRA-LIGAND FREE ENERGY PREDICTED BY IDOCK:   -1.36 KCAL/MOL
REMARK 927      BINDING AFFINITY PREDICTED BY RF-SCORE:    0.00 PKD
ROOT
HETATM    1  C   UNL     1     -11.475  15.994  64.351  1.00  0.00    -0.246 C  
HETATM    2  C   UNL     1     -12.252  14.689  64.492  1.00  0.00    -0.456 C  
ENDROOT
BRANCH   2   3
HETATM    3  N   UNL     1     -11.751  13.778  65.535  1.00  0.00    -0.334 NA 
BRANCH   3   4
HETATM    4  C   UNL     1     -12.399  13.961  66.849  1.00  0.00    -0.292 C  
HETATM    5  C   UNL     1     -11.647  14.816  67.870  1.00  0.00    -0.373 C  
ENDBRANCH   3   4
BRANCH   3   6
HETATM    6  C   UNL     1     -11.836  12.361  65.104  1.00  0.00    -0.388 C  
BRANCH   6   7
HETATM    7  C   UNL     1     -10.618  11.482  65.440  1.00  0.00    -0.282 C  
BRANCH   7   8
HETATM    8  N   UNL     1     -10.736  10.850  66.733  1.00  0.00    -0.264 N  
HETATM    9  C   UNL     1      -9.967  11.259  67.794  1.00  0.00    -0.176 C  
HETATM   10  H   UNL     1     -11.400  10.086  66.861  1.00  0.00     0.000 HD 
HETATM   11  O   UNL     1      -9.165  12.186  67.700  1.00  0.00    -0.170 OA 
BRANCH   9  12
HETATM   12  C   UNL     1     -10.193  10.546  69.054  1.00  0.00    -0.233 A  
HETATM   13  C   UNL     1     -11.092  10.841  70.074  1.00  0.00    -0.255 A  
HETATM   14  C   UNL     1     -12.117  11.907  70.251  1.00  0.00    -0.409 C  
HETATM   15  N   UNL     1     -10.965   9.866  71.041  1.00  0.00    -0.333 NA 
HETATM   16  H   UNL     1     -11.486   9.849  71.918  1.00  0.00     0.000 HD 
HETATM   17  C   UNL     1     -10.045   8.925  70.668  1.00  0.00    -0.212 A  
HETATM   18  C   UNL     1      -9.541   9.315  69.434  1.00  0.00    -0.170 A  
HETATM   19  C   UNL     1      -8.510   8.604  68.615  1.00  0.00    -0.130 C  
BRANCH  17  20
HETATM   20  C   UNL     1      -9.738   7.786  71.456  1.00  0.00    -0.195 C  
HETATM   21  C   UNL     1     -10.538   6.855  71.992  1.00  0.00    -0.238 C  
HETATM   22  C   UNL     1     -12.034   6.677  71.970  1.00  0.00    -0.319 C  
HETATM   23  N   UNL     1     -12.273   5.525  72.713  1.00  0.00    -0.452 N  
HETATM   24  O   UNL     1     -12.864   7.379  71.429  1.00  0.00    -0.358 OA 
HETATM   25  C   UNL     1     -11.090   4.970  73.192  1.00  0.00    -0.326 A  
HETATM   26  H   UNL     1     -13.200   5.136  72.885  1.00  0.00     0.000 HD 
HETATM   27  C   UNL     1      -9.995   5.736  72.783  1.00  0.00    -0.196 A  
HETATM   28  C   UNL     1      -8.708   5.370  73.139  1.00  0.00    -0.120 A  
HETATM   29  C   UNL     1      -8.553   4.227  73.916  1.00  0.00    -0.098 A  
HETATM   30  F   UNL     1      -7.320   3.849  74.280  1.00  0.00    -0.056 F  
HETATM   31  C   UNL     1      -9.652   3.462  74.330  1.00  0.00    -0.129 A  
HETATM   32  C   UNL     1     -10.950   3.832  73.964  1.00  0.00    -0.223 A  
ENDBRANCH  17  20
ENDBRANCH   9  12
ENDBRANCH   7   8
ENDBRANCH   6   7
ENDBRANCH   3   6
ENDBRANCH   2   3
TORSDOF 7
ENDMDL
MODEL       72
REMARK 921   NORMALIZED FREE ENERGY PREDICTED BY IDOCK:   -5.46 KCAL/MOL
REMARK 922        TOTAL FREE ENERGY PREDICTED BY IDOCK:   -8.79 KCAL/MOL
REMARK 923 INTER-LIGAND FREE ENERGY PREDICTED BY IDOCK:   -7.63 KCAL/MOL
REMARK 924 INTRA-LIGAND FREE ENERGY PREDICTED BY IDOCK:   -1.15 KCAL/MOL
REMARK 927      BINDING AFFINITY PREDICTED BY RF-SCORE:    0.00 PKD
ROOT
HETATM    1  C   UNL     1      -9.590   1.903  63.669  1.00  0.00    -0.115 C  
HETATM    2  C   UNL     1      -8.881   3.074  62.995  1.00  0.00    -0.092 C  
ENDROOT
BRANCH   2   3
HETATM    3  N   UNL     1      -8.876   4.326  63.770  1.00  0.00    -0.127 NA 
BRANCH   3   4
HETATM    4  C   UNL     1      -9.179   4.140  65.204  1.00  0.00    -0.153 C  
HETATM    5  C   UNL     1     -10.366   4.928  65.760  1.00  0.00    -0.219 C  
ENDBRANCH   3   4
BRANCH   3   6
HETATM    6  C   UNL     1      -7.602   5.066  63.598  1.00  0.00    -0.067 C  
BRANCH   6   7
HETATM    7  C   UNL     1      -7.710   6.440  62.912  1.00  0.00    -0.090 C  
BRANCH   7   8
HETATM    8  N   UNL     1      -8.524   7.367  63.664  1.00  0.00    -0.348 N  
HETATM    9  C   UNL     1      -8.026   8.582  64.065  1.00  0.00    -0.159 C  
HETATM   10  H   UNL     1      -9.484   7.116  63.900  1.00  0.00     0.000 HD 
HETATM   11  O   UNL     1      -6.884   8.942  63.792  1.00  0.00    -0.088 OA 
BRANCH   9  12
HETATM   12  C   UNL     1      -8.958   9.435  64.809  1.00  0.00    -0.241 A  
HETATM   13  C   UNL     1      -9.711  10.510  64.349  1.00  0.00    -0.328 A  
HETATM   14  C   UNL     1      -9.867  11.146  63.011  1.00  0.00    -0.368 C  
HETATM   15  N   UNL     1     -10.464  10.978  65.405  1.00  0.00    -0.261 NA 
HETATM   16  H   UNL     1     -11.090  11.782  65.358  1.00  0.00     0.000 HD 
HETATM   17  C   UNL     1     -10.260  10.219  66.525  1.00  0.00    -0.226 A  
HETATM   18  C   UNL     1      -9.325   9.246  66.191  1.00  0.00    -0.270 A  
HETATM   19  C   UNL     1      -8.781   8.176  67.084  1.00  0.00    -0.130 C  
BRANCH  17  20
HETATM   20  C   UNL     1     -10.933  10.450  67.752  1.00  0.00    -0.369 C  
HETATM   21  C   UNL     1     -11.267  11.595  68.361  1.00  0.00    -0.307 C  
HETATM   22  C   UNL     1     -11.048  13.038  67.986  1.00  0.00    -0.260 C  
HETATM   23  N   UNL     1     -11.615  13.772  69.022  1.00  0.00    -0.290 N  
HETATM   24  O   UNL     1     -10.497  13.480  66.998  1.00  0.00    -0.262 OA 
HETATM   25  C   UNL     1     -12.161  12.943  69.998  1.00  0.00    -0.286 A  
HETATM   26  H   UNL     1     -11.629  14.791  69.063  1.00  0.00     0.000 HD 
HETATM   27  C   UNL     1     -11.982  11.601  69.650  1.00  0.00    -0.390 A  
HETATM   28  C   UNL     1     -12.451  10.592  70.473  1.00  0.00    -0.433 A  
HETATM   29  C   UNL     1     -13.094  10.964  71.649  1.00  0.00    -0.433 A  
HETATM   30  F   UNL     1     -13.556  10.010  72.468  1.00  0.00    -0.450 F  
HETATM   31  C   UNL     1     -13.269  12.309  72.000  1.00  0.00    -0.508 A  
HETATM   32  C   UNL     1     -12.798  13.326  71.164  1.00  0.00    -0.363 A  
ENDBRANCH  17  20
ENDBRANCH   9  12
ENDBRANCH   7   8
ENDBRANCH   6   7
ENDBRANCH   3   6
ENDBRANCH   2   3
TORSDOF 7
ENDMDL
MODEL       73
REMARK 921   NORMALIZED FREE ENERGY PREDICTED BY IDOCK:   -5.46 KCAL/MOL
REMARK 922        TOTAL FREE ENERGY PREDICTED BY IDOCK:   -8.79 KCAL/MOL
REMARK 923 INTER-LIGAND FREE ENERGY PREDICTED BY IDOCK:   -7.54 KCAL/MOL
REMARK 924 INTRA-LIGAND FREE ENERGY PREDICTED BY IDOCK:   -1.24 KCAL/MOL
REMARK 927      BINDING AFFINITY PREDICTED BY RF-SCORE:    0.00 PKD
ROOT
HETATM    1  C   UNL     1     -10.274   2.551  72.620  1.00  0.00    -0.236 C  
HETATM    2  C   UNL     1      -9.706   3.228  71.376  1.00  0.00    -0.156 C  
ENDROOT
BRANCH   2   3
HETATM    3  N   UNL     1      -9.557   4.690  71.479  1.00  0.00    -0.155 NA 
BRANCH   3   4
HETATM    4  C   UNL     1     -10.785   5.439  71.144  1.00  0.00    -0.169 C  
HETATM    5  C   UNL     1     -10.941   5.882  69.688  1.00  0.00    -0.447 C  
ENDBRANCH   3   4
BRANCH   3   6
HETATM    6  C   UNL     1      -9.048   5.091  72.813  1.00  0.00    -0.130 C  
BRANCH   6   7
HETATM    7  C   UNL     1      -7.838   6.043  72.811  1.00  0.00    -0.107 C  
BRANCH   7   8
HETATM    8  N   UNL     1      -7.904   7.016  71.745  1.00  0.00    -0.094 N  
HETATM    9  C   UNL     1      -8.328   8.300  71.983  1.00  0.00    -0.165 C  
HETATM   10  H   UNL     1      -7.633   6.745  70.800  1.00  0.00     0.000 HD 
HETATM   11  O   UNL     1      -8.649   8.684  73.105  1.00  0.00    -0.393 OA 
BRANCH   9  12
HETATM   12  C   UNL     1      -8.336   9.191  70.820  1.00  0.00    -0.248 A  
HETATM   13  C   UNL     1      -7.258   9.683  70.091  1.00  0.00    -0.128 A  
HETATM   14  C   UNL     1      -5.785   9.484  70.192  1.00  0.00    -0.037 C  
HETATM   15  N   UNL     1      -7.761  10.455  69.065  1.00  0.00    -0.105 NA 
HETATM   16  H   UNL     1      -7.191  10.963  68.389  1.00  0.00     0.000 HD 
HETATM   17  C   UNL     1      -9.129  10.449  69.075  1.00  0.00    -0.187 A  
HETATM   18  C   UNL     1      -9.524   9.671  70.157  1.00  0.00    -0.298 A  
HETATM   19  C   UNL     1     -10.926   9.363  70.581  1.00  0.00    -0.352 C  
BRANCH  17  20
HETATM   20  C   UNL     1      -9.915  11.130  68.111  1.00  0.00    -0.189 C  
HETATM   21  C   UNL     1     -10.027  10.945  66.789  1.00  0.00    -0.245 C  
HETATM   22  C   UNL     1      -9.367   9.971  65.847  1.00  0.00    -0.185 C  
HETATM   23  N   UNL     1      -9.883  10.274  64.592  1.00  0.00    -0.331 N  
HETATM   24  O   UNL     1      -8.555   9.107  66.111  1.00  0.00    -0.127 OA 
HETATM   25  C   UNL     1     -10.791  11.327  64.652  1.00  0.00    -0.265 A  
HETATM   26  H   UNL     1      -9.628   9.785  63.734  1.00  0.00     0.000 HD 
HETATM   27  C   UNL     1     -10.924  11.779  65.968  1.00  0.00    -0.355 A  
HETATM   28  C   UNL     1     -11.782  12.822  66.272  1.00  0.00    -0.460 A  
HETATM   29  C   UNL     1     -12.492  13.399  65.224  1.00  0.00    -0.483 A  
HETATM   30  F   UNL     1     -13.328  14.413  65.485  1.00  0.00    -0.470 F  
HETATM   31  C   UNL     1     -12.355  12.949  63.904  1.00  0.00    -0.476 A  
HETATM   32  C   UNL     1     -11.491  11.892  63.602  1.00  0.00    -0.551 A  
ENDBRANCH  17  20
ENDBRANCH   9  12
ENDBRANCH   7   8
ENDBRANCH   6   7
ENDBRANCH   3   6
ENDBRANCH   2   3
TORSDOF 7
ENDMDL
MODEL       74
REMARK 921   NORMALIZED FREE ENERGY PREDICTED BY IDOCK:   -5.45 KCAL/MOL
REMARK 922        TOTAL FREE ENERGY PREDICTED BY IDOCK:   -8.77 KCAL/MOL
REMARK 923 INTER-LIGAND FREE ENERGY PREDICTED BY IDOCK:   -7.78 KCAL/MOL
REMARK 924 INTRA-LIGAND FREE ENERGY PREDICTED BY IDOCK:   -0.99 KCAL/MOL
REMARK 927      BINDING AFFINITY PREDICTED BY RF-SCORE:    0.00 PKD
ROOT
HETATM    1  C   UNL     1      -9.333   7.679  66.234  1.00  0.00    -0.189 C  
HETATM    2  C   UNL     1      -8.875   6.831  67.417  1.00  0.00    -0.117 C  
ENDROOT
BRANCH   2   3
HETATM    3  N   UNL     1      -9.848   5.825  67.875  1.00  0.00    -0.120 NA 
BRANCH   3   4
HETATM    4  C   UNL     1      -9.709   4.516  67.205  1.00  0.00    -0.186 C  
HETATM    5  C   UNL     1     -10.221   4.425  65.767  1.00  0.00    -0.257 C  
ENDBRANCH   3   4
BRANCH   3   6
HETATM    6  C   UNL     1      -9.810   5.664  69.349  1.00  0.00    -0.175 C  
BRANCH   6   7
HETATM    7  C   UNL     1     -11.107   6.023  70.097  1.00  0.00    -0.361 C  
BRANCH   7   8
HETATM    8  N   UNL     1     -11.496   7.400  69.894  1.00  0.00    -0.484 N  
HETATM    9  C   UNL     1     -11.165   8.371  70.805  1.00  0.00    -0.263 C  
HETATM   10  H   UNL     1     -12.025   7.654  69.060  1.00  0.00     0.000 HD 
HETATM   11  O   UNL     1     -10.513   8.123  71.817  1.00  0.00    -0.216 OA 
BRANCH   9  12
HETATM   12  C   UNL     1     -11.607   9.729  70.474  1.00  0.00    -0.365 A  
HETATM   13  C   UNL     1     -12.639  10.471  71.040  1.00  0.00    -0.400 A  
HETATM   14  C   UNL     1     -13.605  10.199  72.140  1.00  0.00    -0.295 C  
HETATM   15  N   UNL     1     -12.654  11.706  70.425  1.00  0.00    -0.182 NA 
HETATM   16  H   UNL     1     -13.329  12.444  70.625  1.00  0.00     0.000 HD 
HETATM   17  C   UNL     1     -11.642  11.808  69.509  1.00  0.00    -0.332 A  
HETATM   18  C   UNL     1     -10.968  10.593  69.512  1.00  0.00    -0.321 A  
HETATM   19  C   UNL     1      -9.782  10.219  68.679  1.00  0.00    -0.171 C  
BRANCH  17  20
HETATM   20  C   UNL     1     -11.397  12.982  68.753  1.00  0.00    -0.332 C  
HETATM   21  C   UNL     1     -11.336  14.266  69.131  1.00  0.00    -0.312 C  
HETATM   22  C   UNL     1     -11.512  14.932  70.471  1.00  0.00    -0.262 C  
HETATM   23  N   UNL     1     -11.339  16.290  70.226  1.00  0.00    -0.432 N  
HETATM   24  O   UNL     1     -11.757  14.411  71.541  1.00  0.00    -0.252 OA 
HETATM   25  C   UNL     1     -11.073  16.539  68.883  1.00  0.00    -0.300 A  
HETATM   26  H   UNL     1     -11.398  17.014  70.943  1.00  0.00     0.000 HD 
HETATM   27  C   UNL     1     -11.056  15.341  68.163  1.00  0.00    -0.309 A  
HETATM   28  C   UNL     1     -10.805  15.342  66.801  1.00  0.00    -0.312 A  
HETATM   29  C   UNL     1     -10.581  16.570  66.186  1.00  0.00    -0.236 A  
HETATM   30  F   UNL     1     -10.339  16.603  64.870  1.00  0.00    -0.195 F  
HETATM   31  C   UNL     1     -10.603  17.771  66.909  1.00  0.00    -0.247 A  
HETATM   32  C   UNL     1     -10.852  17.765  68.285  1.00  0.00    -0.155 A  
ENDBRANCH  17  20
ENDBRANCH   9  12
ENDBRANCH   7   8
ENDBRANCH   6   7
ENDBRANCH   3   6
ENDBRANCH   2   3
TORSDOF 7
ENDMDL
MODEL       75
REMARK 921   NORMALIZED FREE ENERGY PREDICTED BY IDOCK:   -5.45 KCAL/MOL
REMARK 922        TOTAL FREE ENERGY PREDICTED BY IDOCK:   -8.77 KCAL/MOL
REMARK 923 INTER-LIGAND FREE ENERGY PREDICTED BY IDOCK:   -7.96 KCAL/MOL
REMARK 924 INTRA-LIGAND FREE ENERGY PREDICTED BY IDOCK:   -0.81 KCAL/MOL
REMARK 927      BINDING AFFINITY PREDICTED BY RF-SCORE:    0.00 PKD
ROOT
HETATM    1  C   UNL     1     -10.483   7.463  73.552  1.00  0.00    -0.396 C  
HETATM    2  C   UNL     1     -10.300   7.298  72.046  1.00  0.00    -0.192 C  
ENDROOT
BRANCH   2   3
HETATM    3  N   UNL     1     -11.373   7.880  71.223  1.00  0.00    -0.256 NA 
BRANCH   3   4
HETATM    4  C   UNL     1     -12.732   7.567  71.708  1.00  0.00    -0.331 C  
HETATM    5  C   UNL     1     -13.723   8.732  71.766  1.00  0.00    -0.461 C  
ENDBRANCH   3   4
BRANCH   3   6
HETATM    6  C   UNL     1     -11.200   9.344  71.062  1.00  0.00    -0.342 C  
BRANCH   6   7
HETATM    7  C   UNL     1     -11.288   9.877  69.620  1.00  0.00    -0.165 C  
BRANCH   7   8
HETATM    8  N   UNL     1     -11.017  11.294  69.540  1.00  0.00    -0.379 N  
HETATM    9  C   UNL     1     -11.451  12.039  68.472  1.00  0.00    -0.293 C  
HETATM   10  H   UNL     1     -10.494  11.748  70.288  1.00  0.00     0.000 HD 
HETATM   11  O   UNL     1     -12.101  11.545  67.552  1.00  0.00    -0.614 OA 
BRANCH   9  12
HETATM   12  C   UNL     1     -11.123  13.466  68.518  1.00  0.00    -0.299 A  
HETATM   13  C   UNL     1     -11.614  14.446  69.374  1.00  0.00    -0.304 A  
HETATM   14  C   UNL     1     -12.576  14.417  70.510  1.00  0.00    -0.417 C  
HETATM   15  N   UNL     1     -10.986  15.633  69.058  1.00  0.00    -0.246 NA 
HETATM   16  H   UNL     1     -11.176  16.527  69.511  1.00  0.00     0.000 HD 
HETATM   17  C   UNL     1     -10.073  15.450  68.056  1.00  0.00    -0.226 A  
HETATM   18  C   UNL     1     -10.130  14.111  67.692  1.00  0.00    -0.236 A  
HETATM   19  C   UNL     1      -9.316  13.427  66.638  1.00  0.00    -0.248 C  
BRANCH  17  20
HETATM   20  C   UNL     1      -9.254  16.494  67.553  1.00  0.00    -0.203 C  
HETATM   21  C   UNL     1      -8.029  16.895  67.920  1.00  0.00    -0.187 C  
HETATM   22  C   UNL     1      -7.085  16.405  68.988  1.00  0.00    -0.208 C  
HETATM   23  N   UNL     1      -5.967  17.226  68.888  1.00  0.00    -0.169 N  
HETATM   24  O   UNL     1      -7.252  15.496  69.776  1.00  0.00    -0.186 OA 
HETATM   25  C   UNL     1      -6.114  18.170  67.875  1.00  0.00    -0.170 A  
HETATM   26  H   UNL     1      -5.142  17.147  69.482  1.00  0.00     0.000 HD 
HETATM   27  C   UNL     1      -7.352  18.017  67.245  1.00  0.00    -0.212 A  
HETATM   28  C   UNL     1      -7.717  18.846  66.198  1.00  0.00    -0.281 A  
HETATM   29  C   UNL     1      -6.813  19.830  65.808  1.00  0.00    -0.282 A  
HETATM   30  F   UNL     1      -7.139  20.650  64.801  1.00  0.00    -0.309 F  
HETATM   31  C   UNL     1      -5.574  19.985  66.444  1.00  0.00    -0.183 A  
HETATM   32  C   UNL     1      -5.208  19.143  67.498  1.00  0.00    -0.164 A  
ENDBRANCH  17  20
ENDBRANCH   9  12
ENDBRANCH   7   8
ENDBRANCH   6   7
ENDBRANCH   3   6
ENDBRANCH   2   3
TORSDOF 7
ENDMDL
MODEL       76
REMARK 921   NORMALIZED FREE ENERGY PREDICTED BY IDOCK:   -5.42 KCAL/MOL
REMARK 922        TOTAL FREE ENERGY PREDICTED BY IDOCK:   -8.72 KCAL/MOL
REMARK 923 INTER-LIGAND FREE ENERGY PREDICTED BY IDOCK:   -7.58 KCAL/MOL
REMARK 924 INTRA-LIGAND FREE ENERGY PREDICTED BY IDOCK:   -1.15 KCAL/MOL
REMARK 927      BINDING AFFINITY PREDICTED BY RF-SCORE:    0.00 PKD
ROOT
HETATM    1  C   UNL     1      -8.129   5.094  63.515  1.00  0.00    -0.107 C  
HETATM    2  C   UNL     1      -8.554   4.843  64.959  1.00  0.00    -0.147 C  
ENDROOT
BRANCH   2   3
HETATM    3  N   UNL     1      -7.513   5.101  65.967  1.00  0.00    -0.081 NA 
BRANCH   3   4
HETATM    4  C   UNL     1      -7.095   3.896  66.713  1.00  0.00    -0.063 C  
HETATM    5  C   UNL     1      -8.207   2.940  67.147  1.00  0.00    -0.084 C  
ENDBRANCH   3   4
BRANCH   3   6
HETATM    6  C   UNL     1      -6.337   5.780  65.371  1.00  0.00    -0.041 C  
BRANCH   6   7
HETATM    7  C   UNL     1      -6.158   7.263  65.743  1.00  0.00    -0.037 C  
BRANCH   7   8
HETATM    8  N   UNL     1      -7.285   7.785  66.482  1.00  0.00    -0.084 N  
HETATM    9  C   UNL     1      -8.217   8.591  65.876  1.00  0.00    -0.125 C  
HETATM   10  H   UNL     1      -7.389   7.551  67.469  1.00  0.00     0.000 HD 
HETATM   11  O   UNL     1      -8.148   8.888  64.686  1.00  0.00    -0.133 OA 
BRANCH   9  12
HETATM   12  C   UNL     1      -9.317   9.042  66.733  1.00  0.00    -0.213 A  
HETATM   13  C   UNL     1     -10.359   8.298  67.278  1.00  0.00    -0.302 A  
HETATM   14  C   UNL     1     -10.714   6.853  67.224  1.00  0.00    -0.421 C  
HETATM   15  N   UNL     1     -11.129   9.150  68.041  1.00  0.00    -0.489 NA 
HETATM   16  H   UNL     1     -11.978   8.876  68.536  1.00  0.00     0.000 HD 
HETATM   17  C   UNL     1     -10.601  10.412  68.047  1.00  0.00    -0.221 A  
HETATM   18  C   UNL     1      -9.470  10.384  67.240  1.00  0.00    -0.176 A  
HETATM   19  C   UNL     1      -8.551  11.525  66.937  1.00  0.00    -0.163 C  
BRANCH  17  20
HETATM   20  C   UNL     1     -11.167  11.486  68.781  1.00  0.00    -0.309 C  
HETATM   21  C   UNL     1     -11.867  11.488  69.924  1.00  0.00    -0.430 C  
HETATM   22  C   UNL     1     -12.314  10.373  70.834  1.00  0.00    -0.381 C  
HETATM   23  N   UNL     1     -13.013  11.002  71.860  1.00  0.00    -0.444 N  
HETATM   24  O   UNL     1     -12.119   9.181  70.711  1.00  0.00    -0.254 OA 
HETATM   25  C   UNL     1     -13.046  12.382  71.686  1.00  0.00    -0.307 A  
HETATM   26  H   UNL     1     -13.446  10.512  72.643  1.00  0.00     0.000 HD 
HETATM   27  C   UNL     1     -12.360  12.741  70.522  1.00  0.00    -0.355 A  
HETATM   28  C   UNL     1     -12.257  14.070  70.147  1.00  0.00    -0.425 A  
HETATM   29  C   UNL     1     -12.862  15.020  70.963  1.00  0.00    -0.387 A  
HETATM   30  F   UNL     1     -12.783  16.313  70.624  1.00  0.00    -0.246 F  
HETATM   31  C   UNL     1     -13.553  14.659  72.127  1.00  0.00    -0.514 A  
HETATM   32  C   UNL     1     -13.651  13.317  72.505  1.00  0.00    -0.637 A  
ENDBRANCH  17  20
ENDBRANCH   9  12
ENDBRANCH   7   8
ENDBRANCH   6   7
ENDBRANCH   3   6
ENDBRANCH   2   3
TORSDOF 7
ENDMDL
MODEL       77
REMARK 921   NORMALIZED FREE ENERGY PREDICTED BY IDOCK:   -5.36 KCAL/MOL
REMARK 922        TOTAL FREE ENERGY PREDICTED BY IDOCK:   -8.64 KCAL/MOL
REMARK 923 INTER-LIGAND FREE ENERGY PREDICTED BY IDOCK:   -7.63 KCAL/MOL
REMARK 924 INTRA-LIGAND FREE ENERGY PREDICTED BY IDOCK:   -1.01 KCAL/MOL
REMARK 927      BINDING AFFINITY PREDICTED BY RF-SCORE:    0.00 PKD
ROOT
HETATM    1  C   UNL     1      -9.846  19.618  66.219  1.00  0.00    -0.540 C  
HETATM    2  C   UNL     1     -10.496  18.243  66.095  1.00  0.00    -0.383 C  
ENDROOT
BRANCH   2   3
HETATM    3  N   UNL     1      -9.917  17.203  66.962  1.00  0.00    -0.277 NA 
BRANCH   3   4
HETATM    4  C   UNL     1      -9.882  17.570  68.392  1.00  0.00    -0.325 C  
HETATM    5  C   UNL     1     -10.678  16.679  69.347  1.00  0.00    -0.331 C  
ENDBRANCH   3   4
BRANCH   3   6
HETATM    6  C   UNL     1     -10.600  15.899  66.774  1.00  0.00    -0.309 C  
BRANCH   6   7
HETATM    7  C   UNL     1     -10.356  15.201  65.424  1.00  0.00    -0.388 C  
BRANCH   7   8
HETATM    8  N   UNL     1     -10.065  13.794  65.576  1.00  0.00    -0.401 N  
HETATM    9  C   UNL     1     -11.030  12.844  65.354  1.00  0.00    -0.278 C  
HETATM   10  H   UNL     1      -9.129  13.502  65.855  1.00  0.00     0.000 HD 
HETATM   11  O   UNL     1     -12.169  13.140  65.000  1.00  0.00    -0.388 OA 
BRANCH   9  12
HETATM   12  C   UNL     1     -10.604  11.453  65.530  1.00  0.00    -0.328 A  
HETATM   13  C   UNL     1     -10.024  10.595  64.600  1.00  0.00    -0.337 A  
HETATM   14  C   UNL     1      -9.620  10.759  63.177  1.00  0.00    -0.385 C  
HETATM   15  N   UNL     1      -9.767   9.399  65.237  1.00  0.00    -0.453 NA 
HETATM   16  H   UNL     1      -9.367   8.576  64.784  1.00  0.00     0.000 HD 
HETATM   17  C   UNL     1     -10.119   9.462  66.557  1.00  0.00    -0.262 A  
HETATM   18  C   UNL     1     -10.646  10.728  66.777  1.00  0.00    -0.307 A  
HETATM   19  C   UNL     1     -11.168  11.276  68.069  1.00  0.00    -0.351 C  
BRANCH  17  20
HETATM   20  C   UNL     1      -9.932   8.386  67.462  1.00  0.00    -0.259 C  
HETATM   21  C   UNL     1      -8.811   7.785  67.882  1.00  0.00    -0.123 C  
HETATM   22  C   UNL     1      -7.358   8.014  67.550  1.00  0.00    -0.089 C  
HETATM   23  N   UNL     1      -6.663   7.069  68.297  1.00  0.00    -0.062 N  
HETATM   24  O   UNL     1      -6.884   8.837  66.794  1.00  0.00    -0.068 OA 
HETATM   25  C   UNL     1      -7.523   6.281  69.056  1.00  0.00    -0.091 A  
HETATM   26  H   UNL     1      -5.648   6.967  68.290  1.00  0.00     0.000 HD 
HETATM   27  C   UNL     1      -8.849   6.672  68.847  1.00  0.00    -0.131 A  
HETATM   28  C   UNL     1      -9.884   6.029  69.505  1.00  0.00    -0.202 A  
HETATM   29  C   UNL     1      -9.554   4.987  70.366  1.00  0.00    -0.193 A  
HETATM   30  F   UNL     1     -10.534   4.344  71.014  1.00  0.00    -0.221 F  
HETATM   31  C   UNL     1      -8.225   4.593  70.571  1.00  0.00    -0.085 A  
HETATM   32  C   UNL     1      -7.182   5.248  69.909  1.00  0.00    -0.063 A  
ENDBRANCH  17  20
ENDBRANCH   9  12
ENDBRANCH   7   8
ENDBRANCH   6   7
ENDBRANCH   3   6
ENDBRANCH   2   3
TORSDOF 7
ENDMDL
MODEL       78
REMARK 921   NORMALIZED FREE ENERGY PREDICTED BY IDOCK:   -5.36 KCAL/MOL
REMARK 922        TOTAL FREE ENERGY PREDICTED BY IDOCK:   -8.64 KCAL/MOL
REMARK 923 INTER-LIGAND FREE ENERGY PREDICTED BY IDOCK:   -7.76 KCAL/MOL
REMARK 924 INTRA-LIGAND FREE ENERGY PREDICTED BY IDOCK:   -0.88 KCAL/MOL
REMARK 927      BINDING AFFINITY PREDICTED BY RF-SCORE:    0.00 PKD
ROOT
HETATM    1  C   UNL     1     -12.178   6.998  71.792  1.00  0.00    -0.387 C  
HETATM    2  C   UNL     1     -11.658   6.401  70.488  1.00  0.00    -0.358 C  
ENDROOT
BRANCH   2   3
HETATM    3  N   UNL     1     -10.328   6.878  70.073  1.00  0.00    -0.196 NA 
BRANCH   3   4
HETATM    4  C   UNL     1      -9.546   5.879  69.317  1.00  0.00    -0.141 C  
HETATM    5  C   UNL     1      -9.535   4.455  69.875  1.00  0.00    -0.253 C  
ENDBRANCH   3   4
BRANCH   3   6
HETATM    6  C   UNL     1     -10.419   8.150  69.316  1.00  0.00    -0.214 C  
BRANCH   6   7
HETATM    7  C   UNL     1      -9.251   9.133  69.510  1.00  0.00    -0.159 C  
BRANCH   7   8
HETATM    8  N   UNL     1      -9.422  10.349  68.749  1.00  0.00    -0.166 N  
HETATM    9  C   UNL     1      -8.783  10.529  67.548  1.00  0.00    -0.125 C  
HETATM   10  H   UNL     1     -10.028  11.087  69.109  1.00  0.00     0.000 HD 
HETATM   11  O   UNL     1      -8.057   9.666  67.059  1.00  0.00    -0.112 OA 
BRANCH   9  12
HETATM   12  C   UNL     1      -9.052  11.799  66.869  1.00  0.00    -0.192 A  
HETATM   13  C   UNL     1      -9.817  12.035  65.732  1.00  0.00    -0.242 A  
HETATM   14  C   UNL     1     -10.622  11.150  64.845  1.00  0.00    -0.356 C  
HETATM   15  N   UNL     1      -9.805  13.393  65.491  1.00  0.00    -0.485 NA 
HETATM   16  H   UNL     1     -10.264  13.845  64.701  1.00  0.00     0.000 HD 
HETATM   17  C   UNL     1      -9.094  14.054  66.456  1.00  0.00    -0.150 A  
HETATM   18  C   UNL     1      -8.607  13.092  67.332  1.00  0.00    -0.204 A  
HETATM   19  C   UNL     1      -7.773  13.325  68.553  1.00  0.00    -0.120 C  
BRANCH  17  20
HETATM   20  C   UNL     1      -8.945  15.464  66.480  1.00  0.00    -0.344 C  
HETATM   21  C   UNL     1      -9.606  16.399  67.176  1.00  0.00    -0.239 C  
HETATM   22  C   UNL     1     -10.739  16.306  68.166  1.00  0.00    -0.322 C  
HETATM   23  N   UNL     1     -10.999  17.619  68.542  1.00  0.00    -0.216 N  
HETATM   24  O   UNL     1     -11.313  15.310  68.556  1.00  0.00    -0.293 OA 
HETATM   25  C   UNL     1     -10.152  18.515  67.897  1.00  0.00    -0.369 A  
HETATM   26  H   UNL     1     -11.721  17.893  69.210  1.00  0.00     0.000 HD 
HETATM   27  C   UNL     1      -9.276  17.830  67.050  1.00  0.00    -0.257 A  
HETATM   28  C   UNL     1      -8.334  18.518  66.305  1.00  0.00    -0.235 A  
HETATM   29  C   UNL     1      -8.300  19.903  66.427  1.00  0.00    -0.334 A  
HETATM   30  F   UNL     1      -7.402  20.597  65.716  1.00  0.00    -0.220 F  
HETATM   31  C   UNL     1      -9.182  20.590  67.272  1.00  0.00    -0.500 A  
HETATM   32  C   UNL     1     -10.129  19.891  68.027  1.00  0.00    -0.572 A  
ENDBRANCH  17  20
ENDBRANCH   9  12
ENDBRANCH   7   8
ENDBRANCH   6   7
ENDBRANCH   3   6
ENDBRANCH   2   3
TORSDOF 7
ENDMDL
MODEL       79
REMARK 921   NORMALIZED FREE ENERGY PREDICTED BY IDOCK:   -5.35 KCAL/MOL
REMARK 922        TOTAL FREE ENERGY PREDICTED BY IDOCK:   -8.63 KCAL/MOL
REMARK 923 INTER-LIGAND FREE ENERGY PREDICTED BY IDOCK:   -7.78 KCAL/MOL
REMARK 924 INTRA-LIGAND FREE ENERGY PREDICTED BY IDOCK:   -0.86 KCAL/MOL
REMARK 927      BINDING AFFINITY PREDICTED BY RF-SCORE:    0.00 PKD
ROOT
HETATM    1  C   UNL     1     -10.308  19.633  66.127  1.00  0.00    -0.627 C  
HETATM    2  C   UNL     1     -10.753  18.238  65.699  1.00  0.00    -0.033 C  
ENDROOT
BRANCH   2   3
HETATM    3  N   UNL     1      -9.832  17.151  66.072  1.00  0.00    -0.483 NA 
BRANCH   3   4
HETATM    4  C   UNL     1      -8.636  17.610  66.808  1.00  0.00    -0.255 C  
HETATM    5  C   UNL     1      -7.283  17.128  66.283  1.00  0.00    -0.308 C  
ENDBRANCH   3   4
BRANCH   3   6
HETATM    6  C   UNL     1     -10.531  16.082  66.827  1.00  0.00    -0.308 C  
BRANCH   6   7
HETATM    7  C   UNL     1     -10.641  14.721  66.117  1.00  0.00    -0.311 C  
BRANCH   7   8
HETATM    8  N   UNL     1     -10.577  13.612  67.041  1.00  0.00    -0.272 N  
HETATM    9  C   UNL     1     -11.378  12.509  66.880  1.00  0.00    -0.326 C  
HETATM   10  H   UNL     1      -9.926  13.649  67.825  1.00  0.00     0.000 HD 
HETATM   11  O   UNL     1     -12.166  12.405  65.943  1.00  0.00    -0.629 OA 
BRANCH   9  12
HETATM   12  C   UNL     1     -11.206  11.449  67.877  1.00  0.00    -0.352 A  
HETATM   13  C   UNL     1     -11.512  11.471  69.234  1.00  0.00    -0.305 A  
HETATM   14  C   UNL     1     -12.115  12.500  70.125  1.00  0.00    -0.368 C  
HETATM   15  N   UNL     1     -11.206  10.230  69.754  1.00  0.00    -0.265 NA 
HETATM   16  H   UNL     1     -11.305   9.974  70.736  1.00  0.00     0.000 HD 
HETATM   17  C   UNL     1     -10.752   9.389  68.775  1.00  0.00    -0.171 A  
HETATM   18  C   UNL     1     -10.737  10.115  67.590  1.00  0.00    -0.339 A  
HETATM   19  C   UNL     1     -10.319   9.625  66.239  1.00  0.00    -0.230 C  
BRANCH  17  20
HETATM   20  C   UNL     1     -10.397   8.037  69.017  1.00  0.00    -0.228 C  
HETATM   21  C   UNL     1      -9.726   7.481  70.035  1.00  0.00    -0.172 C  
HETATM   22  C   UNL     1      -9.100   8.070  71.273  1.00  0.00    -0.139 C  
HETATM   23  N   UNL     1      -8.541   6.989  71.945  1.00  0.00    -0.121 N  
HETATM   24  O   UNL     1      -9.078   9.234  71.620  1.00  0.00    -0.315 OA 
HETATM   25  C   UNL     1      -8.751   5.796  71.262  1.00  0.00    -0.132 A  
HETATM   26  H   UNL     1      -8.039   7.062  72.830  1.00  0.00     0.000 HD 
HETATM   27  C   UNL     1      -9.472   6.030  70.088  1.00  0.00    -0.182 A  
HETATM   28  C   UNL     1      -9.805   4.983  69.244  1.00  0.00    -0.266 A  
HETATM   29  C   UNL     1      -9.391   3.705  69.607  1.00  0.00    -0.173 A  
HETATM   30  F   UNL     1      -9.694   2.673  68.810  1.00  0.00    -0.237 F  
HETATM   31  C   UNL     1      -8.664   3.472  70.782  1.00  0.00    -0.125 A  
HETATM   32  C   UNL     1      -8.334   4.531  71.633  1.00  0.00    -0.105 A  
ENDBRANCH  17  20
ENDBRANCH   9  12
ENDBRANCH   7   8
ENDBRANCH   6   7
ENDBRANCH   3   6
ENDBRANCH   2   3
TORSDOF 7
ENDMDL
MODEL       80
REMARK 921   NORMALIZED FREE ENERGY PREDICTED BY IDOCK:   -5.35 KCAL/MOL
REMARK 922        TOTAL FREE ENERGY PREDICTED BY IDOCK:   -8.62 KCAL/MOL
REMARK 923 INTER-LIGAND FREE ENERGY PREDICTED BY IDOCK:   -8.04 KCAL/MOL
REMARK 924 INTRA-LIGAND FREE ENERGY PREDICTED BY IDOCK:   -0.58 KCAL/MOL
REMARK 927      BINDING AFFINITY PREDICTED BY RF-SCORE:    0.00 PKD
ROOT
HETATM    1  C   UNL     1     -10.217   6.413  74.253  1.00  0.00    -0.362 C  
HETATM    2  C   UNL     1     -10.306   5.091  73.497  1.00  0.00    -0.209 C  
ENDROOT
BRANCH   2   3
HETATM    3  N   UNL     1     -10.241   5.208  72.031  1.00  0.00    -0.197 NA 
BRANCH   3   4
HETATM    4  C   UNL     1      -9.965   3.931  71.343  1.00  0.00    -0.127 C  
HETATM    5  C   UNL     1      -9.900   2.680  72.222  1.00  0.00    -0.230 C  
ENDBRANCH   3   4
BRANCH   3   6
HETATM    6  C   UNL     1     -11.464   5.843  71.482  1.00  0.00    -0.148 C  
BRANCH   6   7
HETATM    7  C   UNL     1     -11.381   6.305  70.016  1.00  0.00    -0.416 C  
BRANCH   7   8
HETATM    8  N   UNL     1     -11.566   7.732  69.877  1.00  0.00    -0.457 N  
HETATM    9  C   UNL     1     -10.562   8.611  70.197  1.00  0.00    -0.225 C  
HETATM   10  H   UNL     1     -12.458   8.092  69.536  1.00  0.00     0.000 HD 
HETATM   11  O   UNL     1      -9.463   8.230  70.595  1.00  0.00    -0.159 OA 
BRANCH   9  12
HETATM   12  C   UNL     1     -10.873  10.029  69.999  1.00  0.00    -0.352 A  
HETATM   13  C   UNL     1     -11.891  10.786  70.570  1.00  0.00    -0.356 A  
HETATM   14  C   UNL     1     -12.965  10.472  71.553  1.00  0.00    -0.565 C  
HETATM   15  N   UNL     1     -11.762  12.079  70.108  1.00  0.00    -0.511 NA 
HETATM   16  H   UNL     1     -12.395  12.844  70.343  1.00  0.00     0.000 HD 
HETATM   17  C   UNL     1     -10.671  12.199  69.290  1.00  0.00     0.020 A  
HETATM   18  C   UNL     1     -10.092  10.941  69.198  1.00  0.00    -0.198 A  
HETATM   19  C   UNL     1      -8.870  10.566  68.419  1.00  0.00    -0.140 C  
BRANCH  17  20
HETATM   20  C   UNL     1     -10.276  13.428  68.701  1.00  0.00    -0.187 C  
HETATM   21  C   UNL     1     -10.514  14.692  69.076  1.00  0.00    -0.248 C  
HETATM   22  C   UNL     1     -11.283  15.272  70.235  1.00  0.00    -0.297 C  
HETATM   23  N   UNL     1     -11.178  16.651  70.085  1.00  0.00    -0.435 N  
HETATM   24  O   UNL     1     -11.875  14.678  71.114  1.00  0.00    -0.325 OA 
HETATM   25  C   UNL     1     -10.428  16.988  68.963  1.00  0.00    -0.337 A  
HETATM   26  H   UNL     1     -11.598  17.330  70.720  1.00  0.00     0.000 HD 
HETATM   27  C   UNL     1      -9.991  15.835  68.306  1.00  0.00    -0.221 A  
HETATM   28  C   UNL     1      -9.220  15.926  67.160  1.00  0.00    -0.222 A  
HETATM   29  C   UNL     1      -8.906  17.198  66.692  1.00  0.00    -0.252 A  
HETATM   30  F   UNL     1      -8.164  17.318  65.584  1.00  0.00    -0.188 F  
HETATM   31  C   UNL     1      -9.348  18.354  67.349  1.00  0.00    -0.275 A  
HETATM   32  C   UNL     1     -10.123  18.258  68.509  1.00  0.00    -0.419 A  
ENDBRANCH  17  20
ENDBRANCH   9  12
ENDBRANCH   7   8
ENDBRANCH   6   7
ENDBRANCH   3   6
ENDBRANCH   2   3
TORSDOF 7
ENDMDL
MODEL       81
REMARK 921   NORMALIZED FREE ENERGY PREDICTED BY IDOCK:   -5.34 KCAL/MOL
REMARK 922        TOTAL FREE ENERGY PREDICTED BY IDOCK:   -8.62 KCAL/MOL
REMARK 923 INTER-LIGAND FREE ENERGY PREDICTED BY IDOCK:   -8.87 KCAL/MOL
REMARK 924 INTRA-LIGAND FREE ENERGY PREDICTED BY IDOCK:    0.25 KCAL/MOL
REMARK 927      BINDING AFFINITY PREDICTED BY RF-SCORE:    0.00 PKD
ROOT
HETATM    1  C   UNL     1      -5.723  21.289  66.326  1.00  0.00    -0.314 C  
HETATM    2  C   UNL     1      -5.436  20.502  67.602  1.00  0.00    -0.199 C  
ENDROOT
BRANCH   2   3
HETATM    3  N   UNL     1      -6.450  19.493  67.950  1.00  0.00    -0.218 NA 
BRANCH   3   4
HETATM    4  C   UNL     1      -6.870  19.534  69.365  1.00  0.00    -0.330 C  
HETATM    5  C   UNL     1      -5.821  19.127  70.402  1.00  0.00    -0.212 C  
ENDBRANCH   3   4
BRANCH   3   6
HETATM    6  C   UNL     1      -7.629  19.576  67.053  1.00  0.00    -0.242 C  
BRANCH   6   7
HETATM    7  C   UNL     1      -9.001  19.618  67.750  1.00  0.00    -0.322 C  
BRANCH   7   8
HETATM    8  N   UNL     1      -9.672  18.339  67.722  1.00  0.00    -0.288 N  
HETATM    9  C   UNL     1      -9.403  17.419  66.740  1.00  0.00    -0.268 C  
HETATM   10  H   UNL     1     -10.357  18.116  68.444  1.00  0.00     0.000 HD 
HETATM   11  O   UNL     1      -8.573  17.630  65.857  1.00  0.00    -0.526 OA 
BRANCH   9  12
HETATM   12  C   UNL     1     -10.140  16.156  66.834  1.00  0.00    -0.273 A  
HETATM   13  C   UNL     1     -10.927  15.533  65.870  1.00  0.00    -0.264 A  
HETATM   14  C   UNL     1     -11.276  15.875  64.464  1.00  0.00    -0.324 C  
HETATM   15  N   UNL     1     -11.388  14.349  66.406  1.00  0.00    -0.342 NA 
HETATM   16  H   UNL     1     -12.013  13.701  65.927  1.00  0.00     0.000 HD 
HETATM   17  C   UNL     1     -10.894  14.159  67.668  1.00  0.00    -0.260 A  
HETATM   18  C   UNL     1     -10.112  15.267  67.970  1.00  0.00    -0.229 A  
HETATM   19  C   UNL     1      -9.356  15.519  69.237  1.00  0.00    -0.266 C  
BRANCH  17  20
HETATM   20  C   UNL     1     -11.174  13.005  68.445  1.00  0.00    -0.304 C  
HETATM   21  C   UNL     1     -11.897  12.862  69.563  1.00  0.00    -0.383 C  
HETATM   22  C   UNL     1     -12.660  13.852  70.405  1.00  0.00    -0.282 C  
HETATM   23  N   UNL     1     -13.200  13.103  71.445  1.00  0.00    -0.264 N  
HETATM   24  O   UNL     1     -12.783  15.047  70.229  1.00  0.00    -0.329 OA 
HETATM   25  C   UNL     1     -12.857  11.758  71.340  1.00  0.00    -0.335 A  
HETATM   26  H   UNL     1     -13.777  13.490  72.192  1.00  0.00     0.000 HD 
HETATM   27  C   UNL     1     -12.063  11.547  70.209  1.00  0.00    -0.444 A  
HETATM   28  C   UNL     1     -11.604  10.279  69.897  1.00  0.00    -0.326 A  
HETATM   29  C   UNL     1     -11.956   9.237  70.749  1.00  0.00    -0.210 A  
HETATM   30  F   UNL     1     -11.525   7.999  70.476  1.00  0.00    -0.273 F  
HETATM   31  C   UNL     1     -12.748   9.450  71.886  1.00  0.00    -0.484 A  
HETATM   32  C   UNL     1     -13.214  10.732  72.194  1.00  0.00    -0.360 A  
ENDBRANCH  17  20
ENDBRANCH   9  12
ENDBRANCH   7   8
ENDBRANCH   6   7
ENDBRANCH   3   6
ENDBRANCH   2   3
TORSDOF 7
ENDMDL
MODEL       82
REMARK 921   NORMALIZED FREE ENERGY PREDICTED BY IDOCK:   -5.34 KCAL/MOL
REMARK 922        TOTAL FREE ENERGY PREDICTED BY IDOCK:   -8.61 KCAL/MOL
REMARK 923 INTER-LIGAND FREE ENERGY PREDICTED BY IDOCK:   -7.56 KCAL/MOL
REMARK 924 INTRA-LIGAND FREE ENERGY PREDICTED BY IDOCK:   -1.06 KCAL/MOL
REMARK 927      BINDING AFFINITY PREDICTED BY RF-SCORE:    0.00 PKD
ROOT
HETATM    1  C   UNL     1     -10.879  19.506  65.659  1.00  0.00    -0.354 C  
HETATM    2  C   UNL     1      -9.439  19.457  66.161  1.00  0.00    -0.311 C  
ENDROOT
BRANCH   2   3
HETATM    3  N   UNL     1      -9.038  18.180  66.775  1.00  0.00    -0.275 NA 
BRANCH   3   4
HETATM    4  C   UNL     1      -7.632  17.810  66.517  1.00  0.00    -0.256 C  
HETATM    5  C   UNL     1      -6.756  18.873  65.852  1.00  0.00    -0.290 C  
ENDBRANCH   3   4
BRANCH   3   6
HETATM    6  C   UNL     1      -9.323  18.166  68.231  1.00  0.00    -0.303 C  
BRANCH   6   7
HETATM    7  C   UNL     1     -10.608  17.433  68.657  1.00  0.00    -0.318 C  
BRANCH   7   8
HETATM    8  N   UNL     1     -10.708  16.115  68.074  1.00  0.00    -0.310 N  
HETATM    9  C   UNL     1     -11.658  15.222  68.502  1.00  0.00    -0.352 C  
HETATM   10  H   UNL     1     -10.063  15.844  67.332  1.00  0.00     0.000 HD 
HETATM   11  O   UNL     1     -12.471  15.504  69.380  1.00  0.00    -0.197 OA 
BRANCH   9  12
HETATM   12  C   UNL     1     -11.663  13.925  67.820  1.00  0.00    -0.401 A  
HETATM   13  C   UNL     1     -12.002  13.635  66.502  1.00  0.00    -0.424 A  
HETATM   14  C   UNL     1     -12.434  14.478  65.353  1.00  0.00    -0.265 C  
HETATM   15  N   UNL     1     -11.820  12.281  66.310  1.00  0.00    -0.581 NA 
HETATM   16  H   UNL     1     -12.020  11.788  65.439  1.00  0.00     0.000 HD 
HETATM   17  C   UNL     1     -11.335  11.688  67.443  1.00  0.00    -0.300 A  
HETATM   18  C   UNL     1     -11.225  12.682  68.407  1.00  0.00    -0.316 A  
HETATM   19  C   UNL     1     -10.736  12.524  69.813  1.00  0.00     0.594 C  
BRANCH  17  20
HETATM   20  C   UNL     1     -11.019  10.307  67.521  1.00  0.00    -0.344 C  
HETATM   21  C   UNL     1     -10.268   9.538  66.722  1.00  0.00    -0.313 C  
HETATM   22  C   UNL     1      -9.500   9.841  65.461  1.00  0.00    -0.262 C  
HETATM   23  N   UNL     1      -8.924   8.631  65.088  1.00  0.00    -0.405 N  
HETATM   24  O   UNL     1      -9.399  10.904  64.882  1.00  0.00    -0.208 OA 
HETATM   25  C   UNL     1      -9.250   7.613  65.979  1.00  0.00    -0.063 A  
HETATM   26  H   UNL     1      -8.336   8.506  64.264  1.00  0.00     0.000 HD 
HETATM   27  C   UNL     1     -10.066   8.105  67.001  1.00  0.00    -0.350 A  
HETATM   28  C   UNL     1     -10.513   7.268  68.009  1.00  0.00    -0.249 A  
HETATM   29  C   UNL     1     -10.125   5.933  67.960  1.00  0.00    -0.162 A  
HETATM   30  F   UNL     1     -10.544   5.099  68.920  1.00  0.00    -0.267 F  
HETATM   31  C   UNL     1      -9.310   5.440  66.933  1.00  0.00    -0.127 A  
HETATM   32  C   UNL     1      -8.857   6.289  65.918  1.00  0.00    -0.148 A  
ENDBRANCH  17  20
ENDBRANCH   9  12
ENDBRANCH   7   8
ENDBRANCH   6   7
ENDBRANCH   3   6
ENDBRANCH   2   3
TORSDOF 7
ENDMDL
MODEL       83
REMARK 921   NORMALIZED FREE ENERGY PREDICTED BY IDOCK:   -5.32 KCAL/MOL
REMARK 922        TOTAL FREE ENERGY PREDICTED BY IDOCK:   -8.59 KCAL/MOL
REMARK 923 INTER-LIGAND FREE ENERGY PREDICTED BY IDOCK:   -7.51 KCAL/MOL
REMARK 924 INTRA-LIGAND FREE ENERGY PREDICTED BY IDOCK:   -1.08 KCAL/MOL
REMARK 927      BINDING AFFINITY PREDICTED BY RF-SCORE:    0.00 PKD
ROOT
HETATM    1  C   UNL     1     -11.554   9.760  71.290  1.00  0.00    -0.465 C  
HETATM    2  C   UNL     1     -11.056   8.637  72.195  1.00  0.00    -0.364 C  
ENDROOT
BRANCH   2   3
HETATM    3  N   UNL     1     -11.002   7.308  71.563  1.00  0.00    -0.232 NA 
BRANCH   3   4
HETATM    4  C   UNL     1     -11.925   6.324  72.164  1.00  0.00    -0.287 C  
HETATM    5  C   UNL     1     -11.288   5.188  72.965  1.00  0.00    -0.381 C  
ENDBRANCH   3   4
BRANCH   3   6
HETATM    6  C   UNL     1     -11.214   7.394  70.098  1.00  0.00    -0.218 C  
BRANCH   6   7
HETATM    7  C   UNL     1      -9.957   7.221  69.225  1.00  0.00    -0.170 C  
BRANCH   7   8
HETATM    8  N   UNL     1      -9.553   8.455  68.591  1.00  0.00    -0.148 N  
HETATM    9  C   UNL     1     -10.109   8.854  67.401  1.00  0.00    -0.227 C  
HETATM   10  H   UNL     1      -8.844   9.039  69.034  1.00  0.00     0.000 HD 
HETATM   11  O   UNL     1     -10.980   8.197  66.834  1.00  0.00    -0.127 OA 
BRANCH   9  12
HETATM   12  C   UNL     1      -9.623  10.130  66.870  1.00  0.00    -0.219 A  
HETATM   13  C   UNL     1      -8.618  10.360  65.935  1.00  0.00    -0.158 A  
HETATM   14  C   UNL     1      -7.731   9.456  65.152  1.00  0.00    -0.109 C  
HETATM   15  N   UNL     1      -8.542  11.721  65.726  1.00  0.00    -0.385 NA 
HETATM   16  H   UNL     1      -7.869  12.175  65.108  1.00  0.00     0.000 HD 
HETATM   17  C   UNL     1      -9.489  12.381  66.459  1.00  0.00    -0.242 A  
HETATM   18  C   UNL     1     -10.183  11.422  67.186  1.00  0.00    -0.234 A  
HETATM   19  C   UNL     1     -11.318  11.655  68.134  1.00  0.00    -0.358 C  
BRANCH  17  20
HETATM   20  C   UNL     1      -9.665  13.788  66.412  1.00  0.00    -0.304 C  
HETATM   21  C   UNL     1      -9.152  14.758  67.181  1.00  0.00    -0.231 C  
HETATM   22  C   UNL     1      -8.224  14.719  68.368  1.00  0.00    -0.154 C  
HETATM   23  N   UNL     1      -8.060  16.048  68.743  1.00  0.00    -0.198 N  
HETATM   24  O   UNL     1      -7.723  13.746  68.895  1.00  0.00    -0.111 OA 
HETATM   25  C   UNL     1      -8.783  16.906  67.920  1.00  0.00    -0.213 A  
HETATM   26  H   UNL     1      -7.482  16.356  69.525  1.00  0.00     0.000 HD 
HETATM   27  C   UNL     1      -9.469  16.177  66.944  1.00  0.00    -0.245 A  
HETATM   28  C   UNL     1     -10.255  16.824  66.005  1.00  0.00    -0.361 A  
HETATM   29  C   UNL     1     -10.337  18.211  66.077  1.00  0.00    -0.353 A  
HETATM   30  F   UNL     1     -11.092  18.865  65.184  1.00  0.00    -0.376 F  
HETATM   31  C   UNL     1      -9.652  18.940  67.058  1.00  0.00    -0.348 A  
HETATM   32  C   UNL     1      -8.856  18.283  68.002  1.00  0.00    -0.290 A  
ENDBRANCH  17  20
ENDBRANCH   9  12
ENDBRANCH   7   8
ENDBRANCH   6   7
ENDBRANCH   3   6
ENDBRANCH   2   3
TORSDOF 7
ENDMDL
MODEL       84
REMARK 921   NORMALIZED FREE ENERGY PREDICTED BY IDOCK:   -5.32 KCAL/MOL
REMARK 922        TOTAL FREE ENERGY PREDICTED BY IDOCK:   -8.58 KCAL/MOL
REMARK 923 INTER-LIGAND FREE ENERGY PREDICTED BY IDOCK:   -7.54 KCAL/MOL
REMARK 924 INTRA-LIGAND FREE ENERGY PREDICTED BY IDOCK:   -1.03 KCAL/MOL
REMARK 927      BINDING AFFINITY PREDICTED BY RF-SCORE:    0.00 PKD
ROOT
HETATM    1  C   UNL     1      -9.054  17.550  66.702  1.00  0.00    -0.287 C  
HETATM    2  C   UNL     1     -10.162  17.440  67.745  1.00  0.00    -0.345 C  
ENDROOT
BRANCH   2   3
HETATM    3  N   UNL     1     -10.399  16.080  68.258  1.00  0.00    -0.253 NA 
BRANCH   3   4
HETATM    4  C   UNL     1     -10.705  16.034  69.702  1.00  0.00    -0.316 C  
HETATM    5  C   UNL     1     -12.097  15.534  70.091  1.00  0.00    -0.404 C  
ENDBRANCH   3   4
BRANCH   3   6
HETATM    6  C   UNL     1     -11.450  15.382  67.479  1.00  0.00    -0.225 C  
BRANCH   6   7
HETATM    7  C   UNL     1     -10.967  14.625  66.228  1.00  0.00    -0.327 C  
BRANCH   7   8
HETATM    8  N   UNL     1     -10.573  13.267  66.524  1.00  0.00    -0.283 N  
HETATM    9  C   UNL     1     -11.383  12.208  66.197  1.00  0.00    -0.361 C  
HETATM   10  H   UNL     1      -9.680  13.092  66.983  1.00  0.00     0.000 HD 
HETATM   11  O   UNL     1     -12.461  12.361  65.627  1.00  0.00    -0.640 OA 
BRANCH   9  12
HETATM   12  C   UNL     1     -10.861  10.882  66.539  1.00  0.00    -0.234 A  
HETATM   13  C   UNL     1     -10.072  10.031  65.771  1.00  0.00    -0.250 A  
HETATM   14  C   UNL     1      -9.475  10.147  64.411  1.00  0.00    -0.368 C  
HETATM   15  N   UNL     1      -9.804   8.910  66.527  1.00  0.00    -0.253 NA 
HETATM   16  H   UNL     1      -9.267   8.106  66.201  1.00  0.00     0.000 HD 
HETATM   17  C   UNL     1     -10.355   9.019  67.775  1.00  0.00    -0.246 A  
HETATM   18  C   UNL     1     -11.024  10.236  67.819  1.00  0.00    -0.360 A  
HETATM   19  C   UNL     1     -11.782  10.807  68.976  1.00  0.00    -0.357 C  
BRANCH  17  20
HETATM   20  C   UNL     1     -10.207   8.026  68.778  1.00  0.00    -0.220 C  
HETATM   21  C   UNL     1      -9.468   8.019  69.895  1.00  0.00    -0.160 C  
HETATM   22  C   UNL     1      -8.526   9.035  70.488  1.00  0.00    -0.200 C  
HETATM   23  N   UNL     1      -8.052   8.450  71.657  1.00  0.00    -0.133 N  
HETATM   24  O   UNL     1      -8.233  10.129  70.051  1.00  0.00    -0.160 OA 
HETATM   25  C   UNL     1      -8.596   7.184  71.854  1.00  0.00    -0.116 A  
HETATM   26  H   UNL     1      -7.387   8.894  72.292  1.00  0.00     0.000 HD 
HETATM   27  C   UNL     1      -9.471   6.865  70.812  1.00  0.00    -0.165 A  
HETATM   28  C   UNL     1     -10.136   5.651  70.798  1.00  0.00    -0.270 A  
HETATM   29  C   UNL     1      -9.896   4.771  71.848  1.00  0.00    -0.176 A  
HETATM   30  F   UNL     1     -10.522   3.587  71.861  1.00  0.00    -0.198 F  
HETATM   31  C   UNL     1      -9.015   5.090  72.890  1.00  0.00    -0.118 A  
HETATM   32  C   UNL     1      -8.348   6.319  72.903  1.00  0.00    -0.118 A  
ENDBRANCH  17  20
ENDBRANCH   9  12
ENDBRANCH   7   8
ENDBRANCH   6   7
ENDBRANCH   3   6
ENDBRANCH   2   3
TORSDOF 7
ENDMDL
MODEL       85
REMARK 921   NORMALIZED FREE ENERGY PREDICTED BY IDOCK:   -5.29 KCAL/MOL
REMARK 922        TOTAL FREE ENERGY PREDICTED BY IDOCK:   -8.55 KCAL/MOL
REMARK 923 INTER-LIGAND FREE ENERGY PREDICTED BY IDOCK:   -7.86 KCAL/MOL
REMARK 924 INTRA-LIGAND FREE ENERGY PREDICTED BY IDOCK:   -0.69 KCAL/MOL
REMARK 927      BINDING AFFINITY PREDICTED BY RF-SCORE:    0.00 PKD
ROOT
HETATM    1  C   UNL     1      -5.403   5.671  69.680  1.00  0.00    -0.004 C  
HETATM    2  C   UNL     1      -6.408   4.742  69.006  1.00  0.00    -0.032 C  
ENDROOT
BRANCH   2   3
HETATM    3  N   UNL     1      -6.200   4.545  67.562  1.00  0.00    -0.035 NA 
BRANCH   3   4
HETATM    4  C   UNL     1      -5.455   3.314  67.230  1.00  0.00    -0.020 C  
HETATM    5  C   UNL     1      -5.387   2.933  65.750  1.00  0.00    -0.009 C  
ENDBRANCH   3   4
BRANCH   3   6
HETATM    6  C   UNL     1      -7.482   4.596  66.817  1.00  0.00    -0.086 C  
BRANCH   6   7
HETATM    7  C   UNL     1      -7.852   5.962  66.209  1.00  0.00    -0.101 C  
BRANCH   7   8
HETATM    8  N   UNL     1      -8.529   6.819  67.154  1.00  0.00    -0.120 N  
HETATM    9  C   UNL     1      -9.896   6.795  67.280  1.00  0.00    -0.145 C  
HETATM   10  H   UNL     1      -7.984   7.453  67.738  1.00  0.00     0.000 HD 
HETATM   11  O   UNL     1     -10.599   6.037  66.614  1.00  0.00    -0.256 OA 
BRANCH   9  12
HETATM   12  C   UNL     1     -10.458   7.703  68.283  1.00  0.00    -0.219 A  
HETATM   13  C   UNL     1     -10.873   7.418  69.580  1.00  0.00    -0.210 A  
HETATM   14  C   UNL     1     -10.882   6.173  70.397  1.00  0.00    -0.374 C  
HETATM   15  N   UNL     1     -11.297   8.599  70.154  1.00  0.00    -0.435 NA 
HETATM   16  H   UNL     1     -11.682   8.680  71.095  1.00  0.00     0.000 HD 
HETATM   17  C   UNL     1     -11.132   9.648  69.291  1.00  0.00    -0.118 A  
HETATM   18  C   UNL     1     -10.611   9.127  68.113  1.00  0.00    -0.235 A  
HETATM   19  C   UNL     1     -10.256   9.885  66.872  1.00  0.00    -0.302 C  
BRANCH  17  20
HETATM   20  C   UNL     1     -11.450  10.988  69.630  1.00  0.00    -0.375 C  
HETATM   21  C   UNL     1     -12.210  11.481  70.617  1.00  0.00    -0.473 C  
HETATM   22  C   UNL     1     -13.003  10.811  71.710  1.00  0.00    -0.463 C  
HETATM   23  N   UNL     1     -13.587  11.853  72.423  1.00  0.00    -0.470 N  
HETATM   24  O   UNL     1     -13.119   9.623  71.931  1.00  0.00    -0.374 OA 
HETATM   25  C   UNL     1     -13.243  13.093  71.894  1.00  0.00    -0.431 A  
HETATM   26  H   UNL     1     -14.193  11.723  73.234  1.00  0.00     0.000 HD 
HETATM   27  C   UNL     1     -12.401  12.932  70.790  1.00  0.00    -0.385 A  
HETATM   28  C   UNL     1     -11.924  14.035  70.102  1.00  0.00    -0.399 A  
HETATM   29  C   UNL     1     -12.319  15.293  70.545  1.00  0.00    -0.387 A  
HETATM   30  F   UNL     1     -11.877  16.379  69.897  1.00  0.00    -0.239 F  
HETATM   31  C   UNL     1     -13.167  15.453  71.649  1.00  0.00    -0.563 A  
HETATM   32  C   UNL     1     -13.642  14.337  72.344  1.00  0.00    -0.599 A  
ENDBRANCH  17  20
ENDBRANCH   9  12
ENDBRANCH   7   8
ENDBRANCH   6   7
ENDBRANCH   3   6
ENDBRANCH   2   3
TORSDOF 7
ENDMDL
MODEL       86
REMARK 921   NORMALIZED FREE ENERGY PREDICTED BY IDOCK:   -5.29 KCAL/MOL
REMARK 922        TOTAL FREE ENERGY PREDICTED BY IDOCK:   -8.54 KCAL/MOL
REMARK 923 INTER-LIGAND FREE ENERGY PREDICTED BY IDOCK:   -7.56 KCAL/MOL
REMARK 924 INTRA-LIGAND FREE ENERGY PREDICTED BY IDOCK:   -0.98 KCAL/MOL
REMARK 927      BINDING AFFINITY PREDICTED BY RF-SCORE:    0.00 PKD
ROOT
HETATM    1  C   UNL     1      -7.959   8.099  73.603  1.00  0.00    -0.256 C  
HETATM    2  C   UNL     1      -8.816   7.090  74.361  1.00  0.00    -0.201 C  
ENDROOT
BRANCH   2   3
HETATM    3  N   UNL     1      -9.222   5.909  73.581  1.00  0.00    -0.131 NA 
BRANCH   3   4
HETATM    4  C   UNL     1      -8.684   4.637  74.103  1.00  0.00    -0.107 C  
HETATM    5  C   UNL     1      -7.269   4.259  73.660  1.00  0.00    -0.071 C  
ENDBRANCH   3   4
BRANCH   3   6
HETATM    6  C   UNL     1     -10.696   5.833  73.438  1.00  0.00    -0.273 C  
BRANCH   6   7
HETATM    7  C   UNL     1     -11.214   5.237  72.116  1.00  0.00    -0.069 C  
BRANCH   7   8
HETATM    8  N   UNL     1     -11.268   6.217  71.056  1.00  0.00    -0.304 N  
HETATM    9  C   UNL     1     -10.225   6.364  70.175  1.00  0.00    -0.187 C  
HETATM   10  H   UNL     1     -12.093   6.809  70.960  1.00  0.00     0.000 HD 
HETATM   11  O   UNL     1      -9.216   5.665  70.234  1.00  0.00    -0.146 OA 
BRANCH   9  12
HETATM   12  C   UNL     1     -10.411   7.383  69.138  1.00  0.00    -0.208 A  
HETATM   13  C   UNL     1     -10.695   7.210  67.787  1.00  0.00    -0.212 A  
HETATM   14  C   UNL     1     -10.929   6.006  66.942  1.00  0.00    -0.350 C  
HETATM   15  N   UNL     1     -10.812   8.461  67.218  1.00  0.00    -0.461 NA 
HETATM   16  H   UNL     1     -10.991   8.633  66.229  1.00  0.00     0.000 HD 
HETATM   17  C   UNL     1     -10.656   9.441  68.160  1.00  0.00    -0.212 A  
HETATM   18  C   UNL     1     -10.403   8.807  69.369  1.00  0.00    -0.217 A  
HETATM   19  C   UNL     1     -10.167   9.458  70.696  1.00  0.00    -0.353 C  
BRANCH  17  20
HETATM   20  C   UNL     1     -10.763  10.825  67.863  1.00  0.00    -0.282 C  
HETATM   21  C   UNL     1     -10.564  11.489  66.717  1.00  0.00    -0.289 C  
HETATM   22  C   UNL     1     -10.150  11.028  65.343  1.00  0.00    -0.269 C  
HETATM   23  N   UNL     1     -10.106  12.184  64.572  1.00  0.00    -0.365 N  
HETATM   24  O   UNL     1      -9.901   9.898  64.976  1.00  0.00    -0.317 OA 
HETATM   25  C   UNL     1     -10.448  13.310  65.315  1.00  0.00    -0.313 A  
HETATM   26  H   UNL     1      -9.855  12.205  63.583  1.00  0.00     0.000 HD 
HETATM   27  C   UNL     1     -10.742  12.950  66.633  1.00  0.00    -0.280 A  
HETATM   28  C   UNL     1     -11.114  13.909  67.559  1.00  0.00    -0.302 A  
HETATM   29  C   UNL     1     -11.178  15.231  67.130  1.00  0.00    -0.291 A  
HETATM   30  F   UNL     1     -11.532  16.182  68.003  1.00  0.00    -0.340 F  
HETATM   31  C   UNL     1     -10.879  15.592  65.809  1.00  0.00    -0.337 A  
HETATM   32  C   UNL     1     -10.508  14.619  64.876  1.00  0.00    -0.415 A  
ENDBRANCH  17  20
ENDBRANCH   9  12
ENDBRANCH   7   8
ENDBRANCH   6   7
ENDBRANCH   3   6
ENDBRANCH   2   3
TORSDOF 7
ENDMDL
MODEL       87
REMARK 921   NORMALIZED FREE ENERGY PREDICTED BY IDOCK:   -5.28 KCAL/MOL
REMARK 922        TOTAL FREE ENERGY PREDICTED BY IDOCK:   -8.53 KCAL/MOL
REMARK 923 INTER-LIGAND FREE ENERGY PREDICTED BY IDOCK:   -7.26 KCAL/MOL
REMARK 924 INTRA-LIGAND FREE ENERGY PREDICTED BY IDOCK:   -1.28 KCAL/MOL
REMARK 927      BINDING AFFINITY PREDICTED BY RF-SCORE:    0.00 PKD
ROOT
HETATM    1  C   UNL     1     -10.798  16.431  65.162  1.00  0.00    -0.289 C  
HETATM    2  C   UNL     1     -10.498  17.824  65.708  1.00  0.00    -0.198 C  
ENDROOT
BRANCH   2   3
HETATM    3  N   UNL     1      -9.707  17.847  66.950  1.00  0.00    -0.296 NA 
BRANCH   3   4
HETATM    4  C   UNL     1      -9.241  19.195  67.334  1.00  0.00    -0.298 C  
HETATM    5  C   UNL     1     -10.252  20.089  68.054  1.00  0.00    -0.538 C  
ENDBRANCH   3   4
BRANCH   3   6
HETATM    6  C   UNL     1     -10.439  17.208  68.071  1.00  0.00    -0.369 C  
BRANCH   6   7
HETATM    7  C   UNL     1      -9.653  16.153  68.871  1.00  0.00    -0.245 C  
BRANCH   7   8
HETATM    8  N   UNL     1     -10.138  14.812  68.637  1.00  0.00    -0.231 N  
HETATM    9  C   UNL     1      -9.574  14.013  67.675  1.00  0.00    -0.221 C  
HETATM   10  H   UNL     1     -10.913  14.454  69.196  1.00  0.00     0.000 HD 
HETATM   11  O   UNL     1      -8.627  14.388  66.987  1.00  0.00    -0.214 OA 
BRANCH   9  12
HETATM   12  C   UNL     1     -10.148  12.671  67.548  1.00  0.00    -0.212 A  
HETATM   13  C   UNL     1     -11.309  12.279  66.888  1.00  0.00    -0.333 A  
HETATM   14  C   UNL     1     -12.327  13.019  66.092  1.00  0.00    -0.335 C  
HETATM   15  N   UNL     1     -11.421  10.910  67.014  1.00  0.00    -0.357 NA 
HETATM   16  H   UNL     1     -12.196  10.357  66.648  1.00  0.00     0.000 HD 
HETATM   17  C   UNL     1     -10.353  10.393  67.695  1.00  0.00    -0.219 A  
HETATM   18  C   UNL     1      -9.538  11.461  68.045  1.00  0.00    -0.184 A  
HETATM   19  C   UNL     1      -8.246  11.401  68.799  1.00  0.00    -0.107 C  
BRANCH  17  20
HETATM   20  C   UNL     1     -10.188   9.005  67.940  1.00  0.00    -0.272 C  
HETATM   21  C   UNL     1     -10.307   8.299  69.072  1.00  0.00    -0.233 C  
HETATM   22  C   UNL     1     -10.644   8.706  70.484  1.00  0.00    -0.217 C  
HETATM   23  N   UNL     1     -10.608   7.526  71.219  1.00  0.00    -0.215 N  
HETATM   24  O   UNL     1     -10.892   9.818  70.904  1.00  0.00    -0.310 OA 
HETATM   25  C   UNL     1     -10.287   6.433  70.419  1.00  0.00    -0.205 A  
HETATM   26  H   UNL     1     -10.794   7.468  72.220  1.00  0.00     0.000 HD 
HETATM   27  C   UNL     1     -10.094   6.841  69.096  1.00  0.00    -0.180 A  
HETATM   28  C   UNL     1      -9.769   5.919  68.115  1.00  0.00    -0.143 A  
HETATM   29  C   UNL     1      -9.638   4.588  68.498  1.00  0.00    -0.149 A  
HETATM   30  F   UNL     1      -9.321   3.673  67.573  1.00  0.00    -0.164 F  
HETATM   31  C   UNL     1      -9.827   4.181  69.826  1.00  0.00    -0.220 A  
HETATM   32  C   UNL     1     -10.160   5.114  70.812  1.00  0.00    -0.303 A  
ENDBRANCH  17  20
ENDBRANCH   9  12
ENDBRANCH   7   8
ENDBRANCH   6   7
ENDBRANCH   3   6
ENDBRANCH   2   3
TORSDOF 7
ENDMDL
MODEL       88
REMARK 921   NORMALIZED FREE ENERGY PREDICTED BY IDOCK:   -5.24 KCAL/MOL
REMARK 922        TOTAL FREE ENERGY PREDICTED BY IDOCK:   -8.47 KCAL/MOL
REMARK 923 INTER-LIGAND FREE ENERGY PREDICTED BY IDOCK:   -7.52 KCAL/MOL
REMARK 924 INTRA-LIGAND FREE ENERGY PREDICTED BY IDOCK:   -0.95 KCAL/MOL
REMARK 927      BINDING AFFINITY PREDICTED BY RF-SCORE:    0.00 PKD
ROOT
HETATM    1  C   UNL     1      -7.029  13.145  67.512  1.00  0.00    -0.155 C  
HETATM    2  C   UNL     1      -6.975  14.663  67.662  1.00  0.00    -0.184 C  
ENDROOT
BRANCH   2   3
HETATM    3  N   UNL     1      -8.287  15.322  67.776  1.00  0.00    -0.147 NA 
BRANCH   3   4
HETATM    4  C   UNL     1      -8.439  16.501  66.900  1.00  0.00    -0.212 C  
HETATM    5  C   UNL     1      -7.149  17.150  66.396  1.00  0.00    -0.310 C  
ENDBRANCH   3   4
BRANCH   3   6
HETATM    6  C   UNL     1      -9.397  14.363  67.559  1.00  0.00    -0.198 C  
BRANCH   6   7
HETATM    7  C   UNL     1     -10.686  14.635  68.356  1.00  0.00    -0.241 C  
BRANCH   7   8
HETATM    8  N   UNL     1     -10.946  13.615  69.345  1.00  0.00    -0.426 N  
HETATM    9  C   UNL     1     -11.702  12.510  69.042  1.00  0.00    -0.318 C  
HETATM   10  H   UNL     1     -10.562  13.717  70.285  1.00  0.00     0.000 HD 
HETATM   11  O   UNL     1     -12.173  12.329  67.921  1.00  0.00    -0.409 OA 
BRANCH   9  12
HETATM   12  C   UNL     1     -11.879  11.544  70.130  1.00  0.00    -0.440 A  
HETATM   13  C   UNL     1     -12.601  11.684  71.311  1.00  0.00    -0.320 A  
HETATM   14  C   UNL     1     -13.433  12.785  71.871  1.00  0.00    -0.452 C  
HETATM   15  N   UNL     1     -12.504  10.497  72.006  1.00  0.00    -0.147 NA 
HETATM   16  H   UNL     1     -12.916  10.328  72.924  1.00  0.00     0.000 HD 
HETATM   17  C   UNL     1     -11.780   9.575  71.299  1.00  0.00    -0.370 A  
HETATM   18  C   UNL     1     -11.373  10.193  70.124  1.00  0.00    -0.372 A  
HETATM   19  C   UNL     1     -10.558   9.588  69.023  1.00  0.00    -0.238 C  
BRANCH  17  20
HETATM   20  C   UNL     1     -11.550   8.253  71.758  1.00  0.00    -0.356 C  
HETATM   21  C   UNL     1     -10.419   7.647  72.142  1.00  0.00    -0.270 C  
HETATM   22  C   UNL     1      -8.993   8.129  72.218  1.00  0.00    -0.189 C  
HETATM   23  N   UNL     1      -8.267   7.038  72.685  1.00  0.00    -0.108 N  
HETATM   24  O   UNL     1      -8.556   9.226  71.934  1.00  0.00    -0.268 OA 
HETATM   25  C   UNL     1      -9.085   5.935  72.907  1.00  0.00    -0.121 A  
HETATM   26  H   UNL     1      -7.259   7.046  72.845  1.00  0.00     0.000 HD 
HETATM   27  C   UNL     1     -10.412   6.245  72.596  1.00  0.00    -0.234 A  
HETATM   28  C   UNL     1     -11.410   5.297  72.745  1.00  0.00    -0.342 A  
HETATM   29  C   UNL     1     -11.041   4.037  73.205  1.00  0.00    -0.203 A  
HETATM   30  F   UNL     1     -11.984   3.098  73.356  1.00  0.00    -0.247 F  
HETATM   31  C   UNL     1      -9.710   3.726  73.512  1.00  0.00    -0.142 A  
HETATM   32  C   UNL     1      -8.706   4.687  73.365  1.00  0.00    -0.100 A  
ENDBRANCH  17  20
ENDBRANCH   9  12
ENDBRANCH   7   8
ENDBRANCH   6   7
ENDBRANCH   3   6
ENDBRANCH   2   3
TORSDOF 7
ENDMDL
MODEL       89
REMARK 921   NORMALIZED FREE ENERGY PREDICTED BY IDOCK:   -5.23 KCAL/MOL
REMARK 922        TOTAL FREE ENERGY PREDICTED BY IDOCK:   -8.46 KCAL/MOL
REMARK 923 INTER-LIGAND FREE ENERGY PREDICTED BY IDOCK:   -7.65 KCAL/MOL
REMARK 924 INTRA-LIGAND FREE ENERGY PREDICTED BY IDOCK:   -0.80 KCAL/MOL
REMARK 927      BINDING AFFINITY PREDICTED BY RF-SCORE:    0.00 PKD
ROOT
HETATM    1  C   UNL     1      -8.291  17.458  68.379  1.00  0.00    -0.263 C  
HETATM    2  C   UNL     1      -9.580  18.272  68.439  1.00  0.00    -0.335 C  
ENDROOT
BRANCH   2   3
HETATM    3  N   UNL     1     -10.544  17.989  67.362  1.00  0.00    -0.386 NA 
BRANCH   3   4
HETATM    4  C   UNL     1     -10.488  18.951  66.243  1.00  0.00    -0.445 C  
HETATM    5  C   UNL     1      -9.819  20.296  66.531  1.00  0.00    -0.531 C  
ENDBRANCH   3   4
BRANCH   3   6
HETATM    6  C   UNL     1     -10.407  16.599  66.863  1.00  0.00    -0.299 C  
BRANCH   6   7
HETATM    7  C   UNL     1     -11.269  15.541  67.576  1.00  0.00    -0.272 C  
BRANCH   7   8
HETATM    8  N   UNL     1     -10.906  14.193  67.203  1.00  0.00    -0.287 N  
HETATM    9  C   UNL     1     -11.716  13.440  66.391  1.00  0.00    -0.368 C  
HETATM   10  H   UNL     1     -10.032  13.795  67.549  1.00  0.00     0.000 HD 
HETATM   11  O   UNL     1     -12.769  13.877  65.933  1.00  0.00    -0.489 OA 
BRANCH   9  12
HETATM   12  C   UNL     1     -11.227  12.094  66.078  1.00  0.00    -0.382 A  
HETATM   13  C   UNL     1     -10.756  11.599  64.866  1.00  0.00    -0.296 A  
HETATM   14  C   UNL     1     -10.560  12.211  63.523  1.00  0.00    -0.501 C  
HETATM   15  N   UNL     1     -10.376  10.289  65.067  1.00  0.00    -0.217 NA 
HETATM   16  H   UNL     1     -10.018   9.671  64.338  1.00  0.00     0.000 HD 
HETATM   17  C   UNL     1     -10.542   9.927  66.376  1.00  0.00    -0.056 A  
HETATM   18  C   UNL     1     -11.072  11.028  67.038  1.00  0.00    -0.311 A  
HETATM   19  C   UNL     1     -11.425  11.124  68.489  1.00  0.00    -0.371 C  
BRANCH  17  20
HETATM   20  C   UNL     1     -10.197   8.646  66.877  1.00  0.00    -0.367 C  
HETATM   21  C   UNL     1      -9.190   7.824  66.550  1.00  0.00    -0.229 C  
HETATM   22  C   UNL     1      -8.077   7.944  65.542  1.00  0.00    -0.130 C  
HETATM   23  N   UNL     1      -7.350   6.765  65.662  1.00  0.00    -0.076 N  
HETATM   24  O   UNL     1      -7.852   8.863  64.780  1.00  0.00    -0.109 OA 
HETATM   25  C   UNL     1      -7.890   5.928  66.634  1.00  0.00    -0.101 A  
HETATM   26  H   UNL     1      -6.524   6.541  65.107  1.00  0.00     0.000 HD 
HETATM   27  C   UNL     1      -9.014   6.520  67.215  1.00  0.00    -0.114 A  
HETATM   28  C   UNL     1      -9.716   5.870  68.215  1.00  0.00    -0.147 A  
HETATM   29  C   UNL     1      -9.264   4.614  68.609  1.00  0.00    -0.126 A  
HETATM   30  F   UNL     1      -9.924   3.958  69.572  1.00  0.00    -0.270 F  
HETATM   31  C   UNL     1      -8.139   4.018  68.023  1.00  0.00    -0.088 A  
HETATM   32  C   UNL     1      -7.431   4.681  67.016  1.00  0.00    -0.086 A  
ENDBRANCH  17  20
ENDBRANCH   9  12
ENDBRANCH   7   8
ENDBRANCH   6   7
ENDBRANCH   3   6
ENDBRANCH   2   3
TORSDOF 7
ENDMDL
MODEL       90
REMARK 921   NORMALIZED FREE ENERGY PREDICTED BY IDOCK:   -5.22 KCAL/MOL
REMARK 922        TOTAL FREE ENERGY PREDICTED BY IDOCK:   -8.44 KCAL/MOL
REMARK 923 INTER-LIGAND FREE ENERGY PREDICTED BY IDOCK:   -7.17 KCAL/MOL
REMARK 924 INTRA-LIGAND FREE ENERGY PREDICTED BY IDOCK:   -1.27 KCAL/MOL
REMARK 927      BINDING AFFINITY PREDICTED BY RF-SCORE:    0.00 PKD
ROOT
HETATM    1  C   UNL     1      -9.644   2.817  70.678  1.00  0.00    -0.174 C  
HETATM    2  C   UNL     1      -9.777   4.217  70.087  1.00  0.00    -0.212 C  
ENDROOT
BRANCH   2   3
HETATM    3  N   UNL     1      -9.734   5.313  71.070  1.00  0.00    -0.174 NA 
BRANCH   3   4
HETATM    4  C   UNL     1     -11.034   5.583  71.718  1.00  0.00    -0.182 C  
HETATM    5  C   UNL     1     -11.152   5.211  73.196  1.00  0.00    -0.391 C  
ENDBRANCH   3   4
BRANCH   3   6
HETATM    6  C   UNL     1      -8.680   5.086  72.089  1.00  0.00    -0.129 C  
BRANCH   6   7
HETATM    7  C   UNL     1      -7.726   6.268  72.342  1.00  0.00    -0.102 C  
BRANCH   7   8
HETATM    8  N   UNL     1      -7.830   7.287  71.324  1.00  0.00    -0.095 N  
HETATM    9  C   UNL     1      -8.370   8.517  71.606  1.00  0.00    -0.165 C  
HETATM   10  H   UNL     1      -7.498   7.090  70.380  1.00  0.00     0.000 HD 
HETATM   11  O   UNL     1      -8.769   8.813  72.731  1.00  0.00    -0.398 OA 
BRANCH   9  12
HETATM   12  C   UNL     1      -8.406   9.466  70.490  1.00  0.00    -0.233 A  
HETATM   13  C   UNL     1      -7.402  10.314  70.034  1.00  0.00    -0.149 A  
HETATM   14  C   UNL     1      -5.995  10.548  70.462  1.00  0.00    -0.117 C  
HETATM   15  N   UNL     1      -7.891  10.993  68.938  1.00  0.00    -0.137 NA 
HETATM   16  H   UNL     1      -7.374  11.703  68.419  1.00  0.00     0.000 HD 
HETATM   17  C   UNL     1      -9.162  10.585  68.638  1.00  0.00    -0.172 A  
HETATM   18  C   UNL     1      -9.518   9.634  69.585  1.00  0.00    -0.226 A  
HETATM   19  C   UNL     1     -10.815   8.892  69.675  1.00  0.00    -0.186 C  
BRANCH  17  20
HETATM   20  C   UNL     1      -9.898  11.089  67.534  1.00  0.00    -0.190 C  
HETATM   21  C   UNL     1     -10.108  12.348  67.129  1.00  0.00    -0.221 C  
HETATM   22  C   UNL     1      -9.661  13.676  67.686  1.00  0.00    -0.221 C  
HETATM   23  N   UNL     1     -10.203  14.628  66.830  1.00  0.00    -0.264 N  
HETATM   24  O   UNL     1      -8.979  13.884  68.668  1.00  0.00    -0.166 OA 
HETATM   25  C   UNL     1     -10.935  14.038  65.804  1.00  0.00    -0.294 A  
HETATM   26  H   UNL     1     -10.078  15.635  66.940  1.00  0.00     0.000 HD 
HETATM   27  C   UNL     1     -10.913  12.647  65.930  1.00  0.00    -0.310 A  
HETATM   28  C   UNL     1     -11.573  11.845  65.015  1.00  0.00    -0.277 A  
HETATM   29  C   UNL     1     -12.257  12.476  63.980  1.00  0.00    -0.480 A  
HETATM   30  F   UNL     1     -12.909  11.728  63.080  1.00  0.00    -0.714 F  
HETATM   31  C   UNL     1     -12.283  13.871  63.856  1.00  0.00    -0.375 A  
HETATM   32  C   UNL     1     -11.611  14.677  64.781  1.00  0.00    -0.418 A  
ENDBRANCH  17  20
ENDBRANCH   9  12
ENDBRANCH   7   8
ENDBRANCH   6   7
ENDBRANCH   3   6
ENDBRANCH   2   3
TORSDOF 7
ENDMDL
MODEL       91
REMARK 921   NORMALIZED FREE ENERGY PREDICTED BY IDOCK:   -5.19 KCAL/MOL
REMARK 922        TOTAL FREE ENERGY PREDICTED BY IDOCK:   -8.40 KCAL/MOL
REMARK 923 INTER-LIGAND FREE ENERGY PREDICTED BY IDOCK:   -7.53 KCAL/MOL
REMARK 924 INTRA-LIGAND FREE ENERGY PREDICTED BY IDOCK:   -0.87 KCAL/MOL
REMARK 927      BINDING AFFINITY PREDICTED BY RF-SCORE:    0.00 PKD
ROOT
HETATM    1  C   UNL     1     -10.457   8.164  72.494  1.00  0.00    -0.409 C  
HETATM    2  C   UNL     1      -9.726   7.029  71.783  1.00  0.00    -0.158 C  
ENDROOT
BRANCH   2   3
HETATM    3  N   UNL     1     -10.043   6.886  70.352  1.00  0.00    -0.187 NA 
BRANCH   3   4
HETATM    4  C   UNL     1     -10.592   5.562  69.994  1.00  0.00    -0.314 C  
HETATM    5  C   UNL     1      -9.789   4.343  70.450  1.00  0.00    -0.286 C  
ENDBRANCH   3   4
BRANCH   3   6
HETATM    6  C   UNL     1     -10.943   7.968  69.885  1.00  0.00    -0.172 C  
BRANCH   6   7
HETATM    7  C   UNL     1     -10.774   8.395  68.415  1.00  0.00    -0.023 C  
BRANCH   7   8
HETATM    8  N   UNL     1     -10.054   9.640  68.284  1.00  0.00    -0.170 N  
HETATM    9  C   UNL     1      -9.979  10.291  67.078  1.00  0.00    -0.201 C  
HETATM   10  H   UNL     1      -9.593  10.043  69.100  1.00  0.00     0.000 HD 
HETATM   11  O   UNL     1     -10.531   9.860  66.068  1.00  0.00    -0.170 OA 
BRANCH   9  12
HETATM   12  C   UNL     1      -9.231  11.552  67.082  1.00  0.00    -0.171 A  
HETATM   13  C   UNL     1      -7.854  11.747  67.116  1.00  0.00    -0.166 A  
HETATM   14  C   UNL     1      -6.693  10.815  67.134  1.00  0.00    -0.084 C  
HETATM   15  N   UNL     1      -7.621  13.106  67.071  1.00  0.00    -0.383 NA 
HETATM   16  H   UNL     1      -6.698  13.537  67.110  1.00  0.00     0.000 HD 
HETATM   17  C   UNL     1      -8.797  13.799  66.966  1.00  0.00    -0.218 A  
HETATM   18  C   UNL     1      -9.823  12.863  66.971  1.00  0.00    -0.233 A  
HETATM   19  C   UNL     1     -11.291  13.135  66.873  1.00  0.00    -0.355 C  
BRANCH  17  20
HETATM   20  C   UNL     1      -8.856  15.213  66.863  1.00  0.00    -0.284 C  
HETATM   21  C   UNL     1      -9.399  16.124  67.682  1.00  0.00    -0.214 C  
HETATM   22  C   UNL     1     -10.142  15.993  68.986  1.00  0.00    -0.239 C  
HETATM   23  N   UNL     1     -10.463  17.296  69.353  1.00  0.00    -0.322 N  
HETATM   24  O   UNL     1     -10.414  14.978  69.595  1.00  0.00    -0.241 OA 
HETATM   25  C   UNL     1      -9.999  18.219  68.421  1.00  0.00    -0.382 A  
HETATM   26  H   UNL     1     -10.973  17.544  70.200  1.00  0.00     0.000 HD 
HETATM   27  C   UNL     1      -9.338  17.565  67.377  1.00  0.00    -0.249 A  
HETATM   28  C   UNL     1      -8.785  18.285  66.332  1.00  0.00    -0.260 A  
HETATM   29  C   UNL     1      -8.920  19.670  66.360  1.00  0.00    -0.378 A  
HETATM   30  F   UNL     1      -8.399  20.394  65.361  1.00  0.00    -0.140 F  
HETATM   31  C   UNL     1      -9.586  20.325  67.404  1.00  0.00    -0.569 A  
HETATM   32  C   UNL     1     -10.139  19.594  68.460  1.00  0.00    -0.557 A  
ENDBRANCH  17  20
ENDBRANCH   9  12
ENDBRANCH   7   8
ENDBRANCH   6   7
ENDBRANCH   3   6
ENDBRANCH   2   3
TORSDOF 7
ENDMDL
MODEL       92
REMARK 921   NORMALIZED FREE ENERGY PREDICTED BY IDOCK:   -5.17 KCAL/MOL
REMARK 922        TOTAL FREE ENERGY PREDICTED BY IDOCK:   -8.38 KCAL/MOL
REMARK 923 INTER-LIGAND FREE ENERGY PREDICTED BY IDOCK:   -7.35 KCAL/MOL
REMARK 924 INTRA-LIGAND FREE ENERGY PREDICTED BY IDOCK:   -1.03 KCAL/MOL
REMARK 927      BINDING AFFINITY PREDICTED BY RF-SCORE:    0.00 PKD
ROOT
HETATM    1  C   UNL     1      -6.891   8.326  66.298  1.00  0.00    -0.065 C  
HETATM    2  C   UNL     1      -7.638   7.230  65.544  1.00  0.00    -0.097 C  
ENDROOT
BRANCH   2   3
HETATM    3  N   UNL     1      -8.986   6.930  66.057  1.00  0.00    -0.139 NA 
BRANCH   3   4
HETATM    4  C   UNL     1      -9.179   5.514  66.430  1.00  0.00    -0.150 C  
HETATM    5  C   UNL     1      -8.273   4.968  67.535  1.00  0.00    -0.106 C  
ENDBRANCH   3   4
BRANCH   3   6
HETATM    6  C   UNL     1      -9.347   7.822  67.185  1.00  0.00    -0.150 C  
BRANCH   6   7
HETATM    7  C   UNL     1     -10.592   8.702  66.973  1.00  0.00    -0.223 C  
BRANCH   7   8
HETATM    8  N   UNL     1     -10.256  10.024  66.494  1.00  0.00    -0.233 N  
HETATM    9  C   UNL     1     -11.012  11.116  66.841  1.00  0.00    -0.273 C  
HETATM   10  H   UNL     1      -9.445  10.147  65.888  1.00  0.00     0.000 HD 
HETATM   11  O   UNL     1     -11.988  11.026  67.582  1.00  0.00    -0.583 OA 
BRANCH   9  12
HETATM   12  C   UNL     1     -10.556  12.400  66.300  1.00  0.00    -0.277 A  
HETATM   13  C   UNL     1     -10.572  12.845  64.982  1.00  0.00    -0.315 A  
HETATM   14  C   UNL     1     -11.047  12.238  63.708  1.00  0.00    -0.507 C  
HETATM   15  N   UNL     1     -10.073  14.131  64.968  1.00  0.00    -0.569 NA 
HETATM   16  H   UNL     1      -9.945  14.692  64.126  1.00  0.00     0.000 HD 
HETATM   17  C   UNL     1      -9.774  14.553  66.234  1.00  0.00    -0.309 A  
HETATM   18  C   UNL     1     -10.062  13.500  67.093  1.00  0.00    -0.245 A  
HETATM   19  C   UNL     1      -9.903  13.480  68.581  1.00  0.00    -0.128 C  
BRANCH  17  20
HETATM   20  C   UNL     1      -9.278  15.851  66.522  1.00  0.00    -0.310 C  
HETATM   21  C   UNL     1      -8.079  16.246  66.970  1.00  0.00    -0.244 C  
HETATM   22  C   UNL     1      -6.836  15.477  67.339  1.00  0.00    -0.189 C  
HETATM   23  N   UNL     1      -5.920  16.442  67.743  1.00  0.00    -0.121 N  
HETATM   24  O   UNL     1      -6.659  14.277  67.300  1.00  0.00    -0.278 OA 
HETATM   25  C   UNL     1      -6.457  17.724  67.665  1.00  0.00    -0.178 A  
HETATM   26  H   UNL     1      -4.972  16.237  68.058  1.00  0.00     0.000 HD 
HETATM   27  C   UNL     1      -7.773  17.670  67.196  1.00  0.00    -0.228 A  
HETATM   28  C   UNL     1      -8.510  18.830  67.031  1.00  0.00    -0.289 A  
HETATM   29  C   UNL     1      -7.896  20.037  67.354  1.00  0.00    -0.295 A  
HETATM   30  F   UNL     1      -8.584  21.176  67.208  1.00  0.00    -0.367 F  
HETATM   31  C   UNL     1      -6.578  20.089  67.828  1.00  0.00    -0.277 A  
HETATM   32  C   UNL     1      -5.836  18.915  67.988  1.00  0.00    -0.205 A  
ENDBRANCH  17  20
ENDBRANCH   9  12
ENDBRANCH   7   8
ENDBRANCH   6   7
ENDBRANCH   3   6
ENDBRANCH   2   3
TORSDOF 7
ENDMDL
MODEL       93
REMARK 921   NORMALIZED FREE ENERGY PREDICTED BY IDOCK:   -5.16 KCAL/MOL
REMARK 922        TOTAL FREE ENERGY PREDICTED BY IDOCK:   -8.35 KCAL/MOL
REMARK 923 INTER-LIGAND FREE ENERGY PREDICTED BY IDOCK:   -7.73 KCAL/MOL
REMARK 924 INTRA-LIGAND FREE ENERGY PREDICTED BY IDOCK:   -0.62 KCAL/MOL
REMARK 927      BINDING AFFINITY PREDICTED BY RF-SCORE:    0.00 PKD
ROOT
HETATM    1  C   UNL     1      -7.232   6.576  65.717  1.00  0.00    -0.070 C  
HETATM    2  C   UNL     1      -8.056   5.784  64.706  1.00  0.00    -0.132 C  
ENDROOT
BRANCH   2   3
HETATM    3  N   UNL     1      -9.053   4.874  65.295  1.00  0.00    -0.155 NA 
BRANCH   3   4
HETATM    4  C   UNL     1      -9.303   3.663  64.488  1.00  0.00    -0.149 C  
HETATM    5  C   UNL     1     -10.527   3.692  63.572  1.00  0.00    -0.255 C  
ENDBRANCH   3   4
BRANCH   3   6
HETATM    6  C   UNL     1      -8.698   4.509  66.688  1.00  0.00    -0.111 C  
BRANCH   6   7
HETATM    7  C   UNL     1      -9.877   4.143  67.608  1.00  0.00    -0.065 C  
BRANCH   7   8
HETATM    8  N   UNL     1     -10.475   5.306  68.224  1.00  0.00    -0.117 N  
HETATM    9  C   UNL     1      -9.945   5.854  69.365  1.00  0.00    -0.178 C  
HETATM   10  H   UNL     1     -11.304   5.726  67.804  1.00  0.00     0.000 HD 
HETATM   11  O   UNL     1      -8.937   5.398  69.901  1.00  0.00    -0.121 OA 
BRANCH   9  12
HETATM   12  C   UNL     1     -10.637   7.038  69.881  1.00  0.00    -0.249 A  
HETATM   13  C   UNL     1     -11.490   7.141  70.975  1.00  0.00    -0.297 A  
HETATM   14  C   UNL     1     -11.973   6.160  71.986  1.00  0.00    -0.310 C  
HETATM   15  N   UNL     1     -11.869   8.463  71.089  1.00  0.00    -0.287 NA 
HETATM   16  H   UNL     1     -12.517   8.821  71.791  1.00  0.00     0.000 HD 
HETATM   17  C   UNL     1     -11.259   9.230  70.134  1.00  0.00    -0.208 A  
HETATM   18  C   UNL     1     -10.483   8.375  69.361  1.00  0.00    -0.222 A  
HETATM   19  C   UNL     1      -9.624   8.747  68.193  1.00  0.00    -0.162 C  
BRANCH  17  20
HETATM   20  C   UNL     1     -11.437  10.634  70.037  1.00  0.00    -0.404 C  
HETATM   21  C   UNL     1     -12.208  11.466  70.750  1.00  0.00    -0.475 C  
HETATM   22  C   UNL     1     -13.163  11.228  71.891  1.00  0.00    -0.386 C  
HETATM   23  N   UNL     1     -13.671  12.484  72.206  1.00  0.00    -0.501 N  
HETATM   24  O   UNL     1     -13.441  10.175  72.428  1.00  0.00    -0.338 OA 
HETATM   25  C   UNL     1     -13.136  13.473  71.386  1.00  0.00    -0.305 A  
HETATM   26  H   UNL     1     -14.351  12.659  72.945  1.00  0.00     0.000 HD 
HETATM   27  C   UNL     1     -12.233  12.915  70.477  1.00  0.00    -0.395 A  
HETATM   28  C   UNL     1     -11.570  13.713  69.561  1.00  0.00    -0.361 A  
HETATM   29  C   UNL     1     -11.842  15.078  69.578  1.00  0.00    -0.330 A  
HETATM   30  F   UNL     1     -11.219  15.876  68.701  1.00  0.00    -0.278 F  
HETATM   31  C   UNL     1     -12.751  15.637  70.487  1.00  0.00    -0.391 A  
HETATM   32  C   UNL     1     -13.414  14.827  71.413  1.00  0.00    -0.477 A  
ENDBRANCH  17  20
ENDBRANCH   9  12
ENDBRANCH   7   8
ENDBRANCH   6   7
ENDBRANCH   3   6
ENDBRANCH   2   3
TORSDOF 7
ENDMDL
MODEL       94
REMARK 921   NORMALIZED FREE ENERGY PREDICTED BY IDOCK:   -5.14 KCAL/MOL
REMARK 922        TOTAL FREE ENERGY PREDICTED BY IDOCK:   -8.33 KCAL/MOL
REMARK 923 INTER-LIGAND FREE ENERGY PREDICTED BY IDOCK:   -7.29 KCAL/MOL
REMARK 924 INTRA-LIGAND FREE ENERGY PREDICTED BY IDOCK:   -1.04 KCAL/MOL
REMARK 927      BINDING AFFINITY PREDICTED BY RF-SCORE:    0.00 PKD
ROOT
HETATM    1  C   UNL     1     -10.640  19.795  66.153  1.00  0.00    -0.569 C  
HETATM    2  C   UNL     1      -9.306  19.571  66.858  1.00  0.00    -0.346 C  
ENDROOT
BRANCH   2   3
HETATM    3  N   UNL     1      -9.057  18.186  67.292  1.00  0.00    -0.250 NA 
BRANCH   3   4
HETATM    4  C   UNL     1      -7.657  17.750  67.118  1.00  0.00    -0.203 C  
HETATM    5  C   UNL     1      -6.640  18.301  68.120  1.00  0.00    -0.205 C  
ENDBRANCH   3   4
BRANCH   3   6
HETATM    6  C   UNL     1      -9.503  17.967  68.689  1.00  0.00    -0.298 C  
BRANCH   6   7
HETATM    7  C   UNL     1     -10.723  17.045  68.868  1.00  0.00    -0.300 C  
BRANCH   7   8
HETATM    8  N   UNL     1     -10.671  15.889  68.003  1.00  0.00    -0.291 N  
HETATM    9  C   UNL     1     -11.443  14.782  68.253  1.00  0.00    -0.317 C  
HETATM   10  H   UNL     1     -10.051  15.895  67.193  1.00  0.00     0.000 HD 
HETATM   11  O   UNL     1     -12.221  14.730  69.203  1.00  0.00    -0.262 OA 
BRANCH   9  12
HETATM   12  C   UNL     1     -11.307  13.684  67.292  1.00  0.00    -0.346 A  
HETATM   13  C   UNL     1     -12.031  13.451  66.127  1.00  0.00    -0.413 A  
HETATM   14  C   UNL     1     -13.128  14.191  65.444  1.00  0.00    -0.165 C  
HETATM   15  N   UNL     1     -11.521  12.313  65.537  1.00  0.00    -0.350 NA 
HETATM   16  H   UNL     1     -11.883  11.894  64.680  1.00  0.00     0.000 HD 
HETATM   17  C   UNL     1     -10.464  11.823  66.254  1.00  0.00    -0.244 A  
HETATM   18  C   UNL     1     -10.302  12.651  67.357  1.00  0.00    -0.224 A  
HETATM   19  C   UNL     1      -9.271  12.525  68.435  1.00  0.00    -0.139 C  
BRANCH  17  20
HETATM   20  C   UNL     1      -9.723  10.679  65.858  1.00  0.00    -0.273 C  
HETATM   21  C   UNL     1      -9.353  10.258  64.642  1.00  0.00    -0.320 C  
HETATM   22  C   UNL     1      -9.589  10.821  63.264  1.00  0.00    -0.350 C  
HETATM   23  N   UNL     1      -8.964   9.931  62.397  1.00  0.00    -0.251 N  
HETATM   24  O   UNL     1     -10.194  11.830  62.961  1.00  0.00    -0.366 OA 
HETATM   25  C   UNL     1      -8.367   8.880  63.085  1.00  0.00    -0.185 A  
HETATM   26  H   UNL     1      -8.945  10.037  61.383  1.00  0.00     0.000 HD 
HETATM   27  C   UNL     1      -8.567   9.024  64.461  1.00  0.00    -0.181 A  
HETATM   28  C   UNL     1      -8.056   8.093  65.349  1.00  0.00    -0.130 A  
HETATM   29  C   UNL     1      -7.347   7.018  64.821  1.00  0.00    -0.085 A  
HETATM   30  F   UNL     1      -6.843   6.100  65.655  1.00  0.00    -0.047 F  
HETATM   31  C   UNL     1      -7.150   6.872  63.441  1.00  0.00    -0.060 A  
HETATM   32  C   UNL     1      -7.665   7.817  62.548  1.00  0.00    -0.124 A  
ENDBRANCH  17  20
ENDBRANCH   9  12
ENDBRANCH   7   8
ENDBRANCH   6   7
ENDBRANCH   3   6
ENDBRANCH   2   3
TORSDOF 7
ENDMDL
MODEL       95
REMARK 921   NORMALIZED FREE ENERGY PREDICTED BY IDOCK:   -5.13 KCAL/MOL
REMARK 922        TOTAL FREE ENERGY PREDICTED BY IDOCK:   -8.32 KCAL/MOL
REMARK 923 INTER-LIGAND FREE ENERGY PREDICTED BY IDOCK:   -7.22 KCAL/MOL
REMARK 924 INTRA-LIGAND FREE ENERGY PREDICTED BY IDOCK:   -1.11 KCAL/MOL
REMARK 927      BINDING AFFINITY PREDICTED BY RF-SCORE:    0.00 PKD
ROOT
HETATM    1  C   UNL     1     -11.870  13.541  64.297  1.00  0.00    -0.471 C  
HETATM    2  C   UNL     1     -10.972  14.655  64.825  1.00  0.00    -0.386 C  
ENDROOT
BRANCH   2   3
HETATM    3  N   UNL     1     -10.849  14.711  66.292  1.00  0.00    -0.315 NA 
BRANCH   3   4
HETATM    4  C   UNL     1     -10.555  16.061  66.814  1.00  0.00    -0.297 C  
HETATM    5  C   UNL     1      -9.203  16.664  66.428  1.00  0.00    -0.318 C  
ENDBRANCH   3   4
BRANCH   3   6
HETATM    6  C   UNL     1     -12.047  14.144  66.958  1.00  0.00    -0.414 C  
BRANCH   6   7
HETATM    7  C   UNL     1     -11.814  13.537  68.354  1.00  0.00    -0.373 C  
BRANCH   7   8
HETATM    8  N   UNL     1     -11.758  12.093  68.324  1.00  0.00    -0.331 N  
HETATM    9  C   UNL     1     -10.558  11.429  68.382  1.00  0.00    -0.202 C  
HETATM   10  H   UNL     1     -12.625  11.558  68.258  1.00  0.00     0.000 HD 
HETATM   11  O   UNL     1      -9.487  12.024  68.480  1.00  0.00    -0.195 OA 
BRANCH   9  12
HETATM   12  C   UNL     1     -10.641   9.966  68.356  1.00  0.00    -0.258 A  
HETATM   13  C   UNL     1     -11.035   9.098  69.369  1.00  0.00    -0.092 A  
HETATM   14  C   UNL     1     -11.516   9.310  70.762  1.00  0.00    -0.351 C  
HETATM   15  N   UNL     1     -10.983   7.815  68.866  1.00  0.00    -0.425 NA 
HETATM   16  H   UNL     1     -11.194   6.974  69.403  1.00  0.00     0.000 HD 
HETATM   17  C   UNL     1     -10.609   7.821  67.550  1.00  0.00    -0.248 A  
HETATM   18  C   UNL     1     -10.386   9.146  67.197  1.00  0.00    -0.337 A  
HETATM   19  C   UNL     1      -9.962   9.662  65.858  1.00  0.00    -0.351 C  
BRANCH  17  20
HETATM   20  C   UNL     1     -10.507   6.642  66.767  1.00  0.00    -0.298 C  
HETATM   21  C   UNL     1      -9.840   5.502  66.991  1.00  0.00    -0.176 C  
HETATM   22  C   UNL     1      -8.957   5.056  68.128  1.00  0.00    -0.108 C  
HETATM   23  N   UNL     1      -8.547   3.772  67.786  1.00  0.00    -0.095 N  
HETATM   24  O   UNL     1      -8.656   5.674  69.129  1.00  0.00    -0.104 OA 
HETATM   25  C   UNL     1      -9.080   3.373  66.564  1.00  0.00    -0.161 A  
HETATM   26  H   UNL     1      -7.933   3.194  68.360  1.00  0.00     0.000 HD 
HETATM   27  C   UNL     1      -9.881   4.385  66.029  1.00  0.00    -0.241 A  
HETATM   28  C   UNL     1     -10.522   4.210  64.815  1.00  0.00    -0.194 A  
HETATM   29  C   UNL     1     -10.333   3.000  64.154  1.00  0.00    -0.082 A  
HETATM   30  F   UNL     1     -10.937   2.802  62.976  1.00  0.00    -0.184 F  
HETATM   31  C   UNL     1      -9.525   1.987  64.688  1.00  0.00    -0.086 A  
HETATM   32  C   UNL     1      -8.884   2.167  65.917  1.00  0.00    -0.120 A  
ENDBRANCH  17  20
ENDBRANCH   9  12
ENDBRANCH   7   8
ENDBRANCH   6   7
ENDBRANCH   3   6
ENDBRANCH   2   3
TORSDOF 7
ENDMDL
MODEL       96
REMARK 921   NORMALIZED FREE ENERGY PREDICTED BY IDOCK:   -5.13 KCAL/MOL
REMARK 922        TOTAL FREE ENERGY PREDICTED BY IDOCK:   -8.32 KCAL/MOL
REMARK 923 INTER-LIGAND FREE ENERGY PREDICTED BY IDOCK:   -7.06 KCAL/MOL
REMARK 924 INTRA-LIGAND FREE ENERGY PREDICTED BY IDOCK:   -1.25 KCAL/MOL
REMARK 927      BINDING AFFINITY PREDICTED BY RF-SCORE:    0.00 PKD
ROOT
HETATM    1  C   UNL     1      -7.501   7.069  70.140  1.00  0.00    -0.086 C  
HETATM    2  C   UNL     1      -8.048   6.306  68.937  1.00  0.00    -0.110 C  
ENDROOT
BRANCH   2   3
HETATM    3  N   UNL     1      -9.517   6.241  68.858  1.00  0.00    -0.127 NA 
BRANCH   3   4
HETATM    4  C   UNL     1     -10.039   4.887  68.582  1.00  0.00    -0.088 C  
HETATM    5  C   UNL     1      -9.066   3.725  68.783  1.00  0.00    -0.199 C  
ENDBRANCH   3   4
BRANCH   3   6
HETATM    6  C   UNL     1     -10.152   6.808  70.073  1.00  0.00    -0.184 C  
BRANCH   6   7
HETATM    7  C   UNL     1     -11.166   7.941  69.835  1.00  0.00    -0.046 C  
BRANCH   7   8
HETATM    8  N   UNL     1     -10.537   9.240  69.780  1.00  0.00    -0.223 N  
HETATM    9  C   UNL     1     -10.333   9.878  68.582  1.00  0.00    -0.195 C  
HETATM   10  H   UNL     1     -10.238   9.691  70.645  1.00  0.00     0.000 HD 
HETATM   11  O   UNL     1     -10.689   9.389  67.512  1.00  0.00    -0.280 OA 
BRANCH   9  12
HETATM   12  C   UNL     1      -9.698  11.196  68.665  1.00  0.00    -0.202 A  
HETATM   13  C   UNL     1      -8.345  11.507  68.767  1.00  0.00    -0.069 A  
HETATM   14  C   UNL     1      -7.110  10.676  68.804  1.00  0.00    -0.076 C  
HETATM   15  N   UNL     1      -8.230  12.881  68.781  1.00  0.00    -0.351 NA 
HETATM   16  H   UNL     1      -7.350  13.387  68.877  1.00  0.00     0.000 HD 
HETATM   17  C   UNL     1      -9.455  13.475  68.648  1.00  0.00    -0.055 A  
HETATM   18  C   UNL     1     -10.396  12.456  68.574  1.00  0.00    -0.232 A  
HETATM   19  C   UNL     1     -11.877  12.605  68.420  1.00  0.00    -0.347 C  
BRANCH  17  20
HETATM   20  C   UNL     1      -9.633  14.882  68.594  1.00  0.00    -0.222 C  
HETATM   21  C   UNL     1      -9.833  15.696  67.549  1.00  0.00    -0.228 C  
HETATM   22  C   UNL     1      -9.932  15.431  66.068  1.00  0.00    -0.324 C  
HETATM   23  N   UNL     1     -10.138  16.679  65.490  1.00  0.00    -0.208 N  
HETATM   24  O   UNL     1      -9.847  14.366  65.491  1.00  0.00    -0.324 OA 
HETATM   25  C   UNL     1     -10.179  17.687  66.448  1.00  0.00    -0.364 A  
HETATM   26  H   UNL     1     -10.246  16.835  64.488  1.00  0.00     0.000 HD 
HETATM   27  C   UNL     1     -10.002  17.149  67.726  1.00  0.00    -0.290 A  
HETATM   28  C   UNL     1     -10.011  17.968  68.842  1.00  0.00    -0.347 A  
HETATM   29  C   UNL     1     -10.196  19.332  68.641  1.00  0.00    -0.355 A  
HETATM   30  F   UNL     1     -10.206  20.151  69.701  1.00  0.00    -0.433 F  
HETATM   31  C   UNL     1     -10.369  19.871  67.359  1.00  0.00    -0.565 A  
HETATM   32  C   UNL     1     -10.364  19.040  66.235  1.00  0.00    -0.530 A  
ENDBRANCH  17  20
ENDBRANCH   9  12
ENDBRANCH   7   8
ENDBRANCH   6   7
ENDBRANCH   3   6
ENDBRANCH   2   3
TORSDOF 7
ENDMDL
MODEL       97
REMARK 921   NORMALIZED FREE ENERGY PREDICTED BY IDOCK:   -5.13 KCAL/MOL
REMARK 922        TOTAL FREE ENERGY PREDICTED BY IDOCK:   -8.31 KCAL/MOL
REMARK 923 INTER-LIGAND FREE ENERGY PREDICTED BY IDOCK:   -7.13 KCAL/MOL
REMARK 924 INTRA-LIGAND FREE ENERGY PREDICTED BY IDOCK:   -1.18 KCAL/MOL
REMARK 927      BINDING AFFINITY PREDICTED BY RF-SCORE:    0.00 PKD
ROOT
HETATM    1  C   UNL     1     -10.801  19.633  65.734  1.00  0.00    -0.405 C  
HETATM    2  C   UNL     1      -9.517  19.177  66.420  1.00  0.00    -0.354 C  
ENDROOT
BRANCH   2   3
HETATM    3  N   UNL     1      -9.634  17.925  67.188  1.00  0.00    -0.273 NA 
BRANCH   3   4
HETATM    4  C   UNL     1     -10.272  18.094  68.509  1.00  0.00    -0.384 C  
HETATM    5  C   UNL     1     -10.795  16.825  69.183  1.00  0.00    -0.287 C  
ENDBRANCH   3   4
BRANCH   3   6
HETATM    6  C   UNL     1     -10.325  16.872  66.405  1.00  0.00    -0.300 C  
BRANCH   6   7
HETATM    7  C   UNL     1      -9.415  15.925  65.602  1.00  0.00    -0.182 C  
BRANCH   7   8
HETATM    8  N   UNL     1      -9.380  14.592  66.158  1.00  0.00    -0.475 N  
HETATM    9  C   UNL     1      -8.476  14.255  67.135  1.00  0.00    -0.200 C  
HETATM   10  H   UNL     1     -10.038  13.889  65.820  1.00  0.00     0.000 HD 
HETATM   11  O   UNL     1      -7.674  15.067  67.591  1.00  0.00    -0.136 OA 
BRANCH   9  12
HETATM   12  C   UNL     1      -8.555  12.875  67.623  1.00  0.00    -0.182 A  
HETATM   13  C   UNL     1      -7.605  11.863  67.531  1.00  0.00    -0.140 A  
HETATM   14  C   UNL     1      -6.231  11.805  66.961  1.00  0.00    -0.152 C  
HETATM   15  N   UNL     1      -8.115  10.750  68.165  1.00  0.00    -0.113 NA 
HETATM   16  H   UNL     1      -7.640   9.849  68.225  1.00  0.00     0.000 HD 
HETATM   17  C   UNL     1      -9.345  11.015  68.704  1.00  0.00    -0.194 A  
HETATM   18  C   UNL     1      -9.653  12.331  68.386  1.00  0.00    -0.183 A  
HETATM   19  C   UNL     1     -10.893  13.083  68.758  1.00  0.00    -0.277 C  
BRANCH  17  20
HETATM   20  C   UNL     1     -10.088  10.061  69.446  1.00  0.00    -0.235 C  
HETATM   21  C   UNL     1      -9.724   9.277  70.469  1.00  0.00    -0.316 C  
HETATM   22  C   UNL     1      -8.414   9.107  71.194  1.00  0.00    -0.113 C  
HETATM   23  N   UNL     1      -8.658   8.138  72.161  1.00  0.00    -0.151 N  
HETATM   24  O   UNL     1      -7.364   9.681  70.987  1.00  0.00    -0.321 OA 
HETATM   25  C   UNL     1      -9.974   7.689  72.116  1.00  0.00    -0.183 A  
HETATM   26  H   UNL     1      -7.958   7.798  72.822  1.00  0.00     0.000 HD 
HETATM   27  C   UNL     1     -10.677   8.350  71.105  1.00  0.00    -0.280 A  
HETATM   28  C   UNL     1     -12.014   8.068  70.877  1.00  0.00    -0.201 A  
HETATM   29  C   UNL     1     -12.618   7.108  71.683  1.00  0.00    -0.375 A  
HETATM   30  F   UNL     1     -13.909   6.811  71.484  1.00  0.00    -0.363 F  
HETATM   31  C   UNL     1     -11.911   6.443  72.693  1.00  0.00    -0.079 A  
HETATM   32  C   UNL     1     -10.563   6.734  72.923  1.00  0.00    -0.278 A  
ENDBRANCH  17  20
ENDBRANCH   9  12
ENDBRANCH   7   8
ENDBRANCH   6   7
ENDBRANCH   3   6
ENDBRANCH   2   3
TORSDOF 7
ENDMDL
MODEL       98
REMARK 921   NORMALIZED FREE ENERGY PREDICTED BY IDOCK:   -5.09 KCAL/MOL
REMARK 922        TOTAL FREE ENERGY PREDICTED BY IDOCK:   -8.26 KCAL/MOL
REMARK 923 INTER-LIGAND FREE ENERGY PREDICTED BY IDOCK:   -7.93 KCAL/MOL
REMARK 924 INTRA-LIGAND FREE ENERGY PREDICTED BY IDOCK:   -0.33 KCAL/MOL
REMARK 927      BINDING AFFINITY PREDICTED BY RF-SCORE:    0.00 PKD
ROOT
HETATM    1  C   UNL     1      -9.639   8.994  71.329  1.00  0.00    -0.361 C  
HETATM    2  C   UNL     1      -9.678   7.868  70.300  1.00  0.00    -0.183 C  
ENDROOT
BRANCH   2   3
HETATM    3  N   UNL     1      -8.614   7.918  69.284  1.00  0.00    -0.137 NA 
BRANCH   3   4
HETATM    4  C   UNL     1      -7.540   6.927  69.496  1.00  0.00    -0.099 C  
HETATM    5  C   UNL     1      -7.849   5.780  70.461  1.00  0.00    -0.100 C  
ENDBRANCH   3   4
BRANCH   3   6
HETATM    6  C   UNL     1      -9.168   7.802  67.913  1.00  0.00    -0.137 C  
BRANCH   6   7
HETATM    7  C   UNL     1     -10.545   8.453  67.687  1.00  0.00    -0.195 C  
BRANCH   7   8
HETATM    8  N   UNL     1     -10.439   9.836  67.283  1.00  0.00    -0.255 N  
HETATM    9  C   UNL     1      -9.877  10.181  66.079  1.00  0.00    -0.246 C  
HETATM   10  H   UNL     1     -10.788  10.568  67.902  1.00  0.00     0.000 HD 
HETATM   11  O   UNL     1      -9.459   9.339  65.288  1.00  0.00    -0.245 OA 
BRANCH   9  12
HETATM   12  C   UNL     1      -9.843  11.616  65.783  1.00  0.00    -0.268 A  
HETATM   13  C   UNL     1     -10.279  12.281  64.640  1.00  0.00    -0.285 A  
HETATM   14  C   UNL     1     -10.924  11.822  63.379  1.00  0.00    -0.458 C  
HETATM   15  N   UNL     1     -10.072  13.630  64.836  1.00  0.00    -0.600 NA 
HETATM   16  H   UNL     1     -10.276  14.353  64.145  1.00  0.00     0.000 HD 
HETATM   17  C   UNL     1      -9.558  13.871  66.081  1.00  0.00    -0.229 A  
HETATM   18  C   UNL     1      -9.401  12.638  66.701  1.00  0.00    -0.236 A  
HETATM   19  C   UNL     1      -8.874  12.382  68.078  1.00  0.00    -0.187 C  
BRANCH  17  20
HETATM   20  C   UNL     1      -9.281  15.175  66.566  1.00  0.00    -0.318 C  
HETATM   21  C   UNL     1      -9.809  16.360  66.234  1.00  0.00    -0.336 C  
HETATM   22  C   UNL     1     -10.867  16.747  65.233  1.00  0.00    -0.138 C  
HETATM   23  N   UNL     1     -10.979  18.129  65.341  1.00  0.00     0.099 N  
HETATM   24  O   UNL     1     -11.491  16.023  64.484  1.00  0.00    -0.427 OA 
HETATM   25  C   UNL     1     -10.109  18.640  66.300  1.00  0.00    -0.400 A  
HETATM   26  H   UNL     1     -11.621  18.698  64.788  1.00  0.00     0.000 HD 
HETATM   27  C   UNL     1      -9.369  17.608  66.882  1.00  0.00    -0.268 A  
HETATM   28  C   UNL     1      -8.438  17.880  67.871  1.00  0.00    -0.251 A  
HETATM   29  C   UNL     1      -8.269  19.207  68.251  1.00  0.00    -0.334 A  
HETATM   30  F   UNL     1      -7.373  19.502  69.202  1.00  0.00    -0.369 F  
HETATM   31  C   UNL     1      -9.008  20.242  67.663  1.00  0.00    -0.393 A  
HETATM   32  C   UNL     1      -9.950  19.963  66.668  1.00  0.00    -0.578 A  
ENDBRANCH  17  20
ENDBRANCH   9  12
ENDBRANCH   7   8
ENDBRANCH   6   7
ENDBRANCH   3   6
ENDBRANCH   2   3
TORSDOF 7
ENDMDL
MODEL       99
REMARK 921   NORMALIZED FREE ENERGY PREDICTED BY IDOCK:   -5.08 KCAL/MOL
REMARK 922        TOTAL FREE ENERGY PREDICTED BY IDOCK:   -8.25 KCAL/MOL
REMARK 923 INTER-LIGAND FREE ENERGY PREDICTED BY IDOCK:   -7.09 KCAL/MOL
REMARK 924 INTRA-LIGAND FREE ENERGY PREDICTED BY IDOCK:   -1.16 KCAL/MOL
REMARK 927      BINDING AFFINITY PREDICTED BY RF-SCORE:    0.00 PKD
ROOT
HETATM    1  C   UNL     1      -7.173   5.631  66.998  1.00  0.00    -0.075 C  
HETATM    2  C   UNL     1      -8.324   6.599  66.741  1.00  0.00    -0.115 C  
ENDROOT
BRANCH   2   3
HETATM    3  N   UNL     1      -9.136   6.928  67.925  1.00  0.00    -0.123 NA 
BRANCH   3   4
HETATM    4  C   UNL     1     -10.382   6.142  68.029  1.00  0.00    -0.199 C  
HETATM    5  C   UNL     1     -11.164   6.270  69.338  1.00  0.00    -0.489 C  
ENDBRANCH   3   4
BRANCH   3   6
HETATM    6  C   UNL     1      -8.343   6.818  69.173  1.00  0.00    -0.125 C  
BRANCH   6   7
HETATM    7  C   UNL     1      -7.660   8.112  69.652  1.00  0.00    -0.099 C  
BRANCH   7   8
HETATM    8  N   UNL     1      -8.426   9.292  69.324  1.00  0.00    -0.132 N  
HETATM    9  C   UNL     1      -8.035  10.132  68.311  1.00  0.00    -0.101 C  
HETATM   10  H   UNL     1      -9.272   9.505  69.853  1.00  0.00     0.000 HD 
HETATM   11  O   UNL     1      -7.035   9.913  67.631  1.00  0.00    -0.084 OA 
BRANCH   9  12
HETATM   12  C   UNL     1      -8.906  11.286  68.071  1.00  0.00    -0.148 A  
HETATM   13  C   UNL     1     -10.246  11.303  67.696  1.00  0.00    -0.181 A  
HETATM   14  C   UNL     1     -11.245  10.229  67.438  1.00  0.00    -0.145 C  
HETATM   15  N   UNL     1     -10.645  12.621  67.624  1.00  0.00    -0.216 NA 
HETATM   16  H   UNL     1     -11.576  12.929  67.344  1.00  0.00     0.000 HD 
HETATM   17  C   UNL     1      -9.625  13.460  67.980  1.00  0.00    -0.219 A  
HETATM   18  C   UNL     1      -8.523  12.663  68.265  1.00  0.00    -0.163 A  
HETATM   19  C   UNL     1      -7.168  13.122  68.703  1.00  0.00    -0.106 C  
BRANCH  17  20
HETATM   20  C   UNL     1      -9.764  14.871  68.033  1.00  0.00    -0.212 C  
HETATM   21  C   UNL     1     -10.068  15.753  67.072  1.00  0.00    -0.261 C  
HETATM   22  C   UNL     1     -10.361  15.584  65.603  1.00  0.00    -0.384 C  
HETATM   23  N   UNL     1     -10.599  16.870  65.130  1.00  0.00    -0.183 N  
HETATM   24  O   UNL     1     -10.384  14.556  64.957  1.00  0.00    -0.404 OA 
HETATM   25  C   UNL     1     -10.488  17.817  66.144  1.00  0.00    -0.301 A  
HETATM   26  H   UNL     1     -10.828  17.092  64.161  1.00  0.00     0.000 HD 
HETATM   27  C   UNL     1     -10.168  17.196  67.355  1.00  0.00    -0.321 A  
HETATM   28  C   UNL     1     -10.011  17.943  68.510  1.00  0.00    -0.379 A  
HETATM   29  C   UNL     1     -10.176  19.322  68.415  1.00  0.00    -0.411 A  
HETATM   30  F   UNL     1     -10.027  20.072  69.514  1.00  0.00    -0.422 F  
HETATM   31  C   UNL     1     -10.493  19.944  67.200  1.00  0.00    -0.566 A  
HETATM   32  C   UNL     1     -10.655  19.185  66.037  1.00  0.00    -0.524 A  
ENDBRANCH  17  20
ENDBRANCH   9  12
ENDBRANCH   7   8
ENDBRANCH   6   7
ENDBRANCH   3   6
ENDBRANCH   2   3
TORSDOF 7
ENDMDL
MODEL      100
REMARK 921   NORMALIZED FREE ENERGY PREDICTED BY IDOCK:   -5.06 KCAL/MOL
REMARK 922        TOTAL FREE ENERGY PREDICTED BY IDOCK:   -8.21 KCAL/MOL
REMARK 923 INTER-LIGAND FREE ENERGY PREDICTED BY IDOCK:   -7.17 KCAL/MOL
REMARK 924 INTRA-LIGAND FREE ENERGY PREDICTED BY IDOCK:   -1.05 KCAL/MOL
REMARK 927      BINDING AFFINITY PREDICTED BY RF-SCORE:    0.00 PKD
ROOT
HETATM    1  C   UNL     1     -12.338  12.736  65.177  1.00  0.00    -0.555 C  
HETATM    2  C   UNL     1     -11.247  13.792  65.327  1.00  0.00    -0.307 C  
ENDROOT
BRANCH   2   3
HETATM    3  N   UNL     1     -10.957  14.193  66.714  1.00  0.00    -0.296 NA 
BRANCH   3   4
HETATM    4  C   UNL     1     -10.710  15.640  66.876  1.00  0.00    -0.307 C  
HETATM    5  C   UNL     1     -10.414  16.431  65.601  1.00  0.00    -0.364 C  
ENDBRANCH   3   4
BRANCH   3   6
HETATM    6  C   UNL     1     -12.019  13.738  67.644  1.00  0.00    -0.356 C  
BRANCH   6   7
HETATM    7  C   UNL     1     -11.535  13.178  68.994  1.00  0.00    -0.296 C  
BRANCH   7   8
HETATM    8  N   UNL     1     -11.369  11.743  68.966  1.00  0.00    -0.255 N  
HETATM    9  C   UNL     1     -10.128  11.176  68.813  1.00  0.00    -0.201 C  
HETATM   10  H   UNL     1     -12.187  11.140  69.061  1.00  0.00     0.000 HD 
HETATM   11  O   UNL     1      -9.108  11.855  68.712  1.00  0.00    -0.089 OA 
BRANCH   9  12
HETATM   12  C   UNL     1     -10.094   9.711  68.815  1.00  0.00    -0.193 A  
HETATM   13  C   UNL     1     -10.163   8.836  67.736  1.00  0.00    -0.228 A  
HETATM   14  C   UNL     1     -10.265   9.041  66.264  1.00  0.00    -0.237 C  
HETATM   15  N   UNL     1     -10.059   7.552  68.228  1.00  0.00    -0.177 NA 
HETATM   16  H   UNL     1     -10.107   6.708  67.658  1.00  0.00     0.000 HD 
HETATM   17  C   UNL     1      -9.881   7.563  69.585  1.00  0.00    -0.180 A  
HETATM   18  C   UNL     1      -9.899   8.892  69.987  1.00  0.00    -0.188 A  
HETATM   19  C   UNL     1      -9.741   9.415  71.381  1.00  0.00    -0.126 C  
BRANCH  17  20
HETATM   20  C   UNL     1      -9.707   6.383  70.353  1.00  0.00    -0.183 C  
HETATM   21  C   UNL     1     -10.451   5.869  71.342  1.00  0.00    -0.291 C  
HETATM   22  C   UNL     1     -11.719   6.344  72.002  1.00  0.00    -0.329 C  
HETATM   23  N   UNL     1     -12.005   5.387  72.970  1.00  0.00    -0.524 N  
HETATM   24  O   UNL     1     -12.362   7.346  71.757  1.00  0.00    -0.308 OA 
HETATM   25  C   UNL     1     -11.055   4.370  72.980  1.00  0.00    -0.176 A  
HETATM   26  H   UNL     1     -12.812   5.425  73.593  1.00  0.00     0.000 HD 
HETATM   27  C   UNL     1     -10.081   4.606  72.007  1.00  0.00    -0.262 A  
HETATM   28  C   UNL     1      -9.033   3.720  71.829  1.00  0.00    -0.151 A  
HETATM   29  C   UNL     1      -8.986   2.601  72.656  1.00  0.00    -0.078 A  
HETATM   30  F   UNL     1      -7.982   1.727  72.511  1.00  0.00    -0.044 F  
HETATM   31  C   UNL     1      -9.961   2.367  73.635  1.00  0.00    -0.156 A  
HETATM   32  C   UNL     1     -11.021   3.263  73.807  1.00  0.00    -0.310 A  
ENDBRANCH  17  20
ENDBRANCH   9  12
ENDBRANCH   7   8
ENDBRANCH   6   7
ENDBRANCH   3   6
ENDBRANCH   2   3
TORSDOF 7
ENDMDL
MODEL      101
REMARK 921   NORMALIZED FREE ENERGY PREDICTED BY IDOCK:   -5.02 KCAL/MOL
REMARK 922        TOTAL FREE ENERGY PREDICTED BY IDOCK:   -8.17 KCAL/MOL
REMARK 923 INTER-LIGAND FREE ENERGY PREDICTED BY IDOCK:   -7.21 KCAL/MOL
REMARK 924 INTRA-LIGAND FREE ENERGY PREDICTED BY IDOCK:   -0.96 KCAL/MOL
REMARK 927      BINDING AFFINITY PREDICTED BY RF-SCORE:    0.00 PKD
ROOT
HETATM    1  C   UNL     1      -7.356  18.031  67.644  1.00  0.00    -0.211 C  
HETATM    2  C   UNL     1      -8.586  18.601  68.344  1.00  0.00    -0.337 C  
ENDROOT
BRANCH   2   3
HETATM    3  N   UNL     1      -9.842  17.880  68.079  1.00  0.00    -0.305 NA 
BRANCH   3   4
HETATM    4  C   UNL     1     -10.386  18.107  66.725  1.00  0.00    -0.365 C  
HETATM    5  C   UNL     1     -10.700  19.556  66.348  1.00  0.00    -0.528 C  
ENDBRANCH   3   4
BRANCH   3   6
HETATM    6  C   UNL     1      -9.701  16.428  68.348  1.00  0.00    -0.229 C  
BRANCH   6   7
HETATM    7  C   UNL     1     -10.411  15.906  69.610  1.00  0.00    -0.295 C  
BRANCH   7   8
HETATM    8  N   UNL     1     -10.470  14.463  69.652  1.00  0.00    -0.445 N  
HETATM    9  C   UNL     1     -11.492  13.778  69.043  1.00  0.00    -0.305 C  
HETATM   10  H   UNL     1      -9.740  13.945  70.141  1.00  0.00     0.000 HD 
HETATM   11  O   UNL     1     -12.386  14.353  68.425  1.00  0.00    -0.203 OA 
BRANCH   9  12
HETATM   12  C   UNL     1     -11.427  12.318  69.147  1.00  0.00    -0.352 A  
HETATM   13  C   UNL     1     -11.971  11.489  70.124  1.00  0.00    -0.369 A  
HETATM   14  C   UNL     1     -12.791  11.749  71.339  1.00  0.00    -0.440 C  
HETATM   15  N   UNL     1     -11.677  10.186  69.779  1.00  0.00    -0.425 NA 
HETATM   16  H   UNL     1     -11.932   9.369  70.334  1.00  0.00     0.000 HD 
HETATM   17  C   UNL     1     -11.000  10.136  68.591  1.00  0.00    -0.230 A  
HETATM   18  C   UNL     1     -10.825  11.447  68.167  1.00  0.00    -0.259 A  
HETATM   19  C   UNL     1     -10.142  11.907  66.917  1.00  0.00    -0.229 C  
BRANCH  17  20
HETATM   20  C   UNL     1     -10.602   8.921  67.976  1.00  0.00    -0.226 C  
HETATM   21  C   UNL     1      -9.412   8.307  67.949  1.00  0.00    -0.163 C  
HETATM   22  C   UNL     1      -8.074   8.672  68.539  1.00  0.00    -0.117 C  
HETATM   23  N   UNL     1      -7.219   7.641  68.164  1.00  0.00    -0.090 N  
HETATM   24  O   UNL     1      -7.789   9.651  69.198  1.00  0.00    -0.081 OA 
HETATM   25  C   UNL     1      -7.879   6.678  67.407  1.00  0.00    -0.113 A  
HETATM   26  H   UNL     1      -6.231   7.597  68.412  1.00  0.00     0.000 HD 
HETATM   27  C   UNL     1      -9.223   7.026  67.243  1.00  0.00    -0.141 A  
HETATM   28  C   UNL     1     -10.080   6.210  66.526  1.00  0.00    -0.179 A  
HETATM   29  C   UNL     1      -9.553   5.045  65.976  1.00  0.00    -0.168 A  
HETATM   30  F   UNL     1     -10.356   4.236  65.273  1.00  0.00    -0.217 F  
HETATM   31  C   UNL     1      -8.205   4.699  66.136  1.00  0.00    -0.107 A  
HETATM   32  C   UNL     1      -7.344   5.524  66.866  1.00  0.00    -0.079 A  
ENDBRANCH  17  20
ENDBRANCH   9  12
ENDBRANCH   7   8
ENDBRANCH   6   7
ENDBRANCH   3   6
ENDBRANCH   2   3
TORSDOF 7
ENDMDL
MODEL      102
REMARK 921   NORMALIZED FREE ENERGY PREDICTED BY IDOCK:   -4.95 KCAL/MOL
REMARK 922        TOTAL FREE ENERGY PREDICTED BY IDOCK:   -8.07 KCAL/MOL
REMARK 923 INTER-LIGAND FREE ENERGY PREDICTED BY IDOCK:   -6.95 KCAL/MOL
REMARK 924 INTRA-LIGAND FREE ENERGY PREDICTED BY IDOCK:   -1.12 KCAL/MOL
REMARK 927      BINDING AFFINITY PREDICTED BY RF-SCORE:    0.00 PKD
ROOT
HETATM    1  C   UNL     1      -6.881   7.041  65.435  1.00  0.00    -0.052 C  
HETATM    2  C   UNL     1      -8.091   6.131  65.251  1.00  0.00    -0.132 C  
ENDROOT
BRANCH   2   3
HETATM    3  N   UNL     1      -8.634   5.560  66.496  1.00  0.00    -0.116 NA 
BRANCH   3   4
HETATM    4  C   UNL     1      -8.549   4.087  66.561  1.00  0.00    -0.110 C  
HETATM    5  C   UNL     1      -9.446   3.395  67.588  1.00  0.00    -0.231 C  
ENDBRANCH   3   4
BRANCH   3   6
HETATM    6  C   UNL     1      -8.007   6.172  67.692  1.00  0.00    -0.106 C  
BRANCH   6   7
HETATM    7  C   UNL     1      -8.858   7.216  68.437  1.00  0.00    -0.127 C  
BRANCH   7   8
HETATM    8  N   UNL     1      -8.744   8.534  67.858  1.00  0.00    -0.137 N  
HETATM    9  C   UNL     1      -9.749   9.057  67.084  1.00  0.00    -0.181 C  
HETATM   10  H   UNL     1      -7.902   9.085  68.026  1.00  0.00     0.000 HD 
HETATM   11  O   UNL     1     -10.791   8.444  66.864  1.00  0.00    -0.211 OA 
BRANCH   9  12
HETATM   12  C   UNL     1      -9.514  10.409  66.567  1.00  0.00    -0.204 A  
HETATM   13  C   UNL     1      -9.344  10.821  65.249  1.00  0.00    -0.210 A  
HETATM   14  C   UNL     1      -9.359  10.099  63.947  1.00  0.00    -0.336 C  
HETATM   15  N   UNL     1      -9.186  12.191  65.255  1.00  0.00    -0.418 NA 
HETATM   16  H   UNL     1      -9.015  12.757  64.424  1.00  0.00     0.000 HD 
HETATM   17  C   UNL     1      -9.291  12.689  66.525  1.00  0.00    -0.228 A  
HETATM   18  C   UNL     1      -9.495  11.607  67.371  1.00  0.00    -0.171 A  
HETATM   19  C   UNL     1      -9.672  11.645  68.857  1.00  0.00    -0.029 C  
BRANCH  17  20
HETATM   20  C   UNL     1      -9.206  14.074  66.824  1.00  0.00    -0.280 C  
HETATM   21  C   UNL     1      -9.833  15.124  66.277  1.00  0.00    -0.317 C  
HETATM   22  C   UNL     1     -10.836  15.229  65.157  1.00  0.00    -0.426 C  
HETATM   23  N   UNL     1     -11.113  16.587  65.045  1.00  0.00    -0.267 N  
HETATM   24  O   UNL     1     -11.307  14.332  64.487  1.00  0.00    -0.369 OA 
HETATM   25  C   UNL     1     -10.393  17.335  65.973  1.00  0.00    -0.305 A  
HETATM   26  H   UNL     1     -11.763  16.986  64.368  1.00  0.00     0.000 HD 
HETATM   27  C   UNL     1      -9.595  16.497  66.757  1.00  0.00    -0.268 A  
HETATM   28  C   UNL     1      -8.791  17.022  67.754  1.00  0.00    -0.223 A  
HETATM   29  C   UNL     1      -8.807  18.401  67.938  1.00  0.00    -0.280 A  
HETATM   30  F   UNL     1      -8.037  18.938  68.893  1.00  0.00    -0.346 F  
HETATM   31  C   UNL     1      -9.604  19.240  67.148  1.00  0.00    -0.397 A  
HETATM   32  C   UNL     1     -10.417  18.706  66.145  1.00  0.00    -0.473 A  
ENDBRANCH  17  20
ENDBRANCH   9  12
ENDBRANCH   7   8
ENDBRANCH   6   7
ENDBRANCH   3   6
ENDBRANCH   2   3
TORSDOF 7
ENDMDL
MODEL      103
REMARK 921   NORMALIZED FREE ENERGY PREDICTED BY IDOCK:   -4.95 KCAL/MOL
REMARK 922        TOTAL FREE ENERGY PREDICTED BY IDOCK:   -8.06 KCAL/MOL
REMARK 923 INTER-LIGAND FREE ENERGY PREDICTED BY IDOCK:   -6.82 KCAL/MOL
REMARK 924 INTRA-LIGAND FREE ENERGY PREDICTED BY IDOCK:   -1.25 KCAL/MOL
REMARK 927      BINDING AFFINITY PREDICTED BY RF-SCORE:    0.00 PKD
ROOT
HETATM    1  C   UNL     1      -9.737   9.848  65.210  1.00  0.00    -0.383 C  
HETATM    2  C   UNL     1     -10.352   9.526  66.570  1.00  0.00    -0.193 C  
ENDROOT
BRANCH   2   3
HETATM    3  N   UNL     1      -9.794   8.338  67.237  1.00  0.00    -0.178 NA 
BRANCH   3   4
HETATM    4  C   UNL     1     -10.611   7.120  67.066  1.00  0.00    -0.343 C  
HETATM    5  C   UNL     1     -10.844   6.270  68.316  1.00  0.00    -0.397 C  
ENDBRANCH   3   4
BRANCH   3   6
HETATM    6  C   UNL     1      -8.392   8.090  66.821  1.00  0.00    -0.116 C  
BRANCH   6   7
HETATM    7  C   UNL     1      -7.311   8.429  67.863  1.00  0.00    -0.096 C  
BRANCH   7   8
HETATM    8  N   UNL     1      -7.084   9.851  67.977  1.00  0.00    -0.081 N  
HETATM    9  C   UNL     1      -7.684  10.587  68.969  1.00  0.00    -0.125 C  
HETATM   10  H   UNL     1      -6.469  10.317  67.310  1.00  0.00     0.000 HD 
HETATM   11  O   UNL     1      -8.420  10.074  69.809  1.00  0.00    -0.178 OA 
BRANCH   9  12
HETATM   12  C   UNL     1      -7.361  12.017  68.982  1.00  0.00    -0.018 A  
HETATM   13  C   UNL     1      -6.308  12.666  69.619  1.00  0.00    -0.095 A  
HETATM   14  C   UNL     1      -5.171  12.186  70.452  1.00  0.00    -0.116 C  
HETATM   15  N   UNL     1      -6.398  14.008  69.315  1.00  0.00    -0.104 NA 
HETATM   16  H   UNL     1      -5.767  14.726  69.673  1.00  0.00     0.000 HD 
HETATM   17  C   UNL     1      -7.446  14.249  68.470  1.00  0.00    -0.121 A  
HETATM   18  C   UNL     1      -8.071  13.030  68.240  1.00  0.00    -0.151 A  
HETATM   19  C   UNL     1      -9.268  12.779  67.377  1.00  0.00    -0.193 C  
BRANCH  17  20
HETATM   20  C   UNL     1      -7.753  15.538  67.963  1.00  0.00    -0.134 C  
HETATM   21  C   UNL     1      -8.746  16.383  68.272  1.00  0.00    -0.201 C  
HETATM   22  C   UNL     1      -9.891  16.280  69.247  1.00  0.00    -0.252 C  
HETATM   23  N   UNL     1     -10.590  17.474  69.111  1.00  0.00    -0.392 N  
HETATM   24  O   UNL     1     -10.160  15.360  69.993  1.00  0.00    -0.287 OA 
HETATM   25  C   UNL     1     -10.005  18.306  68.161  1.00  0.00    -0.360 A  
HETATM   26  H   UNL     1     -11.428  17.712  69.642  1.00  0.00     0.000 HD 
HETATM   27  C   UNL     1      -8.872  17.696  67.615  1.00  0.00    -0.236 A  
HETATM   28  C   UNL     1      -8.121  18.342  66.648  1.00  0.00    -0.282 A  
HETATM   29  C   UNL     1      -8.539  19.606  66.243  1.00  0.00    -0.366 A  
HETATM   30  F   UNL     1      -7.835  20.255  65.307  1.00  0.00    -0.266 F  
HETATM   31  C   UNL     1      -9.678  20.215  66.788  1.00  0.00    -0.577 A  
HETATM   32  C   UNL     1     -10.431  19.560  67.767  1.00  0.00    -0.574 A  
ENDBRANCH  17  20
ENDBRANCH   9  12
ENDBRANCH   7   8
ENDBRANCH   6   7
ENDBRANCH   3   6
ENDBRANCH   2   3
TORSDOF 7
ENDMDL
MODEL      104
REMARK 921   NORMALIZED FREE ENERGY PREDICTED BY IDOCK:   -4.93 KCAL/MOL
REMARK 922        TOTAL FREE ENERGY PREDICTED BY IDOCK:   -8.04 KCAL/MOL
REMARK 923 INTER-LIGAND FREE ENERGY PREDICTED BY IDOCK:   -7.46 KCAL/MOL
REMARK 924 INTRA-LIGAND FREE ENERGY PREDICTED BY IDOCK:   -0.58 KCAL/MOL
REMARK 927      BINDING AFFINITY PREDICTED BY RF-SCORE:    0.00 PKD
ROOT
HETATM    1  C   UNL     1      -9.558   6.203  74.450  1.00  0.00    -0.235 C  
HETATM    2  C   UNL     1      -9.024   4.778  74.559  1.00  0.00    -0.110 C  
ENDROOT
BRANCH   2   3
HETATM    3  N   UNL     1      -9.174   3.963  73.342  1.00  0.00    -0.104 NA 
BRANCH   3   4
HETATM    4  C   UNL     1     -10.549   3.475  73.117  1.00  0.00    -0.179 C  
HETATM    5  C   UNL     1     -11.006   2.295  73.977  1.00  0.00    -0.246 C  
ENDBRANCH   3   4
BRANCH   3   6
HETATM    6  C   UNL     1      -8.672   4.680  72.144  1.00  0.00    -0.119 C  
BRANCH   6   7
HETATM    7  C   UNL     1      -9.506   4.509  70.861  1.00  0.00    -0.166 C  
BRANCH   7   8
HETATM    8  N   UNL     1     -10.138   5.740  70.447  1.00  0.00    -0.196 N  
HETATM    9  C   UNL     1      -9.391   6.836  70.094  1.00  0.00    -0.159 C  
HETATM   10  H   UNL     1     -11.157   5.797  70.418  1.00  0.00     0.000 HD 
HETATM   11  O   UNL     1      -8.162   6.816  70.094  1.00  0.00    -0.128 OA 
BRANCH   9  12
HETATM   12  C   UNL     1     -10.154   8.018  69.681  1.00  0.00    -0.198 A  
HETATM   13  C   UNL     1     -11.009   8.812  70.438  1.00  0.00    -0.235 A  
HETATM   14  C   UNL     1     -11.427   8.782  71.867  1.00  0.00    -0.428 C  
HETATM   15  N   UNL     1     -11.468   9.828  69.626  1.00  0.00    -0.433 NA 
HETATM   16  H   UNL     1     -12.135  10.543  69.916  1.00  0.00     0.000 HD 
HETATM   17  C   UNL     1     -10.910   9.747  68.380  1.00  0.00    -0.201 A  
HETATM   18  C   UNL     1     -10.085   8.629  68.375  1.00  0.00    -0.217 A  
HETATM   19  C   UNL     1      -9.254   8.127  67.236  1.00  0.00    -0.165 C  
BRANCH  17  20
HETATM   20  C   UNL     1     -11.175  10.685  67.349  1.00  0.00    -0.280 C  
HETATM   21  C   UNL     1     -11.519  11.978  67.415  1.00  0.00    -0.406 C  
HETATM   22  C   UNL     1     -11.759  12.900  68.582  1.00  0.00    -0.324 C  
HETATM   23  N   UNL     1     -12.096  14.124  68.014  1.00  0.00    -0.545 N  
HETATM   24  O   UNL     1     -11.683  12.644  69.767  1.00  0.00    -0.309 OA 
HETATM   25  C   UNL     1     -12.090  14.062  66.624  1.00  0.00    -0.456 A  
HETATM   26  H   UNL     1     -12.319  14.963  68.550  1.00  0.00     0.000 HD 
HETATM   27  C   UNL     1     -11.742  12.778  66.197  1.00  0.00    -0.458 A  
HETATM   28  C   UNL     1     -11.666  12.481  64.847  1.00  0.00    -0.409 A  
HETATM   29  C   UNL     1     -11.953  13.500  63.944  1.00  0.00    -0.440 A  
HETATM   30  F   UNL     1     -11.891  13.242  62.631  1.00  0.00    -0.208 F  
HETATM   31  C   UNL     1     -12.306  14.787  64.373  1.00  0.00    -0.389 A  
HETATM   32  C   UNL     1     -12.377  15.084  65.737  1.00  0.00     0.287 A  
ENDBRANCH  17  20
ENDBRANCH   9  12
ENDBRANCH   7   8
ENDBRANCH   6   7
ENDBRANCH   3   6
ENDBRANCH   2   3
TORSDOF 7
ENDMDL
MODEL      105
REMARK 921   NORMALIZED FREE ENERGY PREDICTED BY IDOCK:   -4.93 KCAL/MOL
REMARK 922        TOTAL FREE ENERGY PREDICTED BY IDOCK:   -8.04 KCAL/MOL
REMARK 923 INTER-LIGAND FREE ENERGY PREDICTED BY IDOCK:   -7.08 KCAL/MOL
REMARK 924 INTRA-LIGAND FREE ENERGY PREDICTED BY IDOCK:   -0.96 KCAL/MOL
REMARK 927      BINDING AFFINITY PREDICTED BY RF-SCORE:    0.00 PKD
ROOT
HETATM    1  C   UNL     1      -6.263  20.201  70.603  1.00  0.00    -0.318 C  
HETATM    2  C   UNL     1      -6.616  20.160  69.120  1.00  0.00    -0.276 C  
ENDROOT
BRANCH   2   3
HETATM    3  N   UNL     1      -7.651  19.177  68.755  1.00  0.00    -0.344 NA 
BRANCH   3   4
HETATM    4  C   UNL     1      -8.750  19.743  67.947  1.00  0.00    -0.317 C  
HETATM    5  C   UNL     1     -10.143  19.727  68.579  1.00  0.00    -0.555 C  
ENDBRANCH   3   4
BRANCH   3   6
HETATM    6  C   UNL     1      -7.062  17.995  68.080  1.00  0.00    -0.230 C  
BRANCH   6   7
HETATM    7  C   UNL     1      -6.626  16.842  69.004  1.00  0.00    -0.209 C  
BRANCH   7   8
HETATM    8  N   UNL     1      -7.506  15.700  68.910  1.00  0.00    -0.148 N  
HETATM    9  C   UNL     1      -7.347  14.763  67.919  1.00  0.00    -0.151 C  
HETATM   10  H   UNL     1      -8.257  15.587  69.590  1.00  0.00     0.000 HD 
HETATM   11  O   UNL     1      -6.447  14.841  67.085  1.00  0.00    -0.250 OA 
BRANCH   9  12
HETATM   12  C   UNL     1      -8.295  13.646  67.943  1.00  0.00    -0.174 A  
HETATM   13  C   UNL     1      -9.543  13.550  67.336  1.00  0.00    -0.227 A  
HETATM   14  C   UNL     1     -10.327  14.471  66.468  1.00  0.00    -0.283 C  
HETATM   15  N   UNL     1     -10.049  12.297  67.613  1.00  0.00    -0.198 NA 
HETATM   16  H   UNL     1     -10.965  11.963  67.314  1.00  0.00     0.000 HD 
HETATM   17  C   UNL     1      -9.156  11.560  68.342  1.00  0.00    -0.185 A  
HETATM   18  C   UNL     1      -8.050  12.369  68.569  1.00  0.00    -0.096 A  
HETATM   19  C   UNL     1      -6.807  12.007  69.320  1.00  0.00    -0.066 C  
BRANCH  17  20
HETATM   20  C   UNL     1      -9.398  10.219  68.738  1.00  0.00    -0.166 C  
HETATM   21  C   UNL     1     -10.359   9.699  69.513  1.00  0.00    -0.235 C  
HETATM   22  C   UNL     1     -11.514  10.329  70.249  1.00  0.00    -0.317 C  
HETATM   23  N   UNL     1     -12.156   9.273  70.887  1.00  0.00    -0.401 N  
HETATM   24  O   UNL     1     -11.826  11.502  70.288  1.00  0.00    -0.336 OA 
HETATM   25  C   UNL     1     -11.527   8.059  70.627  1.00  0.00    -0.232 A  
HETATM   26  H   UNL     1     -12.985   9.376  71.472  1.00  0.00     0.000 HD 
HETATM   27  C   UNL     1     -10.424   8.253  69.792  1.00  0.00    -0.220 A  
HETATM   28  C   UNL     1      -9.645   7.180  69.393  1.00  0.00    -0.153 A  
HETATM   29  C   UNL     1      -9.998   5.917  69.859  1.00  0.00    -0.182 A  
HETATM   30  F   UNL     1      -9.262   4.860  69.493  1.00  0.00    -0.124 F  
HETATM   31  C   UNL     1     -11.102   5.724  70.700  1.00  0.00    -0.272 A  
HETATM   32  C   UNL     1     -11.889   6.810  71.096  1.00  0.00    -0.410 A  
ENDBRANCH  17  20
ENDBRANCH   9  12
ENDBRANCH   7   8
ENDBRANCH   6   7
ENDBRANCH   3   6
ENDBRANCH   2   3
TORSDOF 7
ENDMDL
MODEL      106
REMARK 921   NORMALIZED FREE ENERGY PREDICTED BY IDOCK:   -4.93 KCAL/MOL
REMARK 922        TOTAL FREE ENERGY PREDICTED BY IDOCK:   -8.04 KCAL/MOL
REMARK 923 INTER-LIGAND FREE ENERGY PREDICTED BY IDOCK:   -6.99 KCAL/MOL
REMARK 924 INTRA-LIGAND FREE ENERGY PREDICTED BY IDOCK:   -1.05 KCAL/MOL
REMARK 927      BINDING AFFINITY PREDICTED BY RF-SCORE:    0.00 PKD
ROOT
HETATM    1  C   UNL     1     -10.554  16.462  69.769  1.00  0.00    -0.288 C  
HETATM    2  C   UNL     1     -11.351  15.961  68.569  1.00  0.00    -0.374 C  
ENDROOT
BRANCH   2   3
HETATM    3  N   UNL     1     -11.083  16.669  67.306  1.00  0.00    -0.045 NA 
BRANCH   3   4
HETATM    4  C   UNL     1     -10.628  18.062  67.489  1.00  0.00    -0.388 C  
HETATM    5  C   UNL     1     -10.044  18.758  66.259  1.00  0.00    -0.447 C  
ENDBRANCH   3   4
BRANCH   3   6
HETATM    6  C   UNL     1     -10.131  15.916  66.454  1.00  0.00    -0.292 C  
BRANCH   6   7
HETATM    7  C   UNL     1     -10.744  14.806  65.580  1.00  0.00    -0.357 C  
BRANCH   7   8
HETATM    8  N   UNL     1     -10.314  13.488  65.984  1.00  0.00    -0.296 N  
HETATM    9  C   UNL     1     -11.184  12.426  65.977  1.00  0.00    -0.335 C  
HETATM   10  H   UNL     1      -9.348  13.343  66.279  1.00  0.00     0.000 HD 
HETATM   11  O   UNL     1     -12.352  12.541  65.613  1.00  0.00    -0.615 OA 
BRANCH   9  12
HETATM   12  C   UNL     1     -10.619  11.140  66.396  1.00  0.00    -0.315 A  
HETATM   13  C   UNL     1     -10.595  10.571  67.665  1.00  0.00    -0.250 A  
HETATM   14  C   UNL     1     -11.119  11.010  68.988  1.00  0.00    -0.301 C  
HETATM   15  N   UNL     1      -9.987   9.337  67.561  1.00  0.00    -0.189 NA 
HETATM   16  H   UNL     1      -9.810   8.711  68.346  1.00  0.00     0.000 HD 
HETATM   17  C   UNL     1      -9.654   9.065  66.262  1.00  0.00    -0.260 A  
HETATM   18  C   UNL     1     -10.032  10.168  65.506  1.00  0.00    -0.363 A  
HETATM   19  C   UNL     1      -9.877  10.343  64.027  1.00  0.00    -0.355 C  
BRANCH  17  20
HETATM   20  C   UNL     1      -9.048   7.849  65.855  1.00  0.00    -0.139 C  
HETATM   21  C   UNL     1      -9.408   6.578  66.079  1.00  0.00    -0.039 C  
HETATM   22  C   UNL     1     -10.561   5.975  66.840  1.00  0.00    -0.315 C  
HETATM   23  N   UNL     1     -10.394   4.600  66.720  1.00  0.00    -0.210 N  
HETATM   24  O   UNL     1     -11.449   6.551  67.435  1.00  0.00    -0.181 OA 
HETATM   25  C   UNL     1      -9.266   4.284  65.969  1.00  0.00    -0.145 A  
HETATM   26  H   UNL     1     -11.021   3.908  67.132  1.00  0.00     0.000 HD 
HETATM   27  C   UNL     1      -8.623   5.450  65.546  1.00  0.00    -0.148 A  
HETATM   28  C   UNL     1      -7.474   5.381  64.777  1.00  0.00    -0.070 A  
HETATM   29  C   UNL     1      -6.989   4.119  64.451  1.00  0.00    -0.046 A  
HETATM   30  F   UNL     1      -5.878   4.020  63.710  1.00  0.00    -0.013 F  
HETATM   31  C   UNL     1      -7.633   2.949  64.879  1.00  0.00    -0.076 A  
HETATM   32  C   UNL     1      -8.795   3.023  65.652  1.00  0.00    -0.138 A  
ENDBRANCH  17  20
ENDBRANCH   9  12
ENDBRANCH   7   8
ENDBRANCH   6   7
ENDBRANCH   3   6
ENDBRANCH   2   3
TORSDOF 7
ENDMDL
MODEL      107
REMARK 921   NORMALIZED FREE ENERGY PREDICTED BY IDOCK:   -4.92 KCAL/MOL
REMARK 922        TOTAL FREE ENERGY PREDICTED BY IDOCK:   -8.02 KCAL/MOL
REMARK 923 INTER-LIGAND FREE ENERGY PREDICTED BY IDOCK:   -7.41 KCAL/MOL
REMARK 924 INTRA-LIGAND FREE ENERGY PREDICTED BY IDOCK:   -0.61 KCAL/MOL
REMARK 927      BINDING AFFINITY PREDICTED BY RF-SCORE:    0.00 PKD
ROOT
HETATM    1  C   UNL     1      -7.713   4.929  66.246  1.00  0.00    -0.092 C  
HETATM    2  C   UNL     1      -9.221   5.160  66.257  1.00  0.00    -0.146 C  
ENDROOT
BRANCH   2   3
HETATM    3  N   UNL     1      -9.778   5.568  67.557  1.00  0.00    -0.122 NA 
BRANCH   3   4
HETATM    4  C   UNL     1      -9.234   4.810  68.702  1.00  0.00    -0.124 C  
HETATM    5  C   UNL     1      -8.447   5.611  69.741  1.00  0.00    -0.107 C  
ENDBRANCH   3   4
BRANCH   3   6
HETATM    6  C   UNL     1      -9.628   7.027  67.778  1.00  0.00    -0.123 C  
BRANCH   6   7
HETATM    7  C   UNL     1     -10.596   7.929  66.991  1.00  0.00    -0.311 C  
BRANCH   7   8
HETATM    8  N   UNL     1     -10.067   9.258  66.787  1.00  0.00    -0.245 N  
HETATM    9  C   UNL     1     -10.326  10.268  67.680  1.00  0.00    -0.220 C  
HETATM   10  H   UNL     1      -9.493   9.450  65.966  1.00  0.00     0.000 HD 
HETATM   11  O   UNL     1     -10.996  10.087  68.694  1.00  0.00    -0.227 OA 
BRANCH   9  12
HETATM   12  C   UNL     1      -9.720  11.564  67.365  1.00  0.00    -0.191 A  
HETATM   13  C   UNL     1      -8.416  11.843  66.967  1.00  0.00    -0.177 A  
HETATM   14  C   UNL     1      -7.227  10.986  66.702  1.00  0.00    -0.143 C  
HETATM   15  N   UNL     1      -8.324  13.202  66.753  1.00  0.00    -0.419 NA 
HETATM   16  H   UNL     1      -7.470  13.689  66.480  1.00  0.00     0.000 HD 
HETATM   17  C   UNL     1      -9.532  13.812  66.957  1.00  0.00    -0.255 A  
HETATM   18  C   UNL     1     -10.427  12.822  67.341  1.00  0.00    -0.234 A  
HETATM   19  C   UNL     1     -11.877  12.996  67.672  1.00  0.00    -0.401 C  
BRANCH  17  20
HETATM   20  C   UNL     1      -9.740  15.203  66.774  1.00  0.00    -0.255 C  
HETATM   21  C   UNL     1      -9.412  16.244  67.551  1.00  0.00    -0.227 C  
HETATM   22  C   UNL     1      -8.724  16.326  68.890  1.00  0.00    -0.253 C  
HETATM   23  N   UNL     1      -8.676  17.683  69.190  1.00  0.00     0.021 N  
HETATM   24  O   UNL     1      -8.302  15.414  69.572  1.00  0.00    -0.245 OA 
HETATM   25  C   UNL     1      -9.257  18.450  68.185  1.00  0.00    -0.312 A  
HETATM   26  H   UNL     1      -8.266  18.068  70.040  1.00  0.00     0.000 HD 
HETATM   27  C   UNL     1      -9.723  17.629  67.155  1.00  0.00    -0.291 A  
HETATM   28  C   UNL     1     -10.337  18.175  66.040  1.00  0.00    -0.360 A  
HETATM   29  C   UNL     1     -10.474  19.559  65.992  1.00  0.00    -0.516 A  
HETATM   30  F   UNL     1     -11.067  20.117  64.929  1.00  0.00    -0.439 F  
HETATM   31  C   UNL     1     -10.011  20.382  67.028  1.00  0.00    -0.568 A  
HETATM   32  C   UNL     1      -9.387  19.826  68.149  1.00  0.00    -0.429 A  
ENDBRANCH  17  20
ENDBRANCH   9  12
ENDBRANCH   7   8
ENDBRANCH   6   7
ENDBRANCH   3   6
ENDBRANCH   2   3
TORSDOF 7
ENDMDL
MODEL      108
REMARK 921   NORMALIZED FREE ENERGY PREDICTED BY IDOCK:   -4.92 KCAL/MOL
REMARK 922        TOTAL FREE ENERGY PREDICTED BY IDOCK:   -8.02 KCAL/MOL
REMARK 923 INTER-LIGAND FREE ENERGY PREDICTED BY IDOCK:   -7.23 KCAL/MOL
REMARK 924 INTRA-LIGAND FREE ENERGY PREDICTED BY IDOCK:   -0.79 KCAL/MOL
REMARK 927      BINDING AFFINITY PREDICTED BY RF-SCORE:    0.00 PKD
ROOT
HETATM    1  C   UNL     1     -11.403   8.461  71.766  1.00  0.00    -0.366 C  
HETATM    2  C   UNL     1     -10.012   7.844  71.664  1.00  0.00    -0.181 C  
ENDROOT
BRANCH   2   3
HETATM    3  N   UNL     1      -9.765   7.070  70.435  1.00  0.00    -0.176 NA 
BRANCH   3   4
HETATM    4  C   UNL     1      -9.916   5.611  70.610  1.00  0.00    -0.200 C  
HETATM    5  C   UNL     1     -10.367   5.130  71.991  1.00  0.00    -0.274 C  
ENDBRANCH   3   4
BRANCH   3   6
HETATM    6  C   UNL     1     -10.606   7.551  69.312  1.00  0.00    -0.210 C  
BRANCH   6   7
HETATM    7  C   UNL     1      -9.883   7.748  67.968  1.00  0.00    -0.163 C  
BRANCH   7   8
HETATM    8  N   UNL     1      -9.198   9.018  67.892  1.00  0.00    -0.140 N  
HETATM    9  C   UNL     1      -9.529   9.945  66.935  1.00  0.00    -0.163 C  
HETATM   10  H   UNL     1      -8.456   9.229  68.560  1.00  0.00     0.000 HD 
HETATM   11  O   UNL     1     -10.426   9.749  66.119  1.00  0.00    -0.179 OA 
BRANCH   9  12
HETATM   12  C   UNL     1      -8.769  11.197  66.975  1.00  0.00    -0.148 A  
HETATM   13  C   UNL     1      -7.457  11.433  66.578  1.00  0.00    -0.068 A  
HETATM   14  C   UNL     1      -6.404  10.568  65.977  1.00  0.00    -0.124 C  
HETATM   15  N   UNL     1      -7.193  12.772  66.773  1.00  0.00    -0.302 NA 
HETATM   16  H   UNL     1      -6.294  13.218  66.591  1.00  0.00     0.000 HD 
HETATM   17  C   UNL     1      -8.300  13.424  67.244  1.00  0.00    -0.176 A  
HETATM   18  C   UNL     1      -9.303  12.474  67.384  1.00  0.00    -0.187 A  
HETATM   19  C   UNL     1     -10.702  12.703  67.864  1.00  0.00    -0.237 C  
BRANCH  17  20
HETATM   20  C   UNL     1      -8.328  14.819  67.501  1.00  0.00    -0.197 C  
HETATM   21  C   UNL     1      -9.070  15.792  66.955  1.00  0.00    -0.240 C  
HETATM   22  C   UNL     1     -10.125  15.773  65.879  1.00  0.00    -0.356 C  
HETATM   23  N   UNL     1     -10.527  17.097  65.742  1.00  0.00    -0.305 N  
HETATM   24  O   UNL     1     -10.540  14.817  65.255  1.00  0.00    -0.338 OA 
HETATM   25  C   UNL     1      -9.839  17.934  66.616  1.00  0.00    -0.342 A  
HETATM   26  H   UNL     1     -11.239  17.415  65.084  1.00  0.00     0.000 HD 
HETATM   27  C   UNL     1      -8.936  17.195  67.386  1.00  0.00    -0.223 A  
HETATM   28  C   UNL     1      -8.142  17.820  68.332  1.00  0.00    -0.297 A  
HETATM   29  C   UNL     1      -8.273  19.197  68.478  1.00  0.00    -0.364 A  
HETATM   30  F   UNL     1      -7.516  19.831  69.383  1.00  0.00    -0.386 F  
HETATM   31  C   UNL     1      -9.176  19.938  67.702  1.00  0.00    -0.447 A  
HETATM   32  C   UNL     1      -9.980  19.302  66.751  1.00  0.00    -0.446 A  
ENDBRANCH  17  20
ENDBRANCH   9  12
ENDBRANCH   7   8
ENDBRANCH   6   7
ENDBRANCH   3   6
ENDBRANCH   2   3
TORSDOF 7
ENDMDL
MODEL      109
REMARK 921   NORMALIZED FREE ENERGY PREDICTED BY IDOCK:   -4.90 KCAL/MOL
REMARK 922        TOTAL FREE ENERGY PREDICTED BY IDOCK:   -8.00 KCAL/MOL
REMARK 923 INTER-LIGAND FREE ENERGY PREDICTED BY IDOCK:   -6.94 KCAL/MOL
REMARK 924 INTRA-LIGAND FREE ENERGY PREDICTED BY IDOCK:   -1.05 KCAL/MOL
REMARK 927      BINDING AFFINITY PREDICTED BY RF-SCORE:    0.00 PKD
ROOT
HETATM    1  C   UNL     1     -12.489  15.174  73.755  1.00  0.00    -0.718 C  
HETATM    2  C   UNL     1     -12.044  15.264  72.298  1.00  0.00    -0.401 C  
ENDROOT
BRANCH   2   3
HETATM    3  N   UNL     1     -12.216  14.027  71.519  1.00  0.00    -0.273 NA 
BRANCH   3   4
HETATM    4  C   UNL     1     -13.309  13.162  72.007  1.00  0.00    -0.493 C  
HETATM    5  C   UNL     1     -13.138  11.657  71.795  1.00  0.00    -0.487 C  
ENDBRANCH   3   4
BRANCH   3   6
HETATM    6  C   UNL     1     -12.384  14.315  70.073  1.00  0.00    -0.346 C  
BRANCH   6   7
HETATM    7  C   UNL     1     -11.157  14.038  69.186  1.00  0.00    -0.259 C  
BRANCH   7   8
HETATM    8  N   UNL     1     -11.108  12.670  68.725  1.00  0.00    -0.251 N  
HETATM    9  C   UNL     1     -10.005  12.181  68.072  1.00  0.00    -0.203 C  
HETATM   10  H   UNL     1     -11.907  12.056  68.888  1.00  0.00     0.000 HD 
HETATM   11  O   UNL     1      -9.009  12.871  67.866  1.00  0.00    -0.176 OA 
BRANCH   9  12
HETATM   12  C   UNL     1     -10.077  10.774  67.669  1.00  0.00    -0.205 A  
HETATM   13  C   UNL     1     -10.269  10.239  66.399  1.00  0.00    -0.225 A  
HETATM   14  C   UNL     1     -10.437  10.851  65.052  1.00  0.00    -0.331 C  
HETATM   15  N   UNL     1     -10.229   8.865  66.511  1.00  0.00    -0.277 NA 
HETATM   16  H   UNL     1     -10.370   8.217  65.737  1.00  0.00     0.000 HD 
HETATM   17  C   UNL     1      -9.977   8.488  67.802  1.00  0.00    -0.190 A  
HETATM   18  C   UNL     1      -9.876   9.651  68.554  1.00  0.00    -0.170 A  
HETATM   19  C   UNL     1      -9.603   9.755  70.022  1.00  0.00    -0.282 C  
BRANCH  17  20
HETATM   20  C   UNL     1      -9.846   7.133  68.202  1.00  0.00    -0.157 C  
HETATM   21  C   UNL     1      -9.242   6.100  67.599  1.00  0.00    -0.107 C  
HETATM   22  C   UNL     1      -8.499   5.989  66.292  1.00  0.00    -0.130 C  
HETATM   23  N   UNL     1      -8.109   4.656  66.210  1.00  0.00    -0.103 N  
HETATM   24  O   UNL     1      -8.284   6.862  65.476  1.00  0.00    -0.126 OA 
HETATM   25  C   UNL     1      -8.526   3.931  67.321  1.00  0.00    -0.100 A  
HETATM   26  H   UNL     1      -7.581   4.260  65.431  1.00  0.00     0.000 HD 
HETATM   27  C   UNL     1      -9.221   4.758  68.208  1.00  0.00    -0.159 A  
HETATM   28  C   UNL     1      -9.729   4.252  69.392  1.00  0.00    -0.257 A  
HETATM   29  C   UNL     1      -9.527   2.901  69.657  1.00  0.00    -0.094 A  
HETATM   30  F   UNL     1     -10.009   2.382  70.793  1.00  0.00    -0.188 F  
HETATM   31  C   UNL     1      -8.833   2.071  68.766  1.00  0.00    -0.138 A  
HETATM   32  C   UNL     1      -8.318   2.588  67.573  1.00  0.00    -0.094 A  
ENDBRANCH  17  20
ENDBRANCH   9  12
ENDBRANCH   7   8
ENDBRANCH   6   7
ENDBRANCH   3   6
ENDBRANCH   2   3
TORSDOF 7
ENDMDL
MODEL      110
REMARK 921   NORMALIZED FREE ENERGY PREDICTED BY IDOCK:   -4.90 KCAL/MOL
REMARK 922        TOTAL FREE ENERGY PREDICTED BY IDOCK:   -7.99 KCAL/MOL
REMARK 923 INTER-LIGAND FREE ENERGY PREDICTED BY IDOCK:   -7.13 KCAL/MOL
REMARK 924 INTRA-LIGAND FREE ENERGY PREDICTED BY IDOCK:   -0.86 KCAL/MOL
REMARK 927      BINDING AFFINITY PREDICTED BY RF-SCORE:    0.00 PKD
ROOT
HETATM    1  C   UNL     1      -6.624   5.424  64.141  1.00  0.00    -0.041 C  
HETATM    2  C   UNL     1      -8.037   5.997  64.198  1.00  0.00    -0.095 C  
ENDROOT
BRANCH   2   3
HETATM    3  N   UNL     1      -8.781   5.694  65.431  1.00  0.00    -0.153 NA 
BRANCH   3   4
HETATM    4  C   UNL     1      -8.449   4.381  66.020  1.00  0.00    -0.113 C  
HETATM    5  C   UNL     1      -9.268   3.185  65.532  1.00  0.00    -0.145 C  
ENDBRANCH   3   4
BRANCH   3   6
HETATM    6  C   UNL     1      -8.626   6.771  66.438  1.00  0.00    -0.130 C  
BRANCH   6   7
HETATM    7  C   UNL     1      -9.811   7.746  66.568  1.00  0.00    -0.185 C  
BRANCH   7   8
HETATM    8  N   UNL     1      -9.387   9.085  66.907  1.00  0.00    -0.150 N  
HETATM    9  C   UNL     1      -9.918   9.743  67.989  1.00  0.00    -0.158 C  
HETATM   10  H   UNL     1      -8.683   9.549  66.334  1.00  0.00     0.000 HD 
HETATM   11  O   UNL     1     -10.756   9.223  68.723  1.00  0.00    -0.217 OA 
BRANCH   9  12
HETATM   12  C   UNL     1      -9.394  11.090  68.232  1.00  0.00    -0.172 A  
HETATM   13  C   UNL     1      -8.106  11.471  68.594  1.00  0.00    -0.132 A  
HETATM   14  C   UNL     1      -6.847  10.711  68.831  1.00  0.00    -0.066 C  
HETATM   15  N   UNL     1      -8.083  12.848  68.674  1.00  0.00    -0.321 NA 
HETATM   16  H   UNL     1      -7.269  13.398  68.949  1.00  0.00     0.000 HD 
HETATM   17  C   UNL     1      -9.299  13.377  68.337  1.00  0.00    -0.165 A  
HETATM   18  C   UNL     1     -10.143  12.311  68.055  1.00  0.00    -0.206 A  
HETATM   19  C   UNL     1     -11.577  12.383  67.635  1.00  0.00    -0.421 C  
BRANCH  17  20
HETATM   20  C   UNL     1      -9.553  14.773  68.297  1.00  0.00    -0.215 C  
HETATM   21  C   UNL     1      -9.861  15.574  67.269  1.00  0.00    -0.224 C  
HETATM   22  C   UNL     1     -10.040  15.303  65.797  1.00  0.00    -0.356 C  
HETATM   23  N   UNL     1     -10.348  16.538  65.236  1.00  0.00    -0.220 N  
HETATM   24  O   UNL     1      -9.937  14.243  65.213  1.00  0.00    -0.351 OA 
HETATM   25  C   UNL     1     -10.380  17.543  66.198  1.00  0.00    -0.329 A  
HETATM   26  H   UNL     1     -10.528  16.688  64.243  1.00  0.00     0.000 HD 
HETATM   27  C   UNL     1     -10.094  17.017  67.460  1.00  0.00    -0.294 A  
HETATM   28  C   UNL     1     -10.075  17.835  68.577  1.00  0.00    -0.377 A  
HETATM   29  C   UNL     1     -10.343  19.187  68.391  1.00  0.00    -0.327 A  
HETATM   30  F   UNL     1     -10.328  20.005  69.452  1.00  0.00    -0.486 F  
HETATM   31  C   UNL     1     -10.626  19.715  67.124  1.00  0.00    -0.611 A  
HETATM   32  C   UNL     1     -10.649  18.885  66.000  1.00  0.00    -0.470 A  
ENDBRANCH  17  20
ENDBRANCH   9  12
ENDBRANCH   7   8
ENDBRANCH   6   7
ENDBRANCH   3   6
ENDBRANCH   2   3
TORSDOF 7
ENDMDL
MODEL      111
REMARK 921   NORMALIZED FREE ENERGY PREDICTED BY IDOCK:   -4.89 KCAL/MOL
REMARK 922        TOTAL FREE ENERGY PREDICTED BY IDOCK:   -7.98 KCAL/MOL
REMARK 923 INTER-LIGAND FREE ENERGY PREDICTED BY IDOCK:   -7.70 KCAL/MOL
REMARK 924 INTRA-LIGAND FREE ENERGY PREDICTED BY IDOCK:   -0.28 KCAL/MOL
REMARK 927      BINDING AFFINITY PREDICTED BY RF-SCORE:    0.00 PKD
ROOT
HETATM    1  C   UNL     1      -8.943   3.742  64.686  1.00  0.00    -0.125 C  
HETATM    2  C   UNL     1     -10.159   4.261  65.449  1.00  0.00    -0.225 C  
ENDROOT
BRANCH   2   3
HETATM    3  N   UNL     1      -9.960   4.421  66.899  1.00  0.00    -0.206 NA 
BRANCH   3   4
HETATM    4  C   UNL     1      -8.931   3.522  67.462  1.00  0.00    -0.145 C  
HETATM    5  C   UNL     1      -9.418   2.454  68.442  1.00  0.00    -0.219 C  
ENDBRANCH   3   4
BRANCH   3   6
HETATM    6  C   UNL     1      -9.671   5.832  67.255  1.00  0.00    -0.129 C  
BRANCH   6   7
HETATM    7  C   UNL     1     -10.874   6.792  67.221  1.00  0.00    -0.373 C  
BRANCH   7   8
HETATM    8  N   UNL     1     -10.533   8.082  66.666  1.00  0.00    -0.448 N  
HETATM    9  C   UNL     1     -10.408   9.188  67.468  1.00  0.00    -0.261 C  
HETATM   10  H   UNL     1     -10.383   8.172  65.660  1.00  0.00     0.000 HD 
HETATM   11  O   UNL     1     -10.559   9.131  68.687  1.00  0.00    -0.215 OA 
BRANCH   9  12
HETATM   12  C   UNL     1     -10.045  10.431  66.783  1.00  0.00    -0.267 A  
HETATM   13  C   UNL     1      -9.403  10.597  65.560  1.00  0.00    -0.205 A  
HETATM   14  C   UNL     1      -8.896   9.640  64.538  1.00  0.00    -0.257 C  
HETATM   15  N   UNL     1      -9.310  11.951  65.315  1.00  0.00    -0.430 NA 
HETATM   16  H   UNL     1      -8.857  12.362  64.498  1.00  0.00     0.000 HD 
HETATM   17  C   UNL     1      -9.906  12.671  66.314  1.00  0.00    -0.262 A  
HETATM   18  C   UNL     1     -10.376  11.757  67.249  1.00  0.00    -0.231 A  
HETATM   19  C   UNL     1     -11.105  12.061  68.520  1.00  0.00    -0.289 C  
BRANCH  17  20
HETATM   20  C   UNL     1      -9.992  14.087  66.305  1.00  0.00    -0.317 C  
HETATM   21  C   UNL     1      -9.390  15.002  67.076  1.00  0.00    -0.237 C  
HETATM   22  C   UNL     1      -8.424  14.874  68.226  1.00  0.00    -0.151 C  
HETATM   23  N   UNL     1      -8.161  16.180  68.625  1.00  0.00    -0.190 N  
HETATM   24  O   UNL     1      -7.968  13.858  68.712  1.00  0.00    -0.129 OA 
HETATM   25  C   UNL     1      -8.856  17.102  67.849  1.00  0.00    -0.226 A  
HETATM   26  H   UNL     1      -7.536  16.431  69.391  1.00  0.00     0.000 HD 
HETATM   27  C   UNL     1      -9.623  16.444  66.884  1.00  0.00    -0.255 A  
HETATM   28  C   UNL     1     -10.399  17.163  65.990  1.00  0.00    -0.317 A  
HETATM   29  C   UNL     1     -10.388  18.550  66.096  1.00  0.00    -0.426 A  
HETATM   30  F   UNL     1     -11.131  19.273  65.248  1.00  0.00    -0.466 F  
HETATM   31  C   UNL     1      -9.622  19.209  67.068  1.00  0.00    -0.378 A  
HETATM   32  C   UNL     1      -8.837  18.480  67.965  1.00  0.00    -0.317 A  
ENDBRANCH  17  20
ENDBRANCH   9  12
ENDBRANCH   7   8
ENDBRANCH   6   7
ENDBRANCH   3   6
ENDBRANCH   2   3
TORSDOF 7
ENDMDL
MODEL      112
REMARK 921   NORMALIZED FREE ENERGY PREDICTED BY IDOCK:   -4.84 KCAL/MOL
REMARK 922        TOTAL FREE ENERGY PREDICTED BY IDOCK:   -7.90 KCAL/MOL
REMARK 923 INTER-LIGAND FREE ENERGY PREDICTED BY IDOCK:   -6.94 KCAL/MOL
REMARK 924 INTRA-LIGAND FREE ENERGY PREDICTED BY IDOCK:   -0.96 KCAL/MOL
REMARK 927      BINDING AFFINITY PREDICTED BY RF-SCORE:    0.00 PKD
ROOT
HETATM    1  C   UNL     1      -5.155   6.842  62.845  1.00  0.00    -0.031 C  
HETATM    2  C   UNL     1      -6.601   6.648  63.293  1.00  0.00    -0.042 C  
ENDROOT
BRANCH   2   3
HETATM    3  N   UNL     1      -6.962   5.264  63.644  1.00  0.00    -0.046 NA 
BRANCH   3   4
HETATM    4  C   UNL     1      -5.839   4.476  64.191  1.00  0.00    -0.017 C  
HETATM    5  C   UNL     1      -5.537   3.145  63.502  1.00  0.00    -0.009 C  
ENDBRANCH   3   4
BRANCH   3   6
HETATM    6  C   UNL     1      -8.125   5.223  64.564  1.00  0.00    -0.120 C  
BRANCH   6   7
HETATM    7  C   UNL     1      -7.833   4.734  65.995  1.00  0.00    -0.095 C  
BRANCH   7   8
HETATM    8  N   UNL     1      -8.358   5.629  67.000  1.00  0.00    -0.108 N  
HETATM    9  C   UNL     1      -9.614   5.449  67.522  1.00  0.00    -0.126 C  
HETATM   10  H   UNL     1      -7.785   6.408  67.327  1.00  0.00     0.000 HD 
HETATM   11  O   UNL     1     -10.337   4.517  67.177  1.00  0.00    -0.115 OA 
BRANCH   9  12
HETATM   12  C   UNL     1     -10.021   6.418  68.544  1.00  0.00    -0.155 A  
HETATM   13  C   UNL     1     -10.042   6.269  69.927  1.00  0.00    -0.173 A  
HETATM   14  C   UNL     1      -9.660   5.153  70.837  1.00  0.00    -0.235 C  
HETATM   15  N   UNL     1     -10.468   7.462  70.472  1.00  0.00    -0.215 NA 
HETATM   16  H   UNL     1     -10.604   7.627  71.469  1.00  0.00     0.000 HD 
HETATM   17  C   UNL     1     -10.684   8.395  69.495  1.00  0.00    -0.175 A  
HETATM   18  C   UNL     1     -10.417   7.780  68.278  1.00  0.00    -0.215 A  
HETATM   19  C   UNL     1     -10.508   8.396  66.917  1.00  0.00    -0.359 C  
BRANCH  17  20
HETATM   20  C   UNL     1     -11.094   9.726  69.770  1.00  0.00    -0.272 C  
HETATM   21  C   UNL     1     -11.951  10.203  70.682  1.00  0.00    -0.423 C  
HETATM   22  C   UNL     1     -12.793   9.521  71.729  1.00  0.00    -0.406 C  
HETATM   23  N   UNL     1     -13.481  10.548  72.366  1.00  0.00    -0.522 N  
HETATM   24  O   UNL     1     -12.867   8.334  71.974  1.00  0.00    -0.327 OA 
HETATM   25  C   UNL     1     -13.159  11.791  71.829  1.00  0.00    -0.375 A  
HETATM   26  H   UNL     1     -14.141  10.408  73.131  1.00  0.00     0.000 HD 
HETATM   27  C   UNL     1     -12.226  11.646  70.798  1.00  0.00    -0.443 A  
HETATM   28  C   UNL     1     -11.752  12.754  70.117  1.00  0.00    -0.239 A  
HETATM   29  C   UNL     1     -12.241  14.002  70.493  1.00  0.00    -0.365 A  
HETATM   30  F   UNL     1     -11.803  15.092  69.850  1.00  0.00    -0.269 F  
HETATM   31  C   UNL     1     -13.179  14.145  71.524  1.00  0.00    -0.423 A  
HETATM   32  C   UNL     1     -13.652  13.024  72.212  1.00  0.00    -0.643 A  
ENDBRANCH  17  20
ENDBRANCH   9  12
ENDBRANCH   7   8
ENDBRANCH   6   7
ENDBRANCH   3   6
ENDBRANCH   2   3
TORSDOF 7
ENDMDL
MODEL      113
REMARK 921   NORMALIZED FREE ENERGY PREDICTED BY IDOCK:   -4.80 KCAL/MOL
REMARK 922        TOTAL FREE ENERGY PREDICTED BY IDOCK:   -7.86 KCAL/MOL
REMARK 923 INTER-LIGAND FREE ENERGY PREDICTED BY IDOCK:   -6.66 KCAL/MOL
REMARK 924 INTRA-LIGAND FREE ENERGY PREDICTED BY IDOCK:   -1.19 KCAL/MOL
REMARK 927      BINDING AFFINITY PREDICTED BY RF-SCORE:    0.00 PKD
ROOT
HETATM    1  C   UNL     1      -9.831   5.298  69.589  1.00  0.00    -0.275 C  
HETATM    2  C   UNL     1      -9.564   4.663  68.228  1.00  0.00    -0.149 C  
ENDROOT
BRANCH   2   3
HETATM    3  N   UNL     1      -8.142   4.446  67.912  1.00  0.00    -0.094 NA 
BRANCH   3   4
HETATM    4  C   UNL     1      -7.837   3.078  67.447  1.00  0.00    -0.076 C  
HETATM    5  C   UNL     1      -9.017   2.111  67.345  1.00  0.00    -0.178 C  
ENDBRANCH   3   4
BRANCH   3   6
HETATM    6  C   UNL     1      -7.643   5.451  66.941  1.00  0.00    -0.089 C  
BRANCH   6   7
HETATM    7  C   UNL     1      -8.713   6.355  66.301  1.00  0.00    -0.143 C  
BRANCH   7   8
HETATM    8  N   UNL     1      -8.680   7.701  66.823  1.00  0.00    -0.128 N  
HETATM    9  C   UNL     1      -9.840   8.384  67.094  1.00  0.00    -0.215 C  
HETATM   10  H   UNL     1      -7.781   8.152  66.994  1.00  0.00     0.000 HD 
HETATM   11  O   UNL     1     -10.948   7.882  66.923  1.00  0.00    -0.188 OA 
BRANCH   9  12
HETATM   12  C   UNL     1      -9.669   9.736  67.633  1.00  0.00    -0.186 A  
HETATM   13  C   UNL     1      -9.434  10.127  68.947  1.00  0.00    -0.182 A  
HETATM   14  C   UNL     1      -9.254   9.371  70.218  1.00  0.00    -0.285 C  
HETATM   15  N   UNL     1      -9.310  11.501  68.961  1.00  0.00    -0.408 NA 
HETATM   16  H   UNL     1      -9.162  12.060  69.801  1.00  0.00     0.000 HD 
HETATM   17  C   UNL     1      -9.413  12.013  67.697  1.00  0.00    -0.185 A  
HETATM   18  C   UNL     1      -9.638  10.943  66.841  1.00  0.00    -0.203 A  
HETATM   19  C   UNL     1      -9.816  10.997  65.356  1.00  0.00    -0.301 C  
BRANCH  17  20
HETATM   20  C   UNL     1      -9.288  13.397  67.408  1.00  0.00    -0.221 C  
HETATM   21  C   UNL     1     -10.032  14.440  67.799  1.00  0.00    -0.226 C  
HETATM   22  C   UNL     1     -11.262  14.534  68.665  1.00  0.00    -0.261 C  
HETATM   23  N   UNL     1     -11.578  15.888  68.699  1.00  0.00    -0.395 N  
HETATM   24  O   UNL     1     -11.860  13.632  69.217  1.00  0.00    -0.303 OA 
HETATM   25  C   UNL     1     -10.680  16.643  67.951  1.00  0.00    -0.344 A  
HETATM   26  H   UNL     1     -12.370  16.279  69.210  1.00  0.00     0.000 HD 
HETATM   27  C   UNL     1      -9.710  15.815  67.378  1.00  0.00    -0.223 A  
HETATM   28  C   UNL     1      -8.704  16.350  66.591  1.00  0.00    -0.291 A  
HETATM   29  C   UNL     1      -8.703  17.727  66.392  1.00  0.00    -0.228 A  
HETATM   30  F   UNL     1      -7.745  18.273  65.632  1.00  0.00    -0.218 F  
HETATM   31  C   UNL     1      -9.679  18.555  66.962  1.00  0.00    -0.321 A  
HETATM   32  C   UNL     1     -10.690  18.012  67.760  1.00  0.00    -0.350 A  
ENDBRANCH  17  20
ENDBRANCH   9  12
ENDBRANCH   7   8
ENDBRANCH   6   7
ENDBRANCH   3   6
ENDBRANCH   2   3
TORSDOF 7
ENDMDL
MODEL      114
REMARK 921   NORMALIZED FREE ENERGY PREDICTED BY IDOCK:   -4.78 KCAL/MOL
REMARK 922        TOTAL FREE ENERGY PREDICTED BY IDOCK:   -7.82 KCAL/MOL
REMARK 923 INTER-LIGAND FREE ENERGY PREDICTED BY IDOCK:   -6.96 KCAL/MOL
REMARK 924 INTRA-LIGAND FREE ENERGY PREDICTED BY IDOCK:   -0.86 KCAL/MOL
REMARK 927      BINDING AFFINITY PREDICTED BY RF-SCORE:    0.00 PKD
ROOT
HETATM    1  C   UNL     1      -7.849  17.502  67.694  1.00  0.00    -0.207 C  
HETATM    2  C   UNL     1      -9.007  18.129  68.464  1.00  0.00    -0.296 C  
ENDROOT
BRANCH   2   3
HETATM    3  N   UNL     1     -10.313  18.059  67.788  1.00  0.00    -0.376 NA 
BRANCH   3   4
HETATM    4  C   UNL     1     -10.647  19.270  67.011  1.00  0.00    -0.470 C  
HETATM    5  C   UNL     1      -9.786  20.507  67.269  1.00  0.00    -0.600 C  
ENDBRANCH   3   4
BRANCH   3   6
HETATM    6  C   UNL     1     -10.421  16.848  66.939  1.00  0.00    -0.271 C  
BRANCH   6   7
HETATM    7  C   UNL     1     -10.708  15.530  67.681  1.00  0.00    -0.302 C  
BRANCH   7   8
HETATM    8  N   UNL     1     -10.464  14.369  66.857  1.00  0.00    -0.268 N  
HETATM    9  C   UNL     1     -11.481  13.509  66.525  1.00  0.00    -0.339 C  
HETATM   10  H   UNL     1      -9.520  14.185  66.516  1.00  0.00     0.000 HD 
HETATM   11  O   UNL     1     -12.639  13.694  66.893  1.00  0.00    -0.233 OA 
BRANCH   9  12
HETATM   12  C   UNL     1     -11.103  12.379  65.673  1.00  0.00    -0.343 A  
HETATM   13  C   UNL     1     -11.369  12.178  64.322  1.00  0.00    -0.360 A  
HETATM   14  C   UNL     1     -12.069  12.993  63.290  1.00  0.00    -0.499 C  
HETATM   15  N   UNL     1     -10.783  10.986  63.951  1.00  0.00    -0.510 NA 
HETATM   16  H   UNL     1     -10.843  10.577  63.018  1.00  0.00     0.000 HD 
HETATM   17  C   UNL     1     -10.110  10.425  65.001  1.00  0.00    -0.309 A  
HETATM   18  C   UNL     1     -10.287  11.265  66.093  1.00  0.00    -0.300 A  
HETATM   19  C   UNL     1      -9.738  11.078  67.473  1.00  0.00    -0.190 C  
BRANCH  17  20
HETATM   20  C   UNL     1      -9.382   9.212  64.896  1.00  0.00    -0.050 C  
HETATM   21  C   UNL     1      -8.402   8.853  64.056  1.00  0.00    -0.168 C  
HETATM   22  C   UNL     1      -7.726   9.583  62.924  1.00  0.00    -0.118 C  
HETATM   23  N   UNL     1      -6.790   8.685  62.422  1.00  0.00    -0.095 N  
HETATM   24  O   UNL     1      -7.943  10.708  62.523  1.00  0.00    -0.163 OA 
HETATM   25  C   UNL     1      -6.810   7.480  63.119  1.00  0.00    -0.066 A  
HETATM   26  H   UNL     1      -6.165   8.885  61.641  1.00  0.00     0.000 HD 
HETATM   27  C   UNL     1      -7.773   7.522  64.132  1.00  0.00    -0.132 A  
HETATM   28  C   UNL     1      -7.969   6.432  64.962  1.00  0.00    -0.120 A  
HETATM   29  C   UNL     1      -7.183   5.305  64.745  1.00  0.00    -0.059 A  
HETATM   30  F   UNL     1      -7.352   4.233  65.530  1.00  0.00    -0.070 F  
HETATM   31  C   UNL     1      -6.221   5.262  63.726  1.00  0.00    -0.022 A  
HETATM   32  C   UNL     1      -6.023   6.367  62.893  1.00  0.00    -0.027 A  
ENDBRANCH  17  20
ENDBRANCH   9  12
ENDBRANCH   7   8
ENDBRANCH   6   7
ENDBRANCH   3   6
ENDBRANCH   2   3
TORSDOF 7
ENDMDL
MODEL      115
REMARK 921   NORMALIZED FREE ENERGY PREDICTED BY IDOCK:   -4.76 KCAL/MOL
REMARK 922        TOTAL FREE ENERGY PREDICTED BY IDOCK:   -7.79 KCAL/MOL
REMARK 923 INTER-LIGAND FREE ENERGY PREDICTED BY IDOCK:   -6.56 KCAL/MOL
REMARK 924 INTRA-LIGAND FREE ENERGY PREDICTED BY IDOCK:   -1.23 KCAL/MOL
REMARK 927      BINDING AFFINITY PREDICTED BY RF-SCORE:    0.00 PKD
ROOT
HETATM    1  C   UNL     1     -10.765  19.832  65.590  1.00  0.00    -0.418 C  
HETATM    2  C   UNL     1      -9.417  19.886  66.301  1.00  0.00    -0.410 C  
ENDROOT
BRANCH   2   3
HETATM    3  N   UNL     1      -9.123  18.729  67.164  1.00  0.00    -0.280 NA 
BRANCH   3   4
HETATM    4  C   UNL     1     -10.199  18.414  68.125  1.00  0.00    -0.384 C  
HETATM    5  C   UNL     1     -10.757  16.990  68.086  1.00  0.00    -0.374 C  
ENDBRANCH   3   4
BRANCH   3   6
HETATM    6  C   UNL     1      -8.771  17.531  66.363  1.00  0.00    -0.242 C  
BRANCH   6   7
HETATM    7  C   UNL     1      -7.344  16.987  66.559  1.00  0.00    -0.285 C  
BRANCH   7   8
HETATM    8  N   UNL     1      -7.335  15.617  67.017  1.00  0.00    -0.202 N  
HETATM    9  C   UNL     1      -7.441  15.315  68.351  1.00  0.00    -0.111 C  
HETATM   10  H   UNL     1      -7.249  14.861  66.337  1.00  0.00     0.000 HD 
HETATM   11  O   UNL     1      -7.566  16.186  69.210  1.00  0.00    -0.226 OA 
BRANCH   9  12
HETATM   12  C   UNL     1      -7.433  13.887  68.682  1.00  0.00    -0.122 A  
HETATM   13  C   UNL     1      -6.493  13.167  69.413  1.00  0.00    -0.095 A  
HETATM   14  C   UNL     1      -5.236  13.551  70.112  1.00  0.00    -0.099 C  
HETATM   15  N   UNL     1      -6.931  11.862  69.488  1.00  0.00    -0.329 NA 
HETATM   16  H   UNL     1      -6.420  11.105  69.944  1.00  0.00     0.000 HD 
HETATM   17  C   UNL     1      -8.142  11.716  68.869  1.00  0.00    -0.004 A  
HETATM   18  C   UNL     1      -8.487  12.959  68.353  1.00  0.00    -0.115 A  
HETATM   19  C   UNL     1      -9.728  13.306  67.592  1.00  0.00    -0.219 C  
BRANCH  17  20
HETATM   20  C   UNL     1      -8.847  10.486  68.824  1.00  0.00    -0.158 C  
HETATM   21  C   UNL     1      -9.060   9.639  67.808  1.00  0.00    -0.132 C  
HETATM   22  C   UNL     1      -8.647   9.679  66.359  1.00  0.00    -0.127 C  
HETATM   23  N   UNL     1      -9.172   8.518  65.801  1.00  0.00    -0.356 N  
HETATM   24  O   UNL     1      -8.001  10.533  65.787  1.00  0.00    -0.151 OA 
HETATM   25  C   UNL     1      -9.863   7.763  66.744  1.00  0.00    -0.241 A  
HETATM   26  H   UNL     1      -9.064   8.252  64.822  1.00  0.00     0.000 HD 
HETATM   27  C   UNL     1      -9.827   8.394  67.991  1.00  0.00    -0.202 A  
HETATM   28  C   UNL     1     -10.447   7.821  69.088  1.00  0.00    -0.219 A  
HETATM   29  C   UNL     1     -11.104   6.609  68.899  1.00  0.00    -0.246 A  
HETATM   30  F   UNL     1     -11.716   6.032  69.941  1.00  0.00    -0.466 F  
HETATM   31  C   UNL     1     -11.143   5.979  67.648  1.00  0.00    -0.217 A  
HETATM   32  C   UNL     1     -10.511   6.559  66.544  1.00  0.00    -0.132 A  
ENDBRANCH  17  20
ENDBRANCH   9  12
ENDBRANCH   7   8
ENDBRANCH   6   7
ENDBRANCH   3   6
ENDBRANCH   2   3
TORSDOF 7
ENDMDL
MODEL      116
REMARK 921   NORMALIZED FREE ENERGY PREDICTED BY IDOCK:   -4.73 KCAL/MOL
REMARK 922        TOTAL FREE ENERGY PREDICTED BY IDOCK:   -7.76 KCAL/MOL
REMARK 923 INTER-LIGAND FREE ENERGY PREDICTED BY IDOCK:   -7.73 KCAL/MOL
REMARK 924 INTRA-LIGAND FREE ENERGY PREDICTED BY IDOCK:   -0.02 KCAL/MOL
REMARK 927      BINDING AFFINITY PREDICTED BY RF-SCORE:    0.00 PKD
ROOT
HETATM    1  C   UNL     1      -9.370   9.669  64.347  1.00  0.00    -0.212 C  
HETATM    2  C   UNL     1     -10.079  10.641  65.287  1.00  0.00    -0.297 C  
ENDROOT
BRANCH   2   3
HETATM    3  N   UNL     1     -10.125  12.036  64.818  1.00  0.00    -0.265 NA 
BRANCH   3   4
HETATM    4  C   UNL     1     -10.785  12.202  63.507  1.00  0.00    -0.457 C  
HETATM    5  C   UNL     1     -12.307  12.354  63.523  1.00  0.00    -0.648 C  
ENDBRANCH   3   4
BRANCH   3   6
HETATM    6  C   UNL     1     -10.740  12.928  65.830  1.00  0.00    -0.273 C  
BRANCH   6   7
HETATM    7  C   UNL     1      -9.841  13.320  67.017  1.00  0.00    -0.242 C  
BRANCH   7   8
HETATM    8  N   UNL     1      -9.970  12.406  68.129  1.00  0.00    -0.211 N  
HETATM    9  C   UNL     1     -11.177  11.831  68.436  1.00  0.00    -0.251 C  
HETATM   10  H   UNL     1      -9.151  12.186  68.695  1.00  0.00     0.000 HD 
HETATM   11  O   UNL     1     -12.191  12.048  67.776  1.00  0.00    -0.474 OA 
BRANCH   9  12
HETATM   12  C   UNL     1     -11.170  10.913  69.579  1.00  0.00    -0.340 A  
HETATM   13  C   UNL     1     -11.895  10.991  70.764  1.00  0.00    -0.278 A  
HETATM   14  C   UNL     1     -12.905  11.956  71.278  1.00  0.00    -0.391 C  
HETATM   15  N   UNL     1     -11.582   9.882  71.521  1.00  0.00    -0.354 NA 
HETATM   16  H   UNL     1     -11.949   9.695  72.455  1.00  0.00     0.000 HD 
HETATM   17  C   UNL     1     -10.711   9.064  70.854  1.00  0.00    -0.253 A  
HETATM   18  C   UNL     1     -10.431   9.675  69.638  1.00  0.00    -0.246 A  
HETATM   19  C   UNL     1      -9.531   9.162  68.558  1.00  0.00    -0.151 C  
BRANCH  17  20
HETATM   20  C   UNL     1     -10.245   7.832  71.381  1.00  0.00    -0.211 C  
HETATM   21  C   UNL     1     -10.910   6.829  71.970  1.00  0.00    -0.257 C  
HETATM   22  C   UNL     1     -12.369   6.640  72.297  1.00  0.00    -0.107 C  
HETATM   23  N   UNL     1     -12.444   5.396  72.915  1.00  0.00    -0.355 N  
HETATM   24  O   UNL     1     -13.290   7.401  72.079  1.00  0.00    -0.239 OA 
HETATM   25  C   UNL     1     -11.193   4.794  73.005  1.00  0.00    -0.262 A  
HETATM   26  H   UNL     1     -13.308   4.978  73.259  1.00  0.00     0.000 HD 
HETATM   27  C   UNL     1     -10.215   5.618  72.443  1.00  0.00    -0.232 A  
HETATM   28  C   UNL     1      -8.889   5.221  72.415  1.00  0.00    -0.130 A  
HETATM   29  C   UNL     1      -8.573   3.984  72.969  1.00  0.00    -0.099 A  
HETATM   30  F   UNL     1      -7.299   3.574  72.960  1.00  0.00    -0.048 F  
HETATM   31  C   UNL     1      -9.554   3.160  73.537  1.00  0.00    -0.132 A  
HETATM   32  C   UNL     1     -10.893   3.563  73.559  1.00  0.00    -0.321 A  
ENDBRANCH  17  20
ENDBRANCH   9  12
ENDBRANCH   7   8
ENDBRANCH   6   7
ENDBRANCH   3   6
ENDBRANCH   2   3
TORSDOF 7
ENDMDL
MODEL      117
REMARK 921   NORMALIZED FREE ENERGY PREDICTED BY IDOCK:   -4.73 KCAL/MOL
REMARK 922        TOTAL FREE ENERGY PREDICTED BY IDOCK:   -7.75 KCAL/MOL
REMARK 923 INTER-LIGAND FREE ENERGY PREDICTED BY IDOCK:   -6.64 KCAL/MOL
REMARK 924 INTRA-LIGAND FREE ENERGY PREDICTED BY IDOCK:   -1.11 KCAL/MOL
REMARK 927      BINDING AFFINITY PREDICTED BY RF-SCORE:    0.00 PKD
ROOT
HETATM    1  C   UNL     1     -11.135  19.437  67.089  1.00  0.00    -0.286 C  
HETATM    2  C   UNL     1      -9.783  19.178  67.747  1.00  0.00    -0.321 C  
ENDROOT
BRANCH   2   3
HETATM    3  N   UNL     1      -9.445  17.757  67.934  1.00  0.00    -0.265 NA 
BRANCH   3   4
HETATM    4  C   UNL     1      -8.007  17.460  67.773  1.00  0.00    -0.205 C  
HETATM    5  C   UNL     1      -7.579  16.857  66.434  1.00  0.00    -0.339 C  
ENDBRANCH   3   4
BRANCH   3   6
HETATM    6  C   UNL     1      -9.939  17.249  69.237  1.00  0.00    -0.136 C  
BRANCH   6   7
HETATM    7  C   UNL     1     -11.097  16.237  69.168  1.00  0.00    -0.322 C  
BRANCH   7   8
HETATM    8  N   UNL     1     -10.896  15.241  68.140  1.00  0.00    -0.264 N  
HETATM    9  C   UNL     1     -11.569  14.045  68.171  1.00  0.00    -0.334 C  
HETATM   10  H   UNL     1     -10.243  15.429  67.379  1.00  0.00     0.000 HD 
HETATM   11  O   UNL     1     -12.380  13.775  69.054  1.00  0.00    -0.302 OA 
BRANCH   9  12
HETATM   12  C   UNL     1     -11.286  13.129  67.063  1.00  0.00    -0.349 A  
HETATM   13  C   UNL     1     -11.931  13.021  65.835  1.00  0.00    -0.435 A  
HETATM   14  C   UNL     1     -13.061  13.762  65.209  1.00  0.00    -0.193 C  
HETATM   15  N   UNL     1     -11.289  12.040  65.109  1.00  0.00    -0.320 NA 
HETATM   16  H   UNL     1     -11.570  11.731  64.178  1.00  0.00     0.000 HD 
HETATM   17  C   UNL     1     -10.224  11.535  65.804  1.00  0.00    -0.249 A  
HETATM   18  C   UNL     1     -10.191  12.190  67.029  1.00  0.00    -0.225 A  
HETATM   19  C   UNL     1      -9.203  11.984  68.135  1.00  0.00    -0.195 C  
BRANCH  17  20
HETATM   20  C   UNL     1      -9.360  10.537  65.283  1.00  0.00    -0.258 C  
HETATM   21  C   UNL     1      -9.251   9.236  65.582  1.00  0.00    -0.291 C  
HETATM   22  C   UNL     1      -9.982   8.363  66.570  1.00  0.00    -0.265 C  
HETATM   23  N   UNL     1      -9.419   7.100  66.424  1.00  0.00    -0.305 N  
HETATM   24  O   UNL     1     -10.869   8.680  67.337  1.00  0.00    -0.211 OA 
HETATM   25  C   UNL     1      -8.421   7.094  65.454  1.00  0.00    -0.082 A  
HETATM   26  H   UNL     1      -9.702   6.280  66.960  1.00  0.00     0.000 HD 
HETATM   27  C   UNL     1      -8.273   8.369  64.901  1.00  0.00    -0.155 A  
HETATM   28  C   UNL     1      -7.338   8.602  63.907  1.00  0.00    -0.100 A  
HETATM   29  C   UNL     1      -6.556   7.529  63.491  1.00  0.00    -0.054 A  
HETATM   30  F   UNL     1      -5.640   7.724  62.534  1.00  0.00    -0.054 F  
HETATM   31  C   UNL     1      -6.702   6.251  64.049  1.00  0.00    -0.037 A  
HETATM   32  C   UNL     1      -7.651   6.019  65.049  1.00  0.00    -0.090 A  
ENDBRANCH  17  20
ENDBRANCH   9  12
ENDBRANCH   7   8
ENDBRANCH   6   7
ENDBRANCH   3   6
ENDBRANCH   2   3
TORSDOF 7
ENDMDL
MODEL      118
REMARK 921   NORMALIZED FREE ENERGY PREDICTED BY IDOCK:   -4.73 KCAL/MOL
REMARK 922        TOTAL FREE ENERGY PREDICTED BY IDOCK:   -7.75 KCAL/MOL
REMARK 923 INTER-LIGAND FREE ENERGY PREDICTED BY IDOCK:   -6.73 KCAL/MOL
REMARK 924 INTRA-LIGAND FREE ENERGY PREDICTED BY IDOCK:   -1.01 KCAL/MOL
REMARK 927      BINDING AFFINITY PREDICTED BY RF-SCORE:    0.00 PKD
ROOT
HETATM    1  C   UNL     1     -11.704   6.619  70.357  1.00  0.00    -0.446 C  
HETATM    2  C   UNL     1     -11.084   6.144  69.046  1.00  0.00    -0.367 C  
ENDROOT
BRANCH   2   3
HETATM    3  N   UNL     1      -9.657   5.786  69.127  1.00  0.00    -0.130 NA 
BRANCH   3   4
HETATM    4  C   UNL     1      -9.394   4.345  68.939  1.00  0.00    -0.153 C  
HETATM    5  C   UNL     1      -9.623   3.444  70.154  1.00  0.00    -0.211 C  
ENDBRANCH   3   4
BRANCH   3   6
HETATM    6  C   UNL     1      -8.841   6.593  68.187  1.00  0.00    -0.119 C  
BRANCH   6   7
HETATM    7  C   UNL     1      -7.936   7.660  68.829  1.00  0.00    -0.126 C  
BRANCH   7   8
HETATM    8  N   UNL     1      -8.311   9.002  68.447  1.00  0.00    -0.123 N  
HETATM    9  C   UNL     1      -7.592   9.698  67.508  1.00  0.00    -0.095 C  
HETATM   10  H   UNL     1      -9.124   9.440  68.882  1.00  0.00     0.000 HD 
HETATM   11  O   UNL     1      -6.616   9.212  66.940  1.00  0.00    -0.066 OA 
BRANCH   9  12
HETATM   12  C   UNL     1      -8.085  11.043  67.200  1.00  0.00    -0.134 A  
HETATM   13  C   UNL     1      -9.143  11.417  66.377  1.00  0.00    -0.193 A  
HETATM   14  C   UNL     1     -10.128  10.644  65.571  1.00  0.00    -0.343 C  
HETATM   15  N   UNL     1      -9.248  12.791  66.426  1.00  0.00    -0.384 NA 
HETATM   16  H   UNL     1      -9.925  13.339  65.895  1.00  0.00     0.000 HD 
HETATM   17  C   UNL     1      -8.324  13.322  67.284  1.00  0.00    -0.177 A  
HETATM   18  C   UNL     1      -7.579  12.262  67.785  1.00  0.00    -0.131 A  
HETATM   19  C   UNL     1      -6.449  12.337  68.765  1.00  0.00    -0.082 C  
BRANCH  17  20
HETATM   20  C   UNL     1      -8.227  14.710  67.558  1.00  0.00    -0.203 C  
HETATM   21  C   UNL     1      -9.182  15.629  67.753  1.00  0.00    -0.193 C  
HETATM   22  C   UNL     1     -10.686  15.538  67.744  1.00  0.00    -0.297 C  
HETATM   23  N   UNL     1     -11.129  16.831  68.004  1.00  0.00    -0.294 N  
HETATM   24  O   UNL     1     -11.376  14.558  67.550  1.00  0.00    -0.309 OA 
HETATM   25  C   UNL     1     -10.065  17.712  68.174  1.00  0.00    -0.347 A  
HETATM   26  H   UNL     1     -12.111  17.099  68.063  1.00  0.00     0.000 HD 
HETATM   27  C   UNL     1      -8.849  17.037  68.035  1.00  0.00    -0.223 A  
HETATM   28  C   UNL     1      -7.649  17.714  68.168  1.00  0.00    -0.234 A  
HETATM   29  C   UNL     1      -7.703  19.078  68.438  1.00  0.00    -0.319 A  
HETATM   30  F   UNL     1      -6.558  19.761  68.569  1.00  0.00    -0.272 F  
HETATM   31  C   UNL     1      -8.923  19.755  68.572  1.00  0.00    -0.291 A  
HETATM   32  C   UNL     1     -10.133  19.066  68.441  1.00  0.00    -0.471 A  
ENDBRANCH  17  20
ENDBRANCH   9  12
ENDBRANCH   7   8
ENDBRANCH   6   7
ENDBRANCH   3   6
ENDBRANCH   2   3
TORSDOF 7
ENDMDL
MODEL      119
REMARK 921   NORMALIZED FREE ENERGY PREDICTED BY IDOCK:   -4.72 KCAL/MOL
REMARK 922        TOTAL FREE ENERGY PREDICTED BY IDOCK:   -7.74 KCAL/MOL
REMARK 923 INTER-LIGAND FREE ENERGY PREDICTED BY IDOCK:   -6.65 KCAL/MOL
REMARK 924 INTRA-LIGAND FREE ENERGY PREDICTED BY IDOCK:   -1.09 KCAL/MOL
REMARK 927      BINDING AFFINITY PREDICTED BY RF-SCORE:    0.00 PKD
ROOT
HETATM    1  C   UNL     1     -10.468  17.240  69.329  1.00  0.00    -0.220 C  
HETATM    2  C   UNL     1      -9.680  17.486  68.046  1.00  0.00    -0.287 C  
ENDROOT
BRANCH   2   3
HETATM    3  N   UNL     1     -10.491  17.537  66.818  1.00  0.00    -0.303 NA 
BRANCH   3   4
HETATM    4  C   UNL     1     -10.318  18.781  66.041  1.00  0.00    -0.422 C  
HETATM    5  C   UNL     1     -10.201  20.078  66.843  1.00  0.00    -0.595 C  
ENDBRANCH   3   4
BRANCH   3   6
HETATM    6  C   UNL     1     -10.255  16.349  65.962  1.00  0.00    -0.356 C  
BRANCH   6   7
HETATM    7  C   UNL     1     -11.219  15.167  66.172  1.00  0.00    -0.271 C  
BRANCH   7   8
HETATM    8  N   UNL     1     -10.628  14.108  66.956  1.00  0.00    -0.275 N  
HETATM    9  C   UNL     1     -10.159  12.963  66.361  1.00  0.00    -0.269 C  
HETATM   10  H   UNL     1     -10.559  14.211  67.969  1.00  0.00     0.000 HD 
HETATM   11  O   UNL     1     -10.201  12.795  65.145  1.00  0.00    -0.291 OA 
BRANCH   9  12
HETATM   12  C   UNL     1      -9.570  11.973  67.267  1.00  0.00    -0.185 A  
HETATM   13  C   UNL     1      -8.376  12.042  67.977  1.00  0.00    -0.162 A  
HETATM   14  C   UNL     1      -7.323  13.089  68.100  1.00  0.00    -0.118 C  
HETATM   15  N   UNL     1      -8.262  10.886  68.721  1.00  0.00    -0.144 NA 
HETATM   16  H   UNL     1      -7.466  10.658  69.317  1.00  0.00     0.000 HD 
HETATM   17  C   UNL     1      -9.359  10.087  68.553  1.00  0.00    -0.145 A  
HETATM   18  C   UNL     1     -10.197  10.731  67.652  1.00  0.00    -0.221 A  
HETATM   19  C   UNL     1     -11.525  10.252  67.153  1.00  0.00     0.497 C  
BRANCH  17  20
HETATM   20  C   UNL     1      -9.528   8.850  69.227  1.00  0.00    -0.161 C  
HETATM   21  C   UNL     1     -10.308   8.522  70.265  1.00  0.00    -0.218 C  
HETATM   22  C   UNL     1     -11.272   9.330  71.098  1.00  0.00    -0.343 C  
HETATM   23  N   UNL     1     -11.777   8.436  72.036  1.00  0.00    -0.326 N  
HETATM   24  O   UNL     1     -11.553  10.506  70.988  1.00  0.00    -0.330 OA 
HETATM   25  C   UNL     1     -11.234   7.164  71.876  1.00  0.00    -0.249 A  
HETATM   26  H   UNL     1     -12.460   8.681  72.752  1.00  0.00     0.000 HD 
HETATM   27  C   UNL     1     -10.332   7.152  70.808  1.00  0.00    -0.219 A  
HETATM   28  C   UNL     1      -9.670   5.988  70.458  1.00  0.00    -0.210 A  
HETATM   29  C   UNL     1      -9.932   4.846  71.208  1.00  0.00    -0.201 A  
HETATM   30  F   UNL     1      -9.305   3.705  70.896  1.00  0.00    -0.159 F  
HETATM   31  C   UNL     1     -10.834   4.859  72.281  1.00  0.00    -0.172 A  
HETATM   32  C   UNL     1     -11.503   6.036  72.628  1.00  0.00    -0.297 A  
ENDBRANCH  17  20
ENDBRANCH   9  12
ENDBRANCH   7   8
ENDBRANCH   6   7
ENDBRANCH   3   6
ENDBRANCH   2   3
TORSDOF 7
ENDMDL
MODEL      120
REMARK 921   NORMALIZED FREE ENERGY PREDICTED BY IDOCK:   -4.71 KCAL/MOL
REMARK 922        TOTAL FREE ENERGY PREDICTED BY IDOCK:   -7.73 KCAL/MOL
REMARK 923 INTER-LIGAND FREE ENERGY PREDICTED BY IDOCK:   -6.79 KCAL/MOL
REMARK 924 INTRA-LIGAND FREE ENERGY PREDICTED BY IDOCK:   -0.94 KCAL/MOL
REMARK 927      BINDING AFFINITY PREDICTED BY RF-SCORE:    0.00 PKD
ROOT
HETATM    1  C   UNL     1      -7.061   7.248  63.760  1.00  0.00    -0.069 C  
HETATM    2  C   UNL     1      -7.995   6.198  64.353  1.00  0.00    -0.121 C  
ENDROOT
BRANCH   2   3
HETATM    3  N   UNL     1      -8.649   6.589  65.613  1.00  0.00    -0.147 NA 
BRANCH   3   4
HETATM    4  C   UNL     1      -9.089   5.445  66.436  1.00  0.00    -0.141 C  
HETATM    5  C   UNL     1     -10.504   4.922  66.181  1.00  0.00    -0.346 C  
ENDBRANCH   3   4
BRANCH   3   6
HETATM    6  C   UNL     1      -7.794   7.505  66.407  1.00  0.00    -0.098 C  
BRANCH   6   7
HETATM    7  C   UNL     1      -8.393   8.002  67.735  1.00  0.00    -0.129 C  
BRANCH   7   8
HETATM    8  N   UNL     1      -8.913   9.346  67.635  1.00  0.00    -0.119 N  
HETATM    9  C   UNL     1      -8.847  10.212  68.698  1.00  0.00    -0.136 C  
HETATM   10  H   UNL     1      -9.336   9.657  66.761  1.00  0.00     0.000 HD 
HETATM   11  O   UNL     1      -8.331   9.894  69.768  1.00  0.00    -0.157 OA 
BRANCH   9  12
HETATM   12  C   UNL     1      -9.397  11.549  68.462  1.00  0.00    -0.171 A  
HETATM   13  C   UNL     1     -10.689  12.012  68.688  1.00  0.00    -0.236 A  
HETATM   14  C   UNL     1     -11.917  11.375  69.240  1.00  0.00    -0.400 C  
HETATM   15  N   UNL     1     -10.723  13.348  68.346  1.00  0.00    -0.249 NA 
HETATM   16  H   UNL     1     -11.556  13.935  68.386  1.00  0.00     0.000 HD 
HETATM   17  C   UNL     1      -9.488  13.781  67.947  1.00  0.00    -0.214 A  
HETATM   18  C   UNL     1      -8.635  12.686  68.006  1.00  0.00    -0.189 A  
HETATM   19  C   UNL     1      -7.177  12.661  67.667  1.00  0.00    -0.142 C  
BRANCH  17  20
HETATM   20  C   UNL     1      -9.220  15.123  67.573  1.00  0.00    -0.188 C  
HETATM   21  C   UNL     1      -9.676  16.277  68.079  1.00  0.00    -0.230 C  
HETATM   22  C   UNL     1     -10.631  16.577  69.205  1.00  0.00    -0.327 C  
HETATM   23  N   UNL     1     -10.714  17.964  69.249  1.00  0.00    -0.234 N  
HETATM   24  O   UNL     1     -11.212  15.790  69.924  1.00  0.00    -0.277 OA 
HETATM   25  C   UNL     1      -9.915  18.557  68.276  1.00  0.00    -0.376 A  
HETATM   26  H   UNL     1     -11.289  18.484  69.913  1.00  0.00     0.000 HD 
HETATM   27  C   UNL     1      -9.253  17.578  67.530  1.00  0.00    -0.242 A  
HETATM   28  C   UNL     1      -8.395  17.935  66.504  1.00  0.00    -0.290 A  
HETATM   29  C   UNL     1      -8.227  19.291  66.245  1.00  0.00    -0.318 A  
HETATM   30  F   UNL     1      -7.406  19.668  65.256  1.00  0.00    -0.305 F  
HETATM   31  C   UNL     1      -8.895  20.272  66.991  1.00  0.00    -0.427 A  
HETATM   32  C   UNL     1      -9.757  19.908  68.029  1.00  0.00    -0.510 A  
ENDBRANCH  17  20
ENDBRANCH   9  12
ENDBRANCH   7   8
ENDBRANCH   6   7
ENDBRANCH   3   6
ENDBRANCH   2   3
TORSDOF 7
ENDMDL
MODEL      121
REMARK 921   NORMALIZED FREE ENERGY PREDICTED BY IDOCK:   -4.70 KCAL/MOL
REMARK 922        TOTAL FREE ENERGY PREDICTED BY IDOCK:   -7.72 KCAL/MOL
REMARK 923 INTER-LIGAND FREE ENERGY PREDICTED BY IDOCK:   -6.51 KCAL/MOL
REMARK 924 INTRA-LIGAND FREE ENERGY PREDICTED BY IDOCK:   -1.21 KCAL/MOL
REMARK 927      BINDING AFFINITY PREDICTED BY RF-SCORE:    0.00 PKD
ROOT
HETATM    1  C   UNL     1     -11.197  16.089  64.632  1.00  0.00    -0.340 C  
HETATM    2  C   UNL     1     -10.950  14.688  65.182  1.00  0.00    -0.386 C  
ENDROOT
BRANCH   2   3
HETATM    3  N   UNL     1     -12.082  14.101  65.919  1.00  0.00    -0.411 NA 
BRANCH   3   4
HETATM    4  C   UNL     1     -12.274  12.659  65.665  1.00  0.00    -0.411 C  
HETATM    5  C   UNL     1     -12.530  12.247  64.215  1.00  0.00    -0.508 C  
ENDBRANCH   3   4
BRANCH   3   6
HETATM    6  C   UNL     1     -11.978  14.366  67.375  1.00  0.00    -0.373 C  
BRANCH   6   7
HETATM    7  C   UNL     1     -10.550  14.521  67.929  1.00  0.00    -0.243 C  
BRANCH   7   8
HETATM    8  N   UNL     1     -10.097  13.336  68.621  1.00  0.00    -0.372 N  
HETATM    9  C   UNL     1      -9.251  12.442  68.014  1.00  0.00    -0.203 C  
HETATM   10  H   UNL     1     -10.411  13.161  69.575  1.00  0.00     0.000 HD 
HETATM   11  O   UNL     1      -8.828  12.614  66.873  1.00  0.00    -0.210 OA 
BRANCH   9  12
HETATM   12  C   UNL     1      -8.855  11.289  68.828  1.00  0.00    -0.106 A  
HETATM   13  C   UNL     1      -7.630  11.030  69.434  1.00  0.00    -0.054 A  
HETATM   14  C   UNL     1      -6.348  11.784  69.503  1.00  0.00    -0.123 C  
HETATM   15  N   UNL     1      -7.746   9.840  70.122  1.00  0.00    -0.167 NA 
HETATM   16  H   UNL     1      -6.988   9.393  70.638  1.00  0.00     0.000 HD 
HETATM   17  C   UNL     1      -9.015   9.338  70.021  1.00  0.00    -0.198 A  
HETATM   18  C   UNL     1      -9.736  10.215  69.220  1.00  0.00    -0.238 A  
HETATM   19  C   UNL     1     -11.174  10.097  68.821  1.00  0.00    -0.217 C  
BRANCH  17  20
HETATM   20  C   UNL     1      -9.430   8.142  70.661  1.00  0.00    -0.174 C  
HETATM   21  C   UNL     1      -8.899   6.912  70.638  1.00  0.00    -0.150 C  
HETATM   22  C   UNL     1      -7.695   6.346  69.931  1.00  0.00    -0.109 C  
HETATM   23  N   UNL     1      -7.661   5.003  70.292  1.00  0.00    -0.066 N  
HETATM   24  O   UNL     1      -6.916   6.923  69.200  1.00  0.00    -0.072 OA 
HETATM   25  C   UNL     1      -8.711   4.676  71.145  1.00  0.00    -0.116 A  
HETATM   26  H   UNL     1      -6.954   4.341  69.972  1.00  0.00     0.000 HD 
HETATM   27  C   UNL     1      -9.501   5.800  71.396  1.00  0.00    -0.174 A  
HETATM   28  C   UNL     1     -10.606   5.714  72.226  1.00  0.00    -0.270 A  
HETATM   29  C   UNL     1     -10.896   4.475  72.788  1.00  0.00    -0.162 A  
HETATM   30  F   UNL     1     -11.960   4.359  73.593  1.00  0.00    -0.266 F  
HETATM   31  C   UNL     1     -10.106   3.346  72.532  1.00  0.00    -0.232 A  
HETATM   32  C   UNL     1      -8.988   3.439  71.697  1.00  0.00    -0.155 A  
ENDBRANCH  17  20
ENDBRANCH   9  12
ENDBRANCH   7   8
ENDBRANCH   6   7
ENDBRANCH   3   6
ENDBRANCH   2   3
TORSDOF 7
ENDMDL
MODEL      122
REMARK 921   NORMALIZED FREE ENERGY PREDICTED BY IDOCK:   -4.66 KCAL/MOL
REMARK 922        TOTAL FREE ENERGY PREDICTED BY IDOCK:   -7.65 KCAL/MOL
REMARK 923 INTER-LIGAND FREE ENERGY PREDICTED BY IDOCK:   -7.67 KCAL/MOL
REMARK 924 INTRA-LIGAND FREE ENERGY PREDICTED BY IDOCK:    0.02 KCAL/MOL
REMARK 927      BINDING AFFINITY PREDICTED BY RF-SCORE:    0.00 PKD
ROOT
HETATM    1  C   UNL     1      -8.343  11.417  66.079  1.00  0.00    -0.019 C  
HETATM    2  C   UNL     1      -9.052  12.764  65.972  1.00  0.00     0.145 C  
ENDROOT
BRANCH   2   3
HETATM    3  N   UNL     1      -9.802  12.973  64.722  1.00  0.00    -0.091 NA 
BRANCH   3   4
HETATM    4  C   UNL     1     -10.675  11.840  64.355  1.00  0.00    -0.327 C  
HETATM    5  C   UNL     1     -12.094  12.189  63.902  1.00  0.00    -0.584 C  
ENDBRANCH   3   4
BRANCH   3   6
HETATM    6  C   UNL     1     -10.576  14.238  64.759  1.00  0.00    -0.412 C  
BRANCH   6   7
HETATM    7  C   UNL     1     -10.445  15.068  66.050  1.00  0.00    -0.315 C  
BRANCH   7   8
HETATM    8  N   UNL     1     -10.607  14.264  67.239  1.00  0.00    -0.276 N  
HETATM    9  C   UNL     1     -11.828  13.737  67.577  1.00  0.00    -0.387 C  
HETATM   10  H   UNL     1      -9.801  14.086  67.839  1.00  0.00     0.000 HD 
HETATM   11  O   UNL     1     -12.827  13.905  66.881  1.00  0.00     0.048 OA 
BRANCH   9  12
HETATM   12  C   UNL     1     -11.854  12.930  68.800  1.00  0.00    -0.353 A  
HETATM   13  C   UNL     1     -12.148  13.327  70.100  1.00  0.00    -0.333 A  
HETATM   14  C   UNL     1     -12.544  14.631  70.701  1.00  0.00    -0.419 C  
HETATM   15  N   UNL     1     -12.078  12.211  70.907  1.00  0.00    -0.418 NA 
HETATM   16  H   UNL     1     -12.220  12.216  71.917  1.00  0.00     0.000 HD 
HETATM   17  C   UNL     1     -11.792  11.094  70.171  1.00  0.00    -0.365 A  
HETATM   18  C   UNL     1     -11.645  11.503  68.851  1.00  0.00    -0.384 A  
HETATM   19  C   UNL     1     -11.330  10.640  67.669  1.00  0.00    -0.284 C  
BRANCH  17  20
HETATM   20  C   UNL     1     -11.696   9.796  70.736  1.00  0.00    -0.407 C  
HETATM   21  C   UNL     1     -10.634   8.998  70.913  1.00  0.00    -0.316 C  
HETATM   22  C   UNL     1      -9.175   9.172  70.576  1.00  0.00    -0.241 C  
HETATM   23  N   UNL     1      -8.564   7.995  70.997  1.00  0.00    -0.129 N  
HETATM   24  O   UNL     1      -8.636  10.123  70.049  1.00  0.00    -0.152 OA 
HETATM   25  C   UNL     1      -9.483   7.113  71.559  1.00  0.00    -0.157 A  
HETATM   26  H   UNL     1      -7.566   7.803  70.907  1.00  0.00     0.000 HD 
HETATM   27  C   UNL     1     -10.764   7.670  71.538  1.00  0.00    -0.249 A  
HETATM   28  C   UNL     1     -11.844   6.972  72.052  1.00  0.00    -0.336 A  
HETATM   29  C   UNL     1     -11.604   5.706  72.576  1.00  0.00    -0.246 A  
HETATM   30  F   UNL     1     -12.629   5.004  73.077  1.00  0.00    -0.263 F  
HETATM   31  C   UNL     1     -10.319   5.146  72.592  1.00  0.00    -0.248 A  
HETATM   32  C   UNL     1      -9.231   5.857  72.077  1.00  0.00    -0.154 A  
ENDBRANCH  17  20
ENDBRANCH   9  12
ENDBRANCH   7   8
ENDBRANCH   6   7
ENDBRANCH   3   6
ENDBRANCH   2   3
TORSDOF 7
ENDMDL
MODEL      123
REMARK 921   NORMALIZED FREE ENERGY PREDICTED BY IDOCK:   -4.64 KCAL/MOL
REMARK 922        TOTAL FREE ENERGY PREDICTED BY IDOCK:   -7.63 KCAL/MOL
REMARK 923 INTER-LIGAND FREE ENERGY PREDICTED BY IDOCK:   -7.76 KCAL/MOL
REMARK 924 INTRA-LIGAND FREE ENERGY PREDICTED BY IDOCK:    0.14 KCAL/MOL
REMARK 927      BINDING AFFINITY PREDICTED BY RF-SCORE:    0.00 PKD
ROOT
HETATM    1  C   UNL     1     -10.784  16.643  68.564  1.00  0.00    -0.351 C  
HETATM    2  C   UNL     1     -10.483  15.327  67.853  1.00  0.00    -0.253 C  
ENDROOT
BRANCH   2   3
HETATM    3  N   UNL     1     -11.648  14.680  67.224  1.00  0.00    -0.379 NA 
BRANCH   3   4
HETATM    4  C   UNL     1     -11.422  14.281  65.821  1.00  0.00    -0.335 C  
HETATM    5  C   UNL     1     -10.154  14.816  65.153  1.00  0.00    -0.358 C  
ENDBRANCH   3   4
BRANCH   3   6
HETATM    6  C   UNL     1     -12.125  13.526  68.025  1.00  0.00    -0.262 C  
BRANCH   6   7
HETATM    7  C   UNL     1     -11.355  13.249  69.328  1.00  0.00    -0.253 C  
BRANCH   7   8
HETATM    8  N   UNL     1     -11.313  11.841  69.654  1.00  0.00    -0.427 N  
HETATM    9  C   UNL     1     -12.130  11.314  70.622  1.00  0.00    -0.383 C  
HETATM   10  H   UNL     1     -10.665  11.230  69.156  1.00  0.00     0.000 HD 
HETATM   11  O   UNL     1     -12.941  12.002  71.238  1.00  0.00    -0.334 OA 
BRANCH   9  12
HETATM   12  C   UNL     1     -11.999   9.871  70.846  1.00  0.00    -0.434 A  
HETATM   13  C   UNL     1     -12.742   9.049  71.686  1.00  0.00    -0.358 A  
HETATM   14  C   UNL     1     -13.893   9.298  72.599  1.00  0.00    -0.379 C  
HETATM   15  N   UNL     1     -12.275   7.760  71.534  1.00  0.00    -0.308 NA 
HETATM   16  H   UNL     1     -12.622   6.953  72.053  1.00  0.00     0.000 HD 
HETATM   17  C   UNL     1     -11.283   7.708  70.592  1.00  0.00    -0.266 A  
HETATM   18  C   UNL     1     -11.083   9.007  70.141  1.00  0.00    -0.228 A  
HETATM   19  C   UNL     1     -10.103   9.460  69.105  1.00  0.00    -0.200 C  
BRANCH  17  20
HETATM   20  C   UNL     1     -10.644   6.503  70.205  1.00  0.00    -0.277 C  
HETATM   21  C   UNL     1     -10.381   5.391  70.905  1.00  0.00    -0.312 C  
HETATM   22  C   UNL     1     -10.649   5.016  72.340  1.00  0.00    -0.215 C  
HETATM   23  N   UNL     1     -10.136   3.731  72.480  1.00  0.00    -0.162 N  
HETATM   24  O   UNL     1     -11.190   5.681  73.200  1.00  0.00    -0.275 OA 
HETATM   25  C   UNL     1      -9.580   3.269  71.290  1.00  0.00    -0.159 A  
HETATM   26  H   UNL     1     -10.163   3.193  73.346  1.00  0.00     0.000 HD 
HETATM   27  C   UNL     1      -9.702   4.237  70.290  1.00  0.00    -0.280 A  
HETATM   28  C   UNL     1      -9.222   3.995  69.014  1.00  0.00    -0.215 A  
HETATM   29  C   UNL     1      -8.616   2.766  68.773  1.00  0.00    -0.075 A  
HETATM   30  F   UNL     1      -8.139   2.504  67.550  1.00  0.00    -0.066 F  
HETATM   31  C   UNL     1      -8.491   1.797  69.778  1.00  0.00    -0.081 A  
HETATM   32  C   UNL     1      -8.981   2.044  71.064  1.00  0.00    -0.137 A  
ENDBRANCH  17  20
ENDBRANCH   9  12
ENDBRANCH   7   8
ENDBRANCH   6   7
ENDBRANCH   3   6
ENDBRANCH   2   3
TORSDOF 7
ENDMDL
MODEL      124
REMARK 921   NORMALIZED FREE ENERGY PREDICTED BY IDOCK:   -4.64 KCAL/MOL
REMARK 922        TOTAL FREE ENERGY PREDICTED BY IDOCK:   -7.63 KCAL/MOL
REMARK 923 INTER-LIGAND FREE ENERGY PREDICTED BY IDOCK:   -6.58 KCAL/MOL
REMARK 924 INTRA-LIGAND FREE ENERGY PREDICTED BY IDOCK:   -1.04 KCAL/MOL
REMARK 927      BINDING AFFINITY PREDICTED BY RF-SCORE:    0.00 PKD
ROOT
HETATM    1  C   UNL     1      -7.641  17.867  67.651  1.00  0.00    -0.215 C  
HETATM    2  C   UNL     1      -9.165  17.806  67.685  1.00  0.00    -0.249 C  
ENDROOT
BRANCH   2   3
HETATM    3  N   UNL     1      -9.741  16.491  67.358  1.00  0.00    -0.243 NA 
BRANCH   3   4
HETATM    4  C   UNL     1      -9.426  16.026  65.991  1.00  0.00    -0.349 C  
HETATM    5  C   UNL     1     -10.415  15.048  65.356  1.00  0.00    -0.406 C  
ENDBRANCH   3   4
BRANCH   3   6
HETATM    6  C   UNL     1      -9.358  15.466  68.359  1.00  0.00    -0.193 C  
BRANCH   6   7
HETATM    7  C   UNL     1     -10.485  14.525  68.822  1.00  0.00    -0.246 C  
BRANCH   7   8
HETATM    8  N   UNL     1     -10.117  13.132  68.717  1.00  0.00    -0.419 N  
HETATM    9  C   UNL     1     -10.993  12.204  68.211  1.00  0.00    -0.234 C  
HETATM   10  H   UNL     1      -9.191  12.832  69.023  1.00  0.00     0.000 HD 
HETATM   11  O   UNL     1     -12.113  12.514  67.811  1.00  0.00    -0.409 OA 
BRANCH   9  12
HETATM   12  C   UNL     1     -10.493  10.828  68.145  1.00  0.00    -0.214 A  
HETATM   13  C   UNL     1     -10.390   9.889  69.166  1.00  0.00    -0.209 A  
HETATM   14  C   UNL     1     -10.748   9.912  70.611  1.00  0.00    -0.372 C  
HETATM   15  N   UNL     1      -9.894   8.725  68.616  1.00  0.00    -0.164 NA 
HETATM   16  H   UNL     1      -9.691   7.876  69.145  1.00  0.00     0.000 HD 
HETATM   17  C   UNL     1      -9.711   8.861  67.267  1.00  0.00    -0.181 A  
HETATM   18  C   UNL     1     -10.073  10.160  66.937  1.00  0.00    -0.279 A  
HETATM   19  C   UNL     1     -10.049  10.785  65.576  1.00  0.00    -0.335 C  
BRANCH  17  20
HETATM   20  C   UNL     1      -9.244   7.808  66.438  1.00  0.00    -0.229 C  
HETATM   21  C   UNL     1      -9.599   6.518  66.385  1.00  0.00    -0.151 C  
HETATM   22  C   UNL     1     -10.598   5.712  67.176  1.00  0.00    -0.270 C  
HETATM   23  N   UNL     1     -10.509   4.422  66.665  1.00  0.00    -0.248 N  
HETATM   24  O   UNL     1     -11.326   6.093  68.070  1.00  0.00    -0.221 OA 
HETATM   25  C   UNL     1      -9.567   4.339  65.644  1.00  0.00    -0.189 A  
HETATM   26  H   UNL     1     -11.066   3.634  66.997  1.00  0.00     0.000 HD 
HETATM   27  C   UNL     1      -8.978   5.588  65.425  1.00  0.00    -0.106 A  
HETATM   28  C   UNL     1      -8.010   5.748  64.448  1.00  0.00    -0.126 A  
HETATM   29  C   UNL     1      -7.648   4.627  63.707  1.00  0.00    -0.064 A  
HETATM   30  F   UNL     1      -6.712   4.750  62.758  1.00  0.00    -0.027 F  
HETATM   31  C   UNL     1      -8.235   3.375  63.931  1.00  0.00    -0.090 A  
HETATM   32  C   UNL     1      -9.216   3.218  64.916  1.00  0.00    -0.146 A  
ENDBRANCH  17  20
ENDBRANCH   9  12
ENDBRANCH   7   8
ENDBRANCH   6   7
ENDBRANCH   3   6
ENDBRANCH   2   3
TORSDOF 7
ENDMDL
MODEL      125
REMARK 921   NORMALIZED FREE ENERGY PREDICTED BY IDOCK:   -4.62 KCAL/MOL
REMARK 922        TOTAL FREE ENERGY PREDICTED BY IDOCK:   -7.59 KCAL/MOL
REMARK 923 INTER-LIGAND FREE ENERGY PREDICTED BY IDOCK:   -6.98 KCAL/MOL
REMARK 924 INTRA-LIGAND FREE ENERGY PREDICTED BY IDOCK:   -0.61 KCAL/MOL
REMARK 927      BINDING AFFINITY PREDICTED BY RF-SCORE:    0.00 PKD
ROOT
HETATM    1  C   UNL     1     -10.560  19.630  66.211  1.00  0.00    -0.585 C  
HETATM    2  C   UNL     1     -10.659  18.288  65.493  1.00  0.00     0.046 C  
ENDROOT
BRANCH   2   3
HETATM    3  N   UNL     1      -9.770  17.237  66.017  1.00  0.00    -0.497 NA 
BRANCH   3   4
HETATM    4  C   UNL     1      -8.960  17.664  67.175  1.00  0.00    -0.244 C  
HETATM    5  C   UNL     1      -9.638  17.601  68.545  1.00  0.00    -0.315 C  
ENDBRANCH   3   4
BRANCH   3   6
HETATM    6  C   UNL     1     -10.523  15.998  66.334  1.00  0.00    -0.309 C  
BRANCH   6   7
HETATM    7  C   UNL     1     -10.521  14.913  65.243  1.00  0.00    -0.404 C  
BRANCH   7   8
HETATM    8  N   UNL     1     -10.317  13.589  65.784  1.00  0.00    -0.286 N  
HETATM    9  C   UNL     1     -11.379  12.758  66.043  1.00  0.00    -0.321 C  
HETATM   10  H   UNL     1      -9.369  13.266  65.978  1.00  0.00     0.000 HD 
HETATM   11  O   UNL     1     -12.539  13.090  65.811  1.00  0.00    -0.500 OA 
BRANCH   9  12
HETATM   12  C   UNL     1     -11.035  11.437  66.577  1.00  0.00    -0.328 A  
HETATM   13  C   UNL     1     -11.303  10.910  67.837  1.00  0.00    -0.308 A  
HETATM   14  C   UNL     1     -12.015  11.441  69.032  1.00  0.00    -0.387 C  
HETATM   15  N   UNL     1     -10.816   9.620  67.864  1.00  0.00    -0.426 NA 
HETATM   16  H   UNL     1     -10.852   9.006  68.678  1.00  0.00     0.000 HD 
HETATM   17  C   UNL     1     -10.279   9.275  66.654  1.00  0.00    -0.253 A  
HETATM   18  C   UNL     1     -10.397  10.383  65.826  1.00  0.00    -0.257 A  
HETATM   19  C   UNL     1      -9.955  10.494  64.400  1.00  0.00    -0.410 C  
BRANCH  17  20
HETATM   20  C   UNL     1      -9.737   7.992  66.385  1.00  0.00    -0.255 C  
HETATM   21  C   UNL     1      -8.464   7.593  66.255  1.00  0.00    -0.140 C  
HETATM   22  C   UNL     1      -7.159   8.343  66.336  1.00  0.00    -0.071 C  
HETATM   23  N   UNL     1      -6.177   7.385  66.109  1.00  0.00    -0.040 N  
HETATM   24  O   UNL     1      -6.986   9.526  66.548  1.00  0.00    -0.082 OA 
HETATM   25  C   UNL     1      -6.729   6.125  65.898  1.00  0.00    -0.048 A  
HETATM   26  H   UNL     1      -5.176   7.581  66.099  1.00  0.00     0.000 HD 
HETATM   27  C   UNL     1      -8.123   6.187  65.978  1.00  0.00    -0.118 A  
HETATM   28  C   UNL     1      -8.889   5.047  65.805  1.00  0.00    -0.139 A  
HETATM   29  C   UNL     1      -8.223   3.853  65.545  1.00  0.00    -0.105 A  
HETATM   30  F   UNL     1      -8.937   2.734  65.370  1.00  0.00    -0.117 F  
HETATM   31  C   UNL     1      -6.825   3.793  65.461  1.00  0.00    -0.053 A  
HETATM   32  C   UNL     1      -6.055   4.946  65.641  1.00  0.00    -0.030 A  
ENDBRANCH  17  20
ENDBRANCH   9  12
ENDBRANCH   7   8
ENDBRANCH   6   7
ENDBRANCH   3   6
ENDBRANCH   2   3
TORSDOF 7
ENDMDL
MODEL      126
REMARK 921   NORMALIZED FREE ENERGY PREDICTED BY IDOCK:   -4.62 KCAL/MOL
REMARK 922        TOTAL FREE ENERGY PREDICTED BY IDOCK:   -7.59 KCAL/MOL
REMARK 923 INTER-LIGAND FREE ENERGY PREDICTED BY IDOCK:   -6.27 KCAL/MOL
REMARK 924 INTRA-LIGAND FREE ENERGY PREDICTED BY IDOCK:   -1.32 KCAL/MOL
REMARK 927      BINDING AFFINITY PREDICTED BY RF-SCORE:    0.00 PKD
ROOT
HETATM    1  C   UNL     1     -10.554  19.641  65.960  1.00  0.00    -0.584 C  
HETATM    2  C   UNL     1      -9.138  19.280  66.398  1.00  0.00    -0.352 C  
ENDROOT
BRANCH   2   3
HETATM    3  N   UNL     1      -8.953  17.878  66.810  1.00  0.00    -0.254 NA 
BRANCH   3   4
HETATM    4  C   UNL     1     -10.015  16.972  66.330  1.00  0.00    -0.307 C  
HETATM    5  C   UNL     1     -10.780  16.189  67.399  1.00  0.00    -0.291 C  
ENDBRANCH   3   4
BRANCH   3   6
HETATM    6  C   UNL     1      -7.616  17.370  66.416  1.00  0.00    -0.307 C  
BRANCH   6   7
HETATM    7  C   UNL     1      -6.685  16.962  67.573  1.00  0.00    -0.149 C  
BRANCH   7   8
HETATM    8  N   UNL     1      -6.619  15.530  67.747  1.00  0.00    -0.145 N  
HETATM    9  C   UNL     1      -7.354  14.900  68.720  1.00  0.00    -0.127 C  
HETATM   10  H   UNL     1      -6.016  14.977  67.138  1.00  0.00     0.000 HD 
HETATM   11  O   UNL     1      -8.110  15.515  69.469  1.00  0.00    -0.240 OA 
BRANCH   9  12
HETATM   12  C   UNL     1      -7.207  13.443  68.783  1.00  0.00    -0.092 A  
HETATM   13  C   UNL     1      -6.403  12.684  69.627  1.00  0.00    -0.095 A  
HETATM   14  C   UNL     1      -5.466  13.036  70.729  1.00  0.00    -0.179 C  
HETATM   15  N   UNL     1      -6.628  11.354  69.337  1.00  0.00    -0.107 NA 
HETATM   16  H   UNL     1      -6.148  10.575  69.787  1.00  0.00     0.000 HD 
HETATM   17  C   UNL     1      -7.581  11.221  68.365  1.00  0.00    -0.120 A  
HETATM   18  C   UNL     1      -7.966  12.503  67.994  1.00  0.00    -0.153 A  
HETATM   19  C   UNL     1      -8.988  12.875  66.966  1.00  0.00    -0.225 C  
BRANCH  17  20
HETATM   20  C   UNL     1      -8.039   9.963  67.895  1.00  0.00    -0.109 C  
HETATM   21  C   UNL     1      -9.106   9.235  68.249  1.00  0.00    -0.128 C  
HETATM   22  C   UNL     1     -10.194   9.469  69.266  1.00  0.00    -0.203 C  
HETATM   23  N   UNL     1     -11.018   8.352  69.178  1.00  0.00    -0.430 N  
HETATM   24  O   UNL     1     -10.332  10.419  70.010  1.00  0.00    -0.235 OA 
HETATM   25  C   UNL     1     -10.562   7.453  68.218  1.00  0.00    -0.157 A  
HETATM   26  H   UNL     1     -11.854   8.210  69.745  1.00  0.00     0.000 HD 
HETATM   27  C   UNL     1      -9.398   7.937  67.614  1.00  0.00    -0.161 A  
HETATM   28  C   UNL     1      -8.765   7.210  66.621  1.00  0.00    -0.131 A  
HETATM   29  C   UNL     1      -9.325   5.989  66.258  1.00  0.00    -0.145 A  
HETATM   30  F   UNL     1      -8.734   5.261  65.302  1.00  0.00    -0.134 F  
HETATM   31  C   UNL     1     -10.489   5.502  66.867  1.00  0.00    -0.348 A  
HETATM   32  C   UNL     1     -11.128   6.242  67.867  1.00  0.00    -0.360 A  
ENDBRANCH  17  20
ENDBRANCH   9  12
ENDBRANCH   7   8
ENDBRANCH   6   7
ENDBRANCH   3   6
ENDBRANCH   2   3
TORSDOF 7
ENDMDL
MODEL      127
REMARK 921   NORMALIZED FREE ENERGY PREDICTED BY IDOCK:   -4.61 KCAL/MOL
REMARK 922        TOTAL FREE ENERGY PREDICTED BY IDOCK:   -7.59 KCAL/MOL
REMARK 923 INTER-LIGAND FREE ENERGY PREDICTED BY IDOCK:   -6.74 KCAL/MOL
REMARK 924 INTRA-LIGAND FREE ENERGY PREDICTED BY IDOCK:   -0.85 KCAL/MOL
REMARK 927      BINDING AFFINITY PREDICTED BY RF-SCORE:    0.00 PKD
ROOT
HETATM    1  C   UNL     1     -12.190  13.310  64.053  1.00  0.00    -0.475 C  
HETATM    2  C   UNL     1     -11.251  12.340  64.765  1.00  0.00    -0.318 C  
ENDROOT
BRANCH   2   3
HETATM    3  N   UNL     1     -10.639  12.861  65.999  1.00  0.00    -0.267 NA 
BRANCH   3   4
HETATM    4  C   UNL     1     -11.304  14.068  66.530  1.00  0.00    -0.336 C  
HETATM    5  C   UNL     1     -10.391  15.173  67.064  1.00  0.00    -0.271 C  
ENDBRANCH   3   4
BRANCH   3   6
HETATM    6  C   UNL     1     -10.550  11.812  67.044  1.00  0.00    -0.232 C  
BRANCH   6   7
HETATM    7  C   UNL     1     -11.857  11.500  67.797  1.00  0.00    -0.154 C  
BRANCH   7   8
HETATM    8  N   UNL     1     -11.705  10.416  68.739  1.00  0.00    -0.520 N  
HETATM    9  C   UNL     1     -11.641  10.655  70.089  1.00  0.00    -0.330 C  
HETATM   10  H   UNL     1     -11.643   9.457  68.396  1.00  0.00     0.000 HD 
HETATM   11  O   UNL     1     -11.728  11.788  70.557  1.00  0.00    -0.272 OA 
BRANCH   9  12
HETATM   12  C   UNL     1     -11.499   9.468  70.937  1.00  0.00    -0.405 A  
HETATM   13  C   UNL     1     -12.411   8.926  71.837  1.00  0.00    -0.378 A  
HETATM   14  C   UNL     1     -13.796   9.303  72.235  1.00  0.00    -0.492 C  
HETATM   15  N   UNL     1     -11.845   7.790  72.376  1.00  0.00    -0.432 NA 
HETATM   16  H   UNL     1     -12.284   7.206  73.087  1.00  0.00     0.000 HD 
HETATM   17  C   UNL     1     -10.614   7.550  71.828  1.00  0.00    -0.206 A  
HETATM   18  C   UNL     1     -10.364   8.577  70.927  1.00  0.00    -0.245 A  
HETATM   19  C   UNL     1      -9.145   8.753  70.076  1.00  0.00    -0.164 C  
BRANCH  17  20
HETATM   20  C   UNL     1      -9.818   6.427  72.170  1.00  0.00    -0.170 C  
HETATM   21  C   UNL     1      -8.629   6.355  72.783  1.00  0.00    -0.125 C  
HETATM   22  C   UNL     1      -7.705   7.418  73.319  1.00  0.00    -0.095 C  
HETATM   23  N   UNL     1      -6.617   6.723  73.837  1.00  0.00    -0.072 N  
HETATM   24  O   UNL     1      -7.860   8.622  73.305  1.00  0.00    -0.391 OA 
HETATM   25  C   UNL     1      -6.766   5.348  73.683  1.00  0.00    -0.078 A  
HETATM   26  H   UNL     1      -5.810   7.167  74.277  1.00  0.00     0.000 HD 
HETATM   27  C   UNL     1      -7.977   5.060  73.048  1.00  0.00    -0.101 A  
HETATM   28  C   UNL     1      -8.344   3.750  72.792  1.00  0.00    -0.094 A  
HETATM   29  C   UNL     1      -7.464   2.745  73.182  1.00  0.00    -0.046 A  
HETATM   30  F   UNL     1      -7.789   1.468  72.945  1.00  0.00    -0.036 F  
HETATM   31  C   UNL     1      -6.248   3.035  73.815  1.00  0.00    -0.019 A  
HETATM   32  C   UNL     1      -5.884   4.359  74.076  1.00  0.00    -0.016 A  
ENDBRANCH  17  20
ENDBRANCH   9  12
ENDBRANCH   7   8
ENDBRANCH   6   7
ENDBRANCH   3   6
ENDBRANCH   2   3
TORSDOF 7
ENDMDL
MODEL      128
REMARK 921   NORMALIZED FREE ENERGY PREDICTED BY IDOCK:   -4.60 KCAL/MOL
REMARK 922        TOTAL FREE ENERGY PREDICTED BY IDOCK:   -7.57 KCAL/MOL
REMARK 923 INTER-LIGAND FREE ENERGY PREDICTED BY IDOCK:   -6.67 KCAL/MOL
REMARK 924 INTRA-LIGAND FREE ENERGY PREDICTED BY IDOCK:   -0.90 KCAL/MOL
REMARK 927      BINDING AFFINITY PREDICTED BY RF-SCORE:    0.00 PKD
ROOT
HETATM    1  C   UNL     1      -6.778   7.416  72.552  1.00  0.00    -0.059 C  
HETATM    2  C   UNL     1      -7.135   6.026  72.035  1.00  0.00    -0.087 C  
ENDROOT
BRANCH   2   3
HETATM    3  N   UNL     1      -8.098   6.006  70.921  1.00  0.00    -0.119 NA 
BRANCH   3   4
HETATM    4  C   UNL     1      -9.060   4.887  70.986  1.00  0.00    -0.140 C  
HETATM    5  C   UNL     1     -10.306   5.105  71.845  1.00  0.00    -0.275 C  
ENDBRANCH   3   4
BRANCH   3   6
HETATM    6  C   UNL     1      -8.810   7.300  70.796  1.00  0.00    -0.150 C  
BRANCH   6   7
HETATM    7  C   UNL     1      -8.894   7.887  69.375  1.00  0.00    -0.145 C  
BRANCH   7   8
HETATM    8  N   UNL     1      -9.275   9.281  69.377  1.00  0.00    -0.153 N  
HETATM    9  C   UNL     1      -9.325  10.003  68.210  1.00  0.00    -0.132 C  
HETATM   10  H   UNL     1      -9.510   9.736  70.259  1.00  0.00     0.000 HD 
HETATM   11  O   UNL     1      -9.069   9.499  67.119  1.00  0.00    -0.133 OA 
BRANCH   9  12
HETATM   12  C   UNL     1      -9.738  11.402  68.347  1.00  0.00    -0.203 A  
HETATM   13  C   UNL     1     -10.962  11.911  68.769  1.00  0.00    -0.235 A  
HETATM   14  C   UNL     1     -12.225  11.273  69.234  1.00  0.00    -0.290 C  
HETATM   15  N   UNL     1     -10.868  13.287  68.767  1.00  0.00    -0.250 NA 
HETATM   16  H   UNL     1     -11.631  13.920  69.006  1.00  0.00     0.000 HD 
HETATM   17  C   UNL     1      -9.612  13.690  68.400  1.00  0.00    -0.203 A  
HETATM   18  C   UNL     1      -8.880  12.541  68.130  1.00  0.00    -0.191 A  
HETATM   19  C   UNL     1      -7.450  12.466  67.694  1.00  0.00    -0.138 C  
BRANCH  17  20
HETATM   20  C   UNL     1      -9.220  15.052  68.347  1.00  0.00    -0.193 C  
HETATM   21  C   UNL     1      -9.581  16.032  67.507  1.00  0.00    -0.222 C  
HETATM   22  C   UNL     1     -10.513  16.052  66.323  1.00  0.00    -0.320 C  
HETATM   23  N   UNL     1     -10.470  17.360  65.851  1.00  0.00    -0.323 N  
HETATM   24  O   UNL     1     -11.163  15.134  65.865  1.00  0.00    -0.338 OA 
HETATM   25  C   UNL     1      -9.617  18.152  66.614  1.00  0.00    -0.306 A  
HETATM   26  H   UNL     1     -11.000  17.697  65.047  1.00  0.00     0.000 HD 
HETATM   27  C   UNL     1      -9.045  17.398  67.642  1.00  0.00    -0.234 A  
HETATM   28  C   UNL     1      -8.162  17.980  68.535  1.00  0.00    -0.311 A  
HETATM   29  C   UNL     1      -7.865  19.329  68.364  1.00  0.00    -0.341 A  
HETATM   30  F   UNL     1      -7.011  19.919  69.210  1.00  0.00    -0.351 F  
HETATM   31  C   UNL     1      -8.435  20.083  67.329  1.00  0.00    -0.390 A  
HETATM   32  C   UNL     1      -9.331  19.492  66.433  1.00  0.00    -0.443 A  
ENDBRANCH  17  20
ENDBRANCH   9  12
ENDBRANCH   7   8
ENDBRANCH   6   7
ENDBRANCH   3   6
ENDBRANCH   2   3
TORSDOF 7
ENDMDL
MODEL      129
REMARK 921   NORMALIZED FREE ENERGY PREDICTED BY IDOCK:   -4.60 KCAL/MOL
REMARK 922        TOTAL FREE ENERGY PREDICTED BY IDOCK:   -7.57 KCAL/MOL
REMARK 923 INTER-LIGAND FREE ENERGY PREDICTED BY IDOCK:   -6.81 KCAL/MOL
REMARK 924 INTRA-LIGAND FREE ENERGY PREDICTED BY IDOCK:   -0.76 KCAL/MOL
REMARK 927      BINDING AFFINITY PREDICTED BY RF-SCORE:    0.00 PKD
ROOT
HETATM    1  C   UNL     1      -8.002  17.866  68.328  1.00  0.00    -0.292 C  
HETATM    2  C   UNL     1      -9.516  17.772  68.165  1.00  0.00    -0.282 C  
ENDROOT
BRANCH   2   3
HETATM    3  N   UNL     1     -10.013  16.458  67.722  1.00  0.00    -0.244 NA 
BRANCH   3   4
HETATM    4  C   UNL     1      -9.447  16.011  66.433  1.00  0.00    -0.293 C  
HETATM    5  C   UNL     1     -10.165  14.855  65.734  1.00  0.00    -0.358 C  
ENDBRANCH   3   4
BRANCH   3   6
HETATM    6  C   UNL     1      -9.815  15.423  68.766  1.00  0.00    -0.211 C  
BRANCH   6   7
HETATM    7  C   UNL     1     -11.018  14.499  69.032  1.00  0.00    -0.257 C  
BRANCH   7   8
HETATM    8  N   UNL     1     -10.649  13.102  69.031  1.00  0.00    -0.424 N  
HETATM    9  C   UNL     1     -11.418  12.167  68.385  1.00  0.00    -0.304 C  
HETATM   10  H   UNL     1      -9.804  12.806  69.519  1.00  0.00     0.000 HD 
HETATM   11  O   UNL     1     -12.436  12.473  67.767  1.00  0.00    -0.085 OA 
BRANCH   9  12
HETATM   12  C   UNL     1     -10.927  10.788  68.448  1.00  0.00    -0.299 A  
HETATM   13  C   UNL     1     -10.229  10.066  67.485  1.00  0.00    -0.212 A  
HETATM   14  C   UNL     1      -9.728  10.405  66.124  1.00  0.00    -0.262 C  
HETATM   15  N   UNL     1      -9.953   8.822  68.011  1.00  0.00    -0.173 NA 
HETATM   16  H   UNL     1      -9.474   8.075  67.508  1.00  0.00     0.000 HD 
HETATM   17  C   UNL     1     -10.409   8.723  69.297  1.00  0.00    -0.214 A  
HETATM   18  C   UNL     1     -11.023   9.930  69.605  1.00  0.00    -0.285 A  
HETATM   19  C   UNL     1     -11.673  10.307  70.899  1.00  0.00    -0.472 C  
BRANCH  17  20
HETATM   20  C   UNL     1     -10.229   7.565  70.096  1.00  0.00    -0.206 C  
HETATM   21  C   UNL     1     -10.010   6.290  69.748  1.00  0.00    -0.204 C  
HETATM   22  C   UNL     1      -9.884   5.619  68.404  1.00  0.00    -0.139 C  
HETATM   23  N   UNL     1      -9.667   4.275  68.689  1.00  0.00    -0.138 N  
HETATM   24  O   UNL     1      -9.958   6.127  67.303  1.00  0.00    -0.124 OA 
HETATM   25  C   UNL     1      -9.643   4.040  70.060  1.00  0.00    -0.204 A  
HETATM   26  H   UNL     1      -9.540   3.552  67.981  1.00  0.00     0.000 HD 
HETATM   27  C   UNL     1      -9.844   5.232  70.761  1.00  0.00    -0.261 A  
HETATM   28  C   UNL     1      -9.855   5.243  72.145  1.00  0.00    -0.216 A  
HETATM   29  C   UNL     1      -9.666   4.031  72.802  1.00  0.00    -0.141 A  
HETATM   30  F   UNL     1      -9.675   4.008  74.141  1.00  0.00    -0.116 F  
HETATM   31  C   UNL     1      -9.469   2.835  72.099  1.00  0.00    -0.185 A  
HETATM   32  C   UNL     1      -9.454   2.830  70.700  1.00  0.00    -0.211 A  
ENDBRANCH  17  20
ENDBRANCH   9  12
ENDBRANCH   7   8
ENDBRANCH   6   7
ENDBRANCH   3   6
ENDBRANCH   2   3
TORSDOF 7
ENDMDL
MODEL      130
REMARK 921   NORMALIZED FREE ENERGY PREDICTED BY IDOCK:   -4.59 KCAL/MOL
REMARK 922        TOTAL FREE ENERGY PREDICTED BY IDOCK:   -7.56 KCAL/MOL
REMARK 923 INTER-LIGAND FREE ENERGY PREDICTED BY IDOCK:   -6.59 KCAL/MOL
REMARK 924 INTRA-LIGAND FREE ENERGY PREDICTED BY IDOCK:   -0.98 KCAL/MOL
REMARK 927      BINDING AFFINITY PREDICTED BY RF-SCORE:    0.00 PKD
ROOT
HETATM    1  C   UNL     1      -8.565   4.103  63.516  1.00  0.00    -0.105 C  
HETATM    2  C   UNL     1      -8.955   4.329  64.974  1.00  0.00    -0.141 C  
ENDROOT
BRANCH   2   3
HETATM    3  N   UNL     1      -7.826   4.574  65.888  1.00  0.00    -0.094 NA 
BRANCH   3   4
HETATM    4  C   UNL     1      -7.351   3.361  66.585  1.00  0.00    -0.075 C  
HETATM    5  C   UNL     1      -8.410   2.529  67.309  1.00  0.00    -0.094 C  
ENDBRANCH   3   4
BRANCH   3   6
HETATM    6  C   UNL     1      -6.704   5.251  65.194  1.00  0.00    -0.048 C  
BRANCH   6   7
HETATM    7  C   UNL     1      -6.508   6.741  65.529  1.00  0.00    -0.050 C  
BRANCH   7   8
HETATM    8  N   UNL     1      -7.605   7.280  66.301  1.00  0.00    -0.089 N  
HETATM    9  C   UNL     1      -8.250   8.426  65.910  1.00  0.00    -0.123 C  
HETATM   10  H   UNL     1      -7.904   6.801  67.150  1.00  0.00     0.000 HD 
HETATM   11  O   UNL     1      -7.942   9.032  64.885  1.00  0.00    -0.113 OA 
BRANCH   9  12
HETATM   12  C   UNL     1      -9.353   8.859  66.771  1.00  0.00    -0.224 A  
HETATM   13  C   UNL     1     -10.493   8.156  67.148  1.00  0.00    -0.326 A  
HETATM   14  C   UNL     1     -10.981   6.779  66.858  1.00  0.00    -0.370 C  
HETATM   15  N   UNL     1     -11.224   8.962  67.994  1.00  0.00    -0.289 NA 
HETATM   16  H   UNL     1     -12.124   8.709  68.401  1.00  0.00     0.000 HD 
HETATM   17  C   UNL     1     -10.579  10.149  68.216  1.00  0.00    -0.226 A  
HETATM   18  C   UNL     1      -9.409  10.121  67.469  1.00  0.00    -0.168 A  
HETATM   19  C   UNL     1      -8.367  11.193  67.386  1.00  0.00    -0.135 C  
BRANCH  17  20
HETATM   20  C   UNL     1     -11.085  11.156  69.078  1.00  0.00    -0.299 C  
HETATM   21  C   UNL     1     -11.521  12.394  68.809  1.00  0.00    -0.350 C  
HETATM   22  C   UNL     1     -11.628  13.169  67.521  1.00  0.00    -0.352 C  
HETATM   23  N   UNL     1     -12.150  14.406  67.884  1.00  0.00    -0.582 N  
HETATM   24  O   UNL     1     -11.325  12.807  66.402  1.00  0.00    -0.292 OA 
HETATM   25  C   UNL     1     -12.379  14.482  69.255  1.00  0.00    -0.150 A  
HETATM   26  H   UNL     1     -12.341  15.163  67.228  1.00  0.00     0.000 HD 
HETATM   27  C   UNL     1     -12.017  13.283  69.875  1.00  0.00    -0.400 A  
HETATM   28  C   UNL     1     -12.163  13.126  71.243  1.00  0.00    -0.073 A  
HETATM   29  C   UNL     1     -12.673  14.199  71.966  1.00  0.00    -0.306 A  
HETATM   30  F   UNL     1     -12.822  14.079  73.291  1.00  0.00    -0.532 F  
HETATM   31  C   UNL     1     -13.031  15.403  71.344  1.00  0.00    -0.532 A  
HETATM   32  C   UNL     1     -12.886  15.557  69.962  1.00  0.00    -0.047 A  
ENDBRANCH  17  20
ENDBRANCH   9  12
ENDBRANCH   7   8
ENDBRANCH   6   7
ENDBRANCH   3   6
ENDBRANCH   2   3
TORSDOF 7
ENDMDL
MODEL      131
REMARK 921   NORMALIZED FREE ENERGY PREDICTED BY IDOCK:   -4.58 KCAL/MOL
REMARK 922        TOTAL FREE ENERGY PREDICTED BY IDOCK:   -7.53 KCAL/MOL
REMARK 923 INTER-LIGAND FREE ENERGY PREDICTED BY IDOCK:   -6.31 KCAL/MOL
REMARK 924 INTRA-LIGAND FREE ENERGY PREDICTED BY IDOCK:   -1.22 KCAL/MOL
REMARK 927      BINDING AFFINITY PREDICTED BY RF-SCORE:    0.00 PKD
ROOT
HETATM    1  C   UNL     1     -12.339  13.843  65.605  1.00  0.00    -0.511 C  
HETATM    2  C   UNL     1     -11.295  14.880  65.199  1.00  0.00    -0.379 C  
ENDROOT
BRANCH   2   3
HETATM    3  N   UNL     1     -10.452  15.376  66.299  1.00  0.00    -0.293 NA 
BRANCH   3   4
HETATM    4  C   UNL     1     -10.181  16.827  66.234  1.00  0.00    -0.332 C  
HETATM    5  C   UNL     1      -8.751  17.271  66.544  1.00  0.00    -0.293 C  
ENDBRANCH   3   4
BRANCH   3   6
HETATM    6  C   UNL     1     -11.013  15.009  67.622  1.00  0.00    -0.305 C  
BRANCH   6   7
HETATM    7  C   UNL     1     -10.074  14.222  68.554  1.00  0.00    -0.246 C  
BRANCH   7   8
HETATM    8  N   UNL     1     -10.111  12.800  68.301  1.00  0.00    -0.234 N  
HETATM    9  C   UNL     1      -9.123  12.184  67.575  1.00  0.00    -0.180 C  
HETATM   10  H   UNL     1     -10.885  12.245  68.666  1.00  0.00     0.000 HD 
HETATM   11  O   UNL     1      -8.160  12.802  67.127  1.00  0.00    -0.176 OA 
BRANCH   9  12
HETATM   12  C   UNL     1      -9.272  10.737  67.401  1.00  0.00    -0.156 A  
HETATM   13  C   UNL     1      -9.702  10.033  66.281  1.00  0.00    -0.214 A  
HETATM   14  C   UNL     1     -10.124  10.452  64.915  1.00  0.00    -0.382 C  
HETATM   15  N   UNL     1      -9.644   8.688  66.581  1.00  0.00    -0.200 NA 
HETATM   16  H   UNL     1      -9.930   7.941  65.948  1.00  0.00     0.000 HD 
HETATM   17  C   UNL     1      -9.150   8.490  67.841  1.00  0.00    -0.140 A  
HETATM   18  C   UNL     1      -8.907   9.746  68.385  1.00  0.00    -0.120 A  
HETATM   19  C   UNL     1      -8.359  10.049  69.744  1.00  0.00    -0.187 C  
BRANCH  17  20
HETATM   20  C   UNL     1      -8.946   7.203  68.401  1.00  0.00    -0.125 C  
HETATM   21  C   UNL     1      -9.548   6.595  69.432  1.00  0.00    -0.148 C  
HETATM   22  C   UNL     1     -10.637   7.045  70.372  1.00  0.00    -0.223 C  
HETATM   23  N   UNL     1     -10.831   5.975  71.240  1.00  0.00    -0.262 N  
HETATM   24  O   UNL     1     -11.224   8.108  70.385  1.00  0.00    -0.264 OA 
HETATM   25  C   UNL     1      -9.983   4.913  70.941  1.00  0.00    -0.217 A  
HETATM   26  H   UNL     1     -11.510   5.970  72.001  1.00  0.00     0.000 HD 
HETATM   27  C   UNL     1      -9.177   5.229  69.844  1.00  0.00    -0.178 A  
HETATM   28  C   UNL     1      -8.254   4.317  69.361  1.00  0.00    -0.069 A  
HETATM   29  C   UNL     1      -8.161   3.089  70.009  1.00  0.00    -0.044 A  
HETATM   30  F   UNL     1      -7.275   2.187  69.567  1.00  0.00    -0.041 F  
HETATM   31  C   UNL     1      -8.967   2.774  71.111  1.00  0.00    -0.162 A  
HETATM   32  C   UNL     1      -9.900   3.697  71.593  1.00  0.00    -0.230 A  
ENDBRANCH  17  20
ENDBRANCH   9  12
ENDBRANCH   7   8
ENDBRANCH   6   7
ENDBRANCH   3   6
ENDBRANCH   2   3
TORSDOF 7
ENDMDL
MODEL      132
REMARK 921   NORMALIZED FREE ENERGY PREDICTED BY IDOCK:   -4.56 KCAL/MOL
REMARK 922        TOTAL FREE ENERGY PREDICTED BY IDOCK:   -7.52 KCAL/MOL
REMARK 923 INTER-LIGAND FREE ENERGY PREDICTED BY IDOCK:   -6.51 KCAL/MOL
REMARK 924 INTRA-LIGAND FREE ENERGY PREDICTED BY IDOCK:   -1.00 KCAL/MOL
REMARK 927      BINDING AFFINITY PREDICTED BY RF-SCORE:    0.00 PKD
ROOT
HETATM    1  C   UNL     1      -7.991   7.352  73.009  1.00  0.00    -0.125 C  
HETATM    2  C   UNL     1      -8.727   6.146  72.434  1.00  0.00    -0.125 C  
ENDROOT
BRANCH   2   3
HETATM    3  N   UNL     1     -10.164   6.352  72.190  1.00  0.00    -0.185 NA 
BRANCH   3   4
HETATM    4  C   UNL     1     -10.967   5.116  72.282  1.00  0.00    -0.143 C  
HETATM    5  C   UNL     1     -10.255   3.876  72.824  1.00  0.00    -0.233 C  
ENDBRANCH   3   4
BRANCH   3   6
HETATM    6  C   UNL     1     -10.720   7.402  73.078  1.00  0.00    -0.364 C  
BRANCH   6   7
HETATM    7  C   UNL     1     -11.722   8.372  72.427  1.00  0.00    -0.382 C  
BRANCH   7   8
HETATM    8  N   UNL     1     -11.071   9.365  71.603  1.00  0.00    -0.373 N  
HETATM    9  C   UNL     1     -11.774  10.075  70.662  1.00  0.00    -0.337 C  
HETATM   10  H   UNL     1     -10.073   9.540  71.721  1.00  0.00     0.000 HD 
HETATM   11  O   UNL     1     -12.980   9.916  70.490  1.00  0.00    -0.175 OA 
BRANCH   9  12
HETATM   12  C   UNL     1     -10.999  11.061  69.902  1.00  0.00    -0.218 A  
HETATM   13  C   UNL     1     -10.002  10.844  68.956  1.00  0.00    -0.191 A  
HETATM   14  C   UNL     1      -9.400   9.612  68.376  1.00  0.00    -0.136 C  
HETATM   15  N   UNL     1      -9.591  12.075  68.490  1.00  0.00    -0.319 NA 
HETATM   16  H   UNL     1      -8.848  12.217  67.806  1.00  0.00     0.000 HD 
HETATM   17  C   UNL     1     -10.315  13.083  69.067  1.00  0.00     0.061 A  
HETATM   18  C   UNL     1     -11.203  12.488  69.955  1.00  0.00     0.088 A  
HETATM   19  C   UNL     1     -12.209  13.179  70.822  1.00  0.00    -0.375 C  
BRANCH  17  20
HETATM   20  C   UNL     1     -10.131  14.452  68.746  1.00  0.00    -0.234 C  
HETATM   21  C   UNL     1      -9.014  15.189  68.676  1.00  0.00    -0.191 C  
HETATM   22  C   UNL     1      -7.565  14.850  68.916  1.00  0.00    -0.144 C  
HETATM   23  N   UNL     1      -6.874  16.036  68.693  1.00  0.00    -0.126 N  
HETATM   24  O   UNL     1      -7.090  13.780  69.238  1.00  0.00    -0.091 OA 
HETATM   25  C   UNL     1      -7.734  17.072  68.341  1.00  0.00    -0.230 A  
HETATM   26  H   UNL     1      -5.862  16.134  68.778  1.00  0.00     0.000 HD 
HETATM   27  C   UNL     1      -9.055  16.616  68.310  1.00  0.00    -0.218 A  
HETATM   28  C   UNL     1     -10.089  17.475  67.978  1.00  0.00    -0.332 A  
HETATM   29  C   UNL     1      -9.762  18.795  67.685  1.00  0.00    -0.310 A  
HETATM   30  F   UNL     1     -10.741  19.651  67.363  1.00  0.00    -0.513 F  
HETATM   31  C   UNL     1      -8.438  19.253  67.721  1.00  0.00    -0.340 A  
HETATM   32  C   UNL     1      -7.397  18.381  68.052  1.00  0.00    -0.256 A  
ENDBRANCH  17  20
ENDBRANCH   9  12
ENDBRANCH   7   8
ENDBRANCH   6   7
ENDBRANCH   3   6
ENDBRANCH   2   3
TORSDOF 7
ENDMDL
MODEL      133
REMARK 921   NORMALIZED FREE ENERGY PREDICTED BY IDOCK:   -4.56 KCAL/MOL
REMARK 922        TOTAL FREE ENERGY PREDICTED BY IDOCK:   -7.52 KCAL/MOL
REMARK 923 INTER-LIGAND FREE ENERGY PREDICTED BY IDOCK:   -6.78 KCAL/MOL
REMARK 924 INTRA-LIGAND FREE ENERGY PREDICTED BY IDOCK:   -0.73 KCAL/MOL
REMARK 927      BINDING AFFINITY PREDICTED BY RF-SCORE:    0.00 PKD
ROOT
HETATM    1  C   UNL     1     -10.890  16.842  67.864  1.00  0.00    -0.311 C  
HETATM    2  C   UNL     1     -10.387  15.921  66.756  1.00  0.00    -0.298 C  
ENDROOT
BRANCH   2   3
HETATM    3  N   UNL     1     -11.133  14.660  66.609  1.00  0.00    -0.327 NA 
BRANCH   3   4
HETATM    4  C   UNL     1     -11.591  14.396  65.230  1.00  0.00    -0.353 C  
HETATM    5  C   UNL     1     -10.643  13.595  64.336  1.00  0.00    -0.360 C  
ENDBRANCH   3   4
BRANCH   3   6
HETATM    6  C   UNL     1     -10.359  13.508  67.132  1.00  0.00    -0.250 C  
BRANCH   6   7
HETATM    7  C   UNL     1     -10.329  13.359  68.664  1.00  0.00    -0.205 C  
BRANCH   7   8
HETATM    8  N   UNL     1     -10.100  11.995  69.080  1.00  0.00    -0.411 N  
HETATM    9  C   UNL     1     -11.110  11.067  69.053  1.00  0.00    -0.244 C  
HETATM   10  H   UNL     1      -9.172  11.716  69.400  1.00  0.00     0.000 HD 
HETATM   11  O   UNL     1     -12.241  11.345  68.660  1.00  0.00    -0.532 OA 
BRANCH   9  12
HETATM   12  C   UNL     1     -10.744   9.716  69.486  1.00  0.00    -0.252 A  
HETATM   13  C   UNL     1     -11.099   9.049  70.655  1.00  0.00    -0.265 A  
HETATM   14  C   UNL     1     -11.950   9.419  71.820  1.00  0.00    -0.452 C  
HETATM   15  N   UNL     1     -10.543   7.788  70.604  1.00  0.00    -0.218 NA 
HETATM   16  H   UNL     1     -10.620   7.092  71.346  1.00  0.00     0.000 HD 
HETATM   17  C   UNL     1      -9.875   7.595  69.426  1.00  0.00    -0.171 A  
HETATM   18  C   UNL     1      -9.978   8.777  68.703  1.00  0.00    -0.197 A  
HETATM   19  C   UNL     1      -9.410   9.056  67.346  1.00  0.00    -0.167 C  
BRANCH  17  20
HETATM   20  C   UNL     1      -9.236   6.375  69.087  1.00  0.00    -0.133 C  
HETATM   21  C   UNL     1      -9.492   5.501  68.105  1.00  0.00    -0.133 C  
HETATM   22  C   UNL     1     -10.538   5.479  67.020  1.00  0.00    -0.260 C  
HETATM   23  N   UNL     1     -10.299   4.308  66.309  1.00  0.00    -0.404 N  
HETATM   24  O   UNL     1     -11.408   6.298  66.802  1.00  0.00    -0.229 OA 
HETATM   25  C   UNL     1      -9.220   3.602  66.834  1.00  0.00    -0.184 A  
HETATM   26  H   UNL     1     -10.846   4.004  65.504  1.00  0.00     0.000 HD 
HETATM   27  C   UNL     1      -8.683   4.281  67.931  1.00  0.00    -0.119 A  
HETATM   28  C   UNL     1      -7.594   3.766  68.613  1.00  0.00    -0.054 A  
HETATM   29  C   UNL     1      -7.067   2.557  68.170  1.00  0.00    -0.048 A  
HETATM   30  F   UNL     1      -6.016   2.032  68.812  1.00  0.00    -0.021 F  
HETATM   31  C   UNL     1      -7.609   1.874  67.073  1.00  0.00    -0.061 A  
HETATM   32  C   UNL     1      -8.706   2.400  66.384  1.00  0.00    -0.125 A  
ENDBRANCH  17  20
ENDBRANCH   9  12
ENDBRANCH   7   8
ENDBRANCH   6   7
ENDBRANCH   3   6
ENDBRANCH   2   3
TORSDOF 7
ENDMDL
MODEL      134
REMARK 921   NORMALIZED FREE ENERGY PREDICTED BY IDOCK:   -4.55 KCAL/MOL
REMARK 922        TOTAL FREE ENERGY PREDICTED BY IDOCK:   -7.51 KCAL/MOL
REMARK 923 INTER-LIGAND FREE ENERGY PREDICTED BY IDOCK:   -7.43 KCAL/MOL
REMARK 924 INTRA-LIGAND FREE ENERGY PREDICTED BY IDOCK:   -0.07 KCAL/MOL
REMARK 927      BINDING AFFINITY PREDICTED BY RF-SCORE:    0.00 PKD
ROOT
HETATM    1  C   UNL     1      -5.706  20.482  66.197  1.00  0.00    -0.219 C  
HETATM    2  C   UNL     1      -5.386  20.200  67.662  1.00  0.00    -0.179 C  
ENDROOT
BRANCH   2   3
HETATM    3  N   UNL     1      -6.171  19.113  68.271  1.00  0.00    -0.221 NA 
BRANCH   3   4
HETATM    4  C   UNL     1      -6.574  19.380  69.667  1.00  0.00    -0.272 C  
HETATM    5  C   UNL     1      -5.575  18.986  70.755  1.00  0.00    -0.200 C  
ENDBRANCH   3   4
BRANCH   3   6
HETATM    6  C   UNL     1      -7.353  18.767  67.443  1.00  0.00    -0.222 C  
BRANCH   6   7
HETATM    7  C   UNL     1      -8.599  18.297  68.215  1.00  0.00    -0.285 C  
BRANCH   7   8
HETATM    8  N   UNL     1      -9.098  17.030  67.734  1.00  0.00    -0.226 N  
HETATM    9  C   UNL     1      -9.450  16.860  66.418  1.00  0.00    -0.283 C  
HETATM   10  H   UNL     1      -9.191  16.248  68.383  1.00  0.00     0.000 HD 
HETATM   11  O   UNL     1      -9.340  17.763  65.591  1.00  0.00    -0.406 OA 
BRANCH   9  12
HETATM   12  C   UNL     1      -9.928  15.523  66.056  1.00  0.00    -0.356 A  
HETATM   13  C   UNL     1     -10.959  15.171  65.191  1.00  0.00    -0.417 A  
HETATM   14  C   UNL     1     -11.890  15.963  64.341  1.00  0.00    -0.101 C  
HETATM   15  N   UNL     1     -11.015  13.793  65.144  1.00  0.00    -0.320 NA 
HETATM   16  H   UNL     1     -11.699  13.260  64.606  1.00  0.00     0.000 HD 
HETATM   17  C   UNL     1     -10.031  13.238  65.914  1.00  0.00    -0.272 A  
HETATM   18  C   UNL     1      -9.332  14.286  66.500  1.00  0.00    -0.292 A  
HETATM   19  C   UNL     1      -8.161  14.182  67.427  1.00  0.00    -0.207 C  
BRANCH  17  20
HETATM   20  C   UNL     1      -9.829  11.837  66.023  1.00  0.00    -0.258 C  
HETATM   21  C   UNL     1     -10.251  10.965  66.948  1.00  0.00    -0.272 C  
HETATM   22  C   UNL     1     -11.072  11.141  68.200  1.00  0.00    -0.264 C  
HETATM   23  N   UNL     1     -11.173   9.866  68.748  1.00  0.00    -0.457 N  
HETATM   24  O   UNL     1     -11.546  12.165  68.647  1.00  0.00    -0.273 OA 
HETATM   25  C   UNL     1     -10.506   8.921  67.974  1.00  0.00    -0.208 A  
HETATM   26  H   UNL     1     -11.673   9.651  69.611  1.00  0.00     0.000 HD 
HETATM   27  C   UNL     1      -9.925   9.531  66.859  1.00  0.00    -0.278 A  
HETATM   28  C   UNL     1      -9.210   8.782  65.939  1.00  0.00    -0.282 A  
HETATM   29  C   UNL     1      -9.092   7.415  66.172  1.00  0.00    -0.126 A  
HETATM   30  F   UNL     1      -8.404   6.664  65.302  1.00  0.00    -0.129 F  
HETATM   31  C   UNL     1      -9.672   6.806  67.293  1.00  0.00    -0.175 A  
HETATM   32  C   UNL     1     -10.396   7.565  68.217  1.00  0.00    -0.233 A  
ENDBRANCH  17  20
ENDBRANCH   9  12
ENDBRANCH   7   8
ENDBRANCH   6   7
ENDBRANCH   3   6
ENDBRANCH   2   3
TORSDOF 7
ENDMDL
MODEL      135
REMARK 921   NORMALIZED FREE ENERGY PREDICTED BY IDOCK:   -4.55 KCAL/MOL
REMARK 922        TOTAL FREE ENERGY PREDICTED BY IDOCK:   -7.50 KCAL/MOL
REMARK 923 INTER-LIGAND FREE ENERGY PREDICTED BY IDOCK:   -6.40 KCAL/MOL
REMARK 924 INTRA-LIGAND FREE ENERGY PREDICTED BY IDOCK:   -1.10 KCAL/MOL
REMARK 927      BINDING AFFINITY PREDICTED BY RF-SCORE:    0.00 PKD
ROOT
HETATM    1  C   UNL     1     -10.860  19.578  67.238  1.00  0.00    -0.557 C  
HETATM    2  C   UNL     1     -10.040  18.898  66.146  1.00  0.00    -0.393 C  
ENDROOT
BRANCH   2   3
HETATM    3  N   UNL     1      -9.763  17.469  66.376  1.00  0.00    -0.306 NA 
BRANCH   3   4
HETATM    4  C   UNL     1      -8.325  17.137  66.398  1.00  0.00    -0.280 C  
HETATM    5  C   UNL     1      -7.735  16.740  67.752  1.00  0.00    -0.180 C  
ENDBRANCH   3   4
BRANCH   3   6
HETATM    6  C   UNL     1     -10.432  16.978  67.605  1.00  0.00    -0.343 C  
BRANCH   6   7
HETATM    7  C   UNL     1     -11.421  15.815  67.413  1.00  0.00    -0.019 C  
BRANCH   7   8
HETATM    8  N   UNL     1     -10.761  14.530  67.385  1.00  0.00    -0.278 N  
HETATM    9  C   UNL     1     -10.348  13.920  68.543  1.00  0.00    -0.244 C  
HETATM   10  H   UNL     1     -10.599  14.068  66.490  1.00  0.00     0.000 HD 
HETATM   11  O   UNL     1     -10.535  14.424  69.649  1.00  0.00    -0.093 OA 
BRANCH   9  12
HETATM   12  C   UNL     1      -9.704  12.614  68.378  1.00  0.00    -0.187 A  
HETATM   13  C   UNL     1      -8.416  12.327  67.939  1.00  0.00    -0.165 A  
HETATM   14  C   UNL     1      -7.269  13.180  67.521  1.00  0.00    -0.156 C  
HETATM   15  N   UNL     1      -8.253  10.958  67.983  1.00  0.00    -0.117 NA 
HETATM   16  H   UNL     1      -7.409  10.466  67.688  1.00  0.00     0.000 HD 
HETATM   17  C   UNL     1      -9.374  10.348  68.475  1.00  0.00    -0.160 A  
HETATM   18  C   UNL     1     -10.302  11.349  68.733  1.00  0.00    -0.222 A  
HETATM   19  C   UNL     1     -11.682  11.178  69.285  1.00  0.00    -0.401 C  
BRANCH  17  20
HETATM   20  C   UNL     1      -9.473   8.946  68.665  1.00  0.00    -0.153 C  
HETATM   21  C   UNL     1      -9.492   7.945  67.775  1.00  0.00    -0.165 C  
HETATM   22  C   UNL     1      -9.426   7.932  66.270  1.00  0.00    -0.151 C  
HETATM   23  N   UNL     1      -9.496   6.589  65.915  1.00  0.00    -0.387 N  
HETATM   24  O   UNL     1      -9.335   8.880  65.516  1.00  0.00    -0.215 OA 
HETATM   25  C   UNL     1      -9.597   5.768  67.035  1.00  0.00    -0.135 A  
HETATM   26  H   UNL     1      -9.476   6.247  64.954  1.00  0.00     0.000 HD 
HETATM   27  C   UNL     1      -9.597   6.537  68.202  1.00  0.00    -0.123 A  
HETATM   28  C   UNL     1      -9.684   5.933  69.444  1.00  0.00    -0.191 A  
HETATM   29  C   UNL     1      -9.777   4.545  69.482  1.00  0.00    -0.212 A  
HETATM   30  F   UNL     1      -9.866   3.931  70.669  1.00  0.00    -0.238 F  
HETATM   31  C   UNL     1      -9.782   3.775  68.311  1.00  0.00    -0.099 A  
HETATM   32  C   UNL     1      -9.689   4.389  67.059  1.00  0.00    -0.232 A  
ENDBRANCH  17  20
ENDBRANCH   9  12
ENDBRANCH   7   8
ENDBRANCH   6   7
ENDBRANCH   3   6
ENDBRANCH   2   3
TORSDOF 7
ENDMDL
MODEL      136
REMARK 921   NORMALIZED FREE ENERGY PREDICTED BY IDOCK:   -4.55 KCAL/MOL
REMARK 922        TOTAL FREE ENERGY PREDICTED BY IDOCK:   -7.50 KCAL/MOL
REMARK 923 INTER-LIGAND FREE ENERGY PREDICTED BY IDOCK:   -6.87 KCAL/MOL
REMARK 924 INTRA-LIGAND FREE ENERGY PREDICTED BY IDOCK:   -0.62 KCAL/MOL
REMARK 927      BINDING AFFINITY PREDICTED BY RF-SCORE:    0.00 PKD
ROOT
HETATM    1  C   UNL     1      -5.937  20.204  71.348  1.00  0.00    -0.313 C  
HETATM    2  C   UNL     1      -6.097  20.341  69.836  1.00  0.00    -0.345 C  
ENDROOT
BRANCH   2   3
HETATM    3  N   UNL     1      -6.953  19.321  69.207  1.00  0.00    -0.332 NA 
BRANCH   3   4
HETATM    4  C   UNL     1      -7.757  19.833  68.079  1.00  0.00    -0.304 C  
HETATM    5  C   UNL     1      -7.075  20.842  67.154  1.00  0.00    -0.413 C  
ENDBRANCH   3   4
BRANCH   3   6
HETATM    6  C   UNL     1      -6.168  18.134  68.792  1.00  0.00    -0.208 C  
BRANCH   6   7
HETATM    7  C   UNL     1      -6.310  16.888  69.686  1.00  0.00    -0.212 C  
BRANCH   7   8
HETATM    8  N   UNL     1      -7.120  15.861  69.072  1.00  0.00    -0.149 N  
HETATM    9  C   UNL     1      -6.717  15.235  67.919  1.00  0.00    -0.151 C  
HETATM   10  H   UNL     1      -8.006  15.597  69.503  1.00  0.00     0.000 HD 
HETATM   11  O   UNL     1      -5.650  15.503  67.370  1.00  0.00    -0.319 OA 
BRANCH   9  12
HETATM   12  C   UNL     1      -7.622  14.203  67.408  1.00  0.00    -0.179 A  
HETATM   13  C   UNL     1      -8.813  14.358  66.706  1.00  0.00    -0.200 A  
HETATM   14  C   UNL     1      -9.559  15.551  66.218  1.00  0.00    -0.338 C  
HETATM   15  N   UNL     1      -9.292  13.100  66.408  1.00  0.00    -0.400 NA 
HETATM   16  H   UNL     1     -10.169  12.914  65.921  1.00  0.00     0.000 HD 
HETATM   17  C   UNL     1      -8.434  12.132  66.854  1.00  0.00    -0.173 A  
HETATM   18  C   UNL     1      -7.380  12.782  67.483  1.00  0.00    -0.153 A  
HETATM   19  C   UNL     1      -6.188  12.149  68.130  1.00  0.00    -0.055 C  
BRANCH  17  20
HETATM   20  C   UNL     1      -8.656  10.745  66.652  1.00  0.00    -0.143 C  
HETATM   21  C   UNL     1      -9.492   9.898  67.267  1.00  0.00    -0.181 C  
HETATM   22  C   UNL     1     -10.483  10.092  68.386  1.00  0.00    -0.208 C  
HETATM   23  N   UNL     1     -11.048   8.838  68.591  1.00  0.00    -0.422 N  
HETATM   24  O   UNL     1     -10.739  11.114  68.991  1.00  0.00    -0.206 OA 
HETATM   25  C   UNL     1     -10.519   7.889  67.722  1.00  0.00    -0.212 A  
HETATM   26  H   UNL     1     -11.763   8.639  69.291  1.00  0.00     0.000 HD 
HETATM   27  C   UNL     1      -9.565   8.476  66.886  1.00  0.00    -0.257 A  
HETATM   28  C   UNL     1      -8.905   7.721  65.931  1.00  0.00    -0.176 A  
HETATM   29  C   UNL     1      -9.223   6.369  65.844  1.00  0.00    -0.003 A  
HETATM   30  F   UNL     1      -8.599   5.612  64.932  1.00  0.00    -0.143 F  
HETATM   31  C   UNL     1     -10.177   5.781  66.686  1.00  0.00    -0.261 A  
HETATM   32  C   UNL     1     -10.844   6.548  67.645  1.00  0.00    -0.419 A  
ENDBRANCH  17  20
ENDBRANCH   9  12
ENDBRANCH   7   8
ENDBRANCH   6   7
ENDBRANCH   3   6
ENDBRANCH   2   3
TORSDOF 7
ENDMDL
MODEL      137
REMARK 921   NORMALIZED FREE ENERGY PREDICTED BY IDOCK:   -4.54 KCAL/MOL
REMARK 922        TOTAL FREE ENERGY PREDICTED BY IDOCK:   -7.49 KCAL/MOL
REMARK 923 INTER-LIGAND FREE ENERGY PREDICTED BY IDOCK:   -6.46 KCAL/MOL
REMARK 924 INTRA-LIGAND FREE ENERGY PREDICTED BY IDOCK:   -1.03 KCAL/MOL
REMARK 927      BINDING AFFINITY PREDICTED BY RF-SCORE:    0.00 PKD
ROOT
HETATM    1  C   UNL     1     -10.453  17.252  69.332  1.00  0.00    -0.142 C  
HETATM    2  C   UNL     1      -9.603  17.554  68.101  1.00  0.00    -0.294 C  
ENDROOT
BRANCH   2   3
HETATM    3  N   UNL     1     -10.337  17.551  66.824  1.00  0.00    -0.324 NA 
BRANCH   3   4
HETATM    4  C   UNL     1     -10.193  18.801  66.051  1.00  0.00    -0.372 C  
HETATM    5  C   UNL     1     -10.195  20.104  66.852  1.00  0.00    -0.566 C  
ENDBRANCH   3   4
BRANCH   3   6
HETATM    6  C   UNL     1      -9.972  16.378  65.992  1.00  0.00    -0.345 C  
BRANCH   6   7
HETATM    7  C   UNL     1     -10.854  15.128  66.169  1.00  0.00    -0.330 C  
BRANCH   7   8
HETATM    8  N   UNL     1     -10.300  14.195  67.123  1.00  0.00    -0.264 N  
HETATM    9  C   UNL     1      -9.695  13.035  66.709  1.00  0.00    -0.248 C  
HETATM   10  H   UNL     1     -10.359  14.402  68.120  1.00  0.00     0.000 HD 
HETATM   11  O   UNL     1      -9.580  12.747  65.520  1.00  0.00    -0.137 OA 
BRANCH   9  12
HETATM   12  C   UNL     1      -9.162  12.182  67.775  1.00  0.00    -0.189 A  
HETATM   13  C   UNL     1      -8.005  12.349  68.530  1.00  0.00    -0.110 A  
HETATM   14  C   UNL     1      -6.951  13.401  68.557  1.00  0.00    -0.102 C  
HETATM   15  N   UNL     1      -7.940  11.310  69.434  1.00  0.00    -0.366 NA 
HETATM   16  H   UNL     1      -7.177  11.167  70.097  1.00  0.00     0.000 HD 
HETATM   17  C   UNL     1      -9.034  10.497  69.324  1.00  0.00    -0.134 A  
HETATM   18  C   UNL     1      -9.819  11.008  68.299  1.00  0.00    -0.185 A  
HETATM   19  C   UNL     1     -11.123  10.465  67.805  1.00  0.00    -0.365 C  
BRANCH  17  20
HETATM   20  C   UNL     1      -9.248   9.368  70.156  1.00  0.00    -0.268 C  
HETATM   21  C   UNL     1      -8.901   8.085  69.992  1.00  0.00    -0.143 C  
HETATM   22  C   UNL     1      -8.176   7.371  68.880  1.00  0.00    -0.129 C  
HETATM   23  N   UNL     1      -8.121   6.040  69.279  1.00  0.00    -0.106 N  
HETATM   24  O   UNL     1      -7.733   7.841  67.851  1.00  0.00    -0.116 OA 
HETATM   25  C   UNL     1      -8.731   5.851  70.516  1.00  0.00    -0.140 A  
HETATM   26  H   UNL     1      -7.688   5.295  68.734  1.00  0.00     0.000 HD 
HETATM   27  C   UNL     1      -9.224   7.064  71.004  1.00  0.00    -0.155 A  
HETATM   28  C   UNL     1      -9.870   7.121  72.228  1.00  0.00    -0.174 A  
HETATM   29  C   UNL     1     -10.010   5.933  72.939  1.00  0.00    -0.173 A  
HETATM   30  F   UNL     1     -10.633   5.955  74.125  1.00  0.00    -0.255 F  
HETATM   31  C   UNL     1      -9.519   4.716  72.447  1.00  0.00    -0.172 A  
HETATM   32  C   UNL     1      -8.864   4.665  71.213  1.00  0.00    -0.152 A  
ENDBRANCH  17  20
ENDBRANCH   9  12
ENDBRANCH   7   8
ENDBRANCH   6   7
ENDBRANCH   3   6
ENDBRANCH   2   3
TORSDOF 7
ENDMDL
MODEL      138
REMARK 921   NORMALIZED FREE ENERGY PREDICTED BY IDOCK:   -4.53 KCAL/MOL
REMARK 922        TOTAL FREE ENERGY PREDICTED BY IDOCK:   -7.48 KCAL/MOL
REMARK 923 INTER-LIGAND FREE ENERGY PREDICTED BY IDOCK:   -6.99 KCAL/MOL
REMARK 924 INTRA-LIGAND FREE ENERGY PREDICTED BY IDOCK:   -0.48 KCAL/MOL
REMARK 927      BINDING AFFINITY PREDICTED BY RF-SCORE:    0.00 PKD
ROOT
HETATM    1  C   UNL     1     -11.204  13.314  65.150  1.00  0.00    -0.322 C  
HETATM    2  C   UNL     1     -10.143  12.991  66.198  1.00  0.00    -0.285 C  
ENDROOT
BRANCH   2   3
HETATM    3  N   UNL     1     -10.121  13.897  67.359  1.00  0.00    -0.242 NA 
BRANCH   3   4
HETATM    4  C   UNL     1     -10.960  15.101  67.191  1.00  0.00    -0.326 C  
HETATM    5  C   UNL     1     -10.271  16.339  66.615  1.00  0.00    -0.287 C  
ENDBRANCH   3   4
BRANCH   3   6
HETATM    6  C   UNL     1     -10.477  13.183  68.610  1.00  0.00    -0.227 C  
BRANCH   6   7
HETATM    7  C   UNL     1     -11.849  12.484  68.617  1.00  0.00    -0.297 C  
BRANCH   7   8
HETATM    8  N   UNL     1     -11.772  11.126  69.106  1.00  0.00    -0.311 N  
HETATM    9  C   UNL     1     -12.110  10.819  70.400  1.00  0.00    -0.354 C  
HETATM   10  H   UNL     1     -11.460  10.384  68.479  1.00  0.00     0.000 HD 
HETATM   11  O   UNL     1     -12.509  11.672  71.191  1.00  0.00    -0.364 OA 
BRANCH   9  12
HETATM   12  C   UNL     1     -12.001   9.404  70.766  1.00  0.00    -0.298 A  
HETATM   13  C   UNL     1     -12.921   8.604  71.436  1.00  0.00    -0.254 A  
HETATM   14  C   UNL     1     -14.285   8.855  71.978  1.00  0.00    -0.444 C  
HETATM   15  N   UNL     1     -12.390   7.334  71.520  1.00  0.00    -0.343 NA 
HETATM   16  H   UNL     1     -12.841   6.548  71.987  1.00  0.00     0.000 HD 
HETATM   17  C   UNL     1     -11.177   7.269  70.891  1.00  0.00    -0.272 A  
HETATM   18  C   UNL     1     -10.900   8.542  70.409  1.00  0.00    -0.251 A  
HETATM   19  C   UNL     1      -9.687   8.974  69.645  1.00  0.00    -0.177 C  
BRANCH  17  20
HETATM   20  C   UNL     1     -10.418   6.074  70.789  1.00  0.00    -0.298 C  
HETATM   21  C   UNL     1     -10.077   5.347  69.717  1.00  0.00    -0.319 C  
HETATM   22  C   UNL     1     -10.372   5.514  68.249  1.00  0.00    -0.173 C  
HETATM   23  N   UNL     1      -9.752   4.434  67.630  1.00  0.00    -0.165 N  
HETATM   24  O   UNL     1     -11.013   6.393  67.709  1.00  0.00    -0.302 OA 
HETATM   25  C   UNL     1      -9.105   3.617  68.552  1.00  0.00    -0.147 A  
HETATM   26  H   UNL     1      -9.769   4.262  66.624  1.00  0.00     0.000 HD 
HETATM   27  C   UNL     1      -9.265   4.124  69.845  1.00  0.00    -0.211 A  
HETATM   28  C   UNL     1      -8.699   3.476  70.930  1.00  0.00    -0.123 A  
HETATM   29  C   UNL     1      -7.980   2.311  70.683  1.00  0.00    -0.042 A  
HETATM   30  F   UNL     1      -7.424   1.659  71.713  1.00  0.00    -0.035 F  
HETATM   31  C   UNL     1      -7.824   1.801  69.387  1.00  0.00    -0.048 A  
HETATM   32  C   UNL     1      -8.393   2.461  68.294  1.00  0.00    -0.078 A  
ENDBRANCH  17  20
ENDBRANCH   9  12
ENDBRANCH   7   8
ENDBRANCH   6   7
ENDBRANCH   3   6
ENDBRANCH   2   3
TORSDOF 7
ENDMDL
MODEL      139
REMARK 921   NORMALIZED FREE ENERGY PREDICTED BY IDOCK:   -4.53 KCAL/MOL
REMARK 922        TOTAL FREE ENERGY PREDICTED BY IDOCK:   -7.47 KCAL/MOL
REMARK 923 INTER-LIGAND FREE ENERGY PREDICTED BY IDOCK:   -6.59 KCAL/MOL
REMARK 924 INTRA-LIGAND FREE ENERGY PREDICTED BY IDOCK:   -0.88 KCAL/MOL
REMARK 927      BINDING AFFINITY PREDICTED BY RF-SCORE:    0.00 PKD
ROOT
HETATM    1  C   UNL     1      -8.314   5.244  67.234  1.00  0.00    -0.107 C  
HETATM    2  C   UNL     1      -9.514   5.888  66.546  1.00  0.00    -0.155 C  
ENDROOT
BRANCH   2   3
HETATM    3  N   UNL     1     -10.651   6.187  67.432  1.00  0.00    -0.243 NA 
BRANCH   3   4
HETATM    4  C   UNL     1     -10.462   5.724  68.821  1.00  0.00    -0.242 C  
HETATM    5  C   UNL     1     -11.465   6.236  69.856  1.00  0.00    -0.459 C  
ENDBRANCH   3   4
BRANCH   3   6
HETATM    6  C   UNL     1     -10.994   7.630  67.405  1.00  0.00    -0.042 C  
BRANCH   6   7
HETATM    7  C   UNL     1      -9.936   8.561  66.785  1.00  0.00    -0.281 C  
BRANCH   7   8
HETATM    8  N   UNL     1      -9.871   9.841  67.451  1.00  0.00    -0.166 N  
HETATM    9  C   UNL     1     -10.799  10.820  67.196  1.00  0.00    -0.277 C  
HETATM   10  H   UNL     1      -9.124  10.021  68.121  1.00  0.00     0.000 HD 
HETATM   11  O   UNL     1     -11.730  10.649  66.412  1.00  0.00     0.324 OA 
BRANCH   9  12
HETATM   12  C   UNL     1     -10.629  12.067  67.947  1.00  0.00    -0.227 A  
HETATM   13  C   UNL     1     -11.137  12.408  69.196  1.00  0.00    -0.203 A  
HETATM   14  C   UNL     1     -11.970  11.677  70.191  1.00  0.00    -0.441 C  
HETATM   15  N   UNL     1     -10.681  13.673  69.504  1.00  0.00    -0.443 NA 
HETATM   16  H   UNL     1     -10.922  14.184  70.353  1.00  0.00     0.000 HD 
HETATM   17  C   UNL     1      -9.860  14.149  68.519  1.00  0.00    -0.230 A  
HETATM   18  C   UNL     1      -9.804  13.175  67.530  1.00  0.00    -0.216 A  
HETATM   19  C   UNL     1      -9.030  13.233  66.250  1.00  0.00     0.106 C  
BRANCH  17  20
HETATM   20  C   UNL     1      -9.217  15.412  68.588  1.00  0.00    -0.199 C  
HETATM   21  C   UNL     1      -9.364  16.507  67.830  1.00  0.00    -0.216 C  
HETATM   22  C   UNL     1     -10.240  16.800  66.639  1.00  0.00    -0.309 C  
HETATM   23  N   UNL     1      -9.939  18.110  66.282  1.00  0.00    -0.352 N  
HETATM   24  O   UNL     1     -11.036  16.062  66.095  1.00  0.00    -0.225 OA 
HETATM   25  C   UNL     1      -8.975  18.661  67.121  1.00  0.00    -0.281 A  
HETATM   26  H   UNL     1     -10.372  18.606  65.502  1.00  0.00     0.000 HD 
HETATM   27  C   UNL     1      -8.586  17.732  68.089  1.00  0.00    -0.262 A  
HETATM   28  C   UNL     1      -7.636  18.062  69.041  1.00  0.00    -0.146 A  
HETATM   29  C   UNL     1      -7.088  19.340  68.990  1.00  0.00    -0.356 A  
HETATM   30  F   UNL     1      -6.164  19.688  69.894  1.00  0.00    -0.298 F  
HETATM   31  C   UNL     1      -7.476  20.270  68.015  1.00  0.00    -0.265 A  
HETATM   32  C   UNL     1      -8.439  19.934  67.059  1.00  0.00    -0.380 A  
ENDBRANCH  17  20
ENDBRANCH   9  12
ENDBRANCH   7   8
ENDBRANCH   6   7
ENDBRANCH   3   6
ENDBRANCH   2   3
TORSDOF 7
ENDMDL
MODEL      140
REMARK 921   NORMALIZED FREE ENERGY PREDICTED BY IDOCK:   -4.49 KCAL/MOL
REMARK 922        TOTAL FREE ENERGY PREDICTED BY IDOCK:   -7.41 KCAL/MOL
REMARK 923 INTER-LIGAND FREE ENERGY PREDICTED BY IDOCK:   -6.59 KCAL/MOL
REMARK 924 INTRA-LIGAND FREE ENERGY PREDICTED BY IDOCK:   -0.82 KCAL/MOL
REMARK 927      BINDING AFFINITY PREDICTED BY RF-SCORE:    0.00 PKD
ROOT
HETATM    1  C   UNL     1     -11.383   6.940  72.862  1.00  0.00    -0.199 C  
HETATM    2  C   UNL     1     -11.232   5.688  72.003  1.00  0.00    -0.207 C  
ENDROOT
BRANCH   2   3
HETATM    3  N   UNL     1      -9.923   5.540  71.346  1.00  0.00    -0.179 NA 
BRANCH   3   4
HETATM    4  C   UNL     1      -8.907   4.875  72.187  1.00  0.00    -0.128 C  
HETATM    5  C   UNL     1      -7.540   4.632  71.545  1.00  0.00    -0.082 C  
ENDBRANCH   3   4
BRANCH   3   6
HETATM    6  C   UNL     1     -10.047   4.854  70.037  1.00  0.00    -0.266 C  
BRANCH   6   7
HETATM    7  C   UNL     1      -9.462   5.605  68.827  1.00  0.00    -0.126 C  
BRANCH   7   8
HETATM    8  N   UNL     1      -9.482   7.038  69.007  1.00  0.00    -0.139 N  
HETATM    9  C   UNL     1     -10.298   7.837  68.244  1.00  0.00    -0.198 C  
HETATM   10  H   UNL     1      -8.880   7.465  69.711  1.00  0.00     0.000 HD 
HETATM   11  O   UNL     1     -11.055   7.373  67.394  1.00  0.00    -0.185 OA 
BRANCH   9  12
HETATM   12  C   UNL     1     -10.234   9.271  68.535  1.00  0.00    -0.225 A  
HETATM   13  C   UNL     1     -10.750   9.964  69.626  1.00  0.00    -0.252 A  
HETATM   14  C   UNL     1     -11.493   9.536  70.843  1.00  0.00    -0.405 C  
HETATM   15  N   UNL     1     -10.411  11.292  69.479  1.00  0.00    -0.445 NA 
HETATM   16  H   UNL     1     -10.686  12.034  70.123  1.00  0.00     0.000 HD 
HETATM   17  C   UNL     1      -9.655  11.482  68.354  1.00  0.00    -0.195 A  
HETATM   18  C   UNL     1      -9.524  10.244  67.739  1.00  0.00    -0.163 A  
HETATM   19  C   UNL     1      -8.781   9.939  66.476  1.00  0.00    -0.139 C  
BRANCH  17  20
HETATM   20  C   UNL     1      -9.135  12.746  67.974  1.00  0.00    -0.207 C  
HETATM   21  C   UNL     1      -9.748  13.827  67.474  1.00  0.00    -0.230 C  
HETATM   22  C   UNL     1     -11.189  14.098  67.124  1.00  0.00    -0.317 C  
HETATM   23  N   UNL     1     -11.204  15.401  66.638  1.00  0.00    -0.238 N  
HETATM   24  O   UNL     1     -12.139  13.350  67.233  1.00  0.00    -0.361 OA 
HETATM   25  C   UNL     1      -9.933  15.967  66.650  1.00  0.00    -0.267 A  
HETATM   26  H   UNL     1     -12.043  15.882  66.315  1.00  0.00     0.000 HD 
HETATM   27  C   UNL     1      -9.000  15.056  67.152  1.00  0.00    -0.235 A  
HETATM   28  C   UNL     1      -7.664  15.403  67.261  1.00  0.00    -0.245 A  
HETATM   29  C   UNL     1      -7.293  16.679  66.850  1.00  0.00    -0.225 A  
HETATM   30  F   UNL     1      -6.007  17.043  66.940  1.00  0.00    -0.156 F  
HETATM   31  C   UNL     1      -8.228  17.591  66.342  1.00  0.00    -0.305 A  
HETATM   32  C   UNL     1      -9.577  17.238  66.238  1.00  0.00    -0.268 A  
ENDBRANCH  17  20
ENDBRANCH   9  12
ENDBRANCH   7   8
ENDBRANCH   6   7
ENDBRANCH   3   6
ENDBRANCH   2   3
TORSDOF 7
ENDMDL
MODEL      141
REMARK 921   NORMALIZED FREE ENERGY PREDICTED BY IDOCK:   -4.48 KCAL/MOL
REMARK 922        TOTAL FREE ENERGY PREDICTED BY IDOCK:   -7.39 KCAL/MOL
REMARK 923 INTER-LIGAND FREE ENERGY PREDICTED BY IDOCK:   -6.87 KCAL/MOL
REMARK 924 INTRA-LIGAND FREE ENERGY PREDICTED BY IDOCK:   -0.52 KCAL/MOL
REMARK 927      BINDING AFFINITY PREDICTED BY RF-SCORE:    0.00 PKD
ROOT
HETATM    1  C   UNL     1      -7.171   5.948  72.352  1.00  0.00    -0.089 C  
HETATM    2  C   UNL     1      -8.363   6.377  73.203  1.00  0.00    -0.115 C  
ENDROOT
BRANCH   2   3
HETATM    3  N   UNL     1      -9.669   5.880  72.739  1.00  0.00    -0.156 NA 
BRANCH   3   4
HETATM    4  C   UNL     1     -10.405   5.101  73.754  1.00  0.00    -0.238 C  
HETATM    5  C   UNL     1      -9.653   3.936  74.401  1.00  0.00    -0.136 C  
ENDBRANCH   3   4
BRANCH   3   6
HETATM    6  C   UNL     1     -10.512   6.980  72.212  1.00  0.00    -0.208 C  
BRANCH   6   7
HETATM    7  C   UNL     1     -11.501   6.595  71.097  1.00  0.00    -0.320 C  
BRANCH   7   8
HETATM    8  N   UNL     1     -11.354   7.423  69.922  1.00  0.00    -0.464 N  
HETATM    9  C   UNL     1     -10.218   7.369  69.154  1.00  0.00    -0.196 C  
HETATM   10  H   UNL     1     -12.108   8.059  69.658  1.00  0.00     0.000 HD 
HETATM   11  O   UNL     1      -9.288   6.609  69.416  1.00  0.00    -0.147 OA 
BRANCH   9  12
HETATM   12  C   UNL     1     -10.201   8.249  67.983  1.00  0.00    -0.265 A  
HETATM   13  C   UNL     1      -9.929   7.930  66.657  1.00  0.00    -0.246 A  
HETATM   14  C   UNL     1      -9.598   6.653  65.964  1.00  0.00     0.072 C  
HETATM   15  N   UNL     1     -10.067   9.081  65.910  1.00  0.00    -0.394 NA 
HETATM   16  H   UNL     1      -9.899   9.144  64.906  1.00  0.00     0.000 HD 
HETATM   17  C   UNL     1     -10.461  10.129  66.697  1.00  0.00    -0.185 A  
HETATM   18  C   UNL     1     -10.554   9.649  67.997  1.00  0.00    -0.292 A  
HETATM   19  C   UNL     1     -10.953  10.419  69.217  1.00  0.00    -0.287 C  
BRANCH  17  20
HETATM   20  C   UNL     1     -10.715  11.428  66.188  1.00  0.00    -0.320 C  
HETATM   21  C   UNL     1     -10.062  12.582  66.376  1.00  0.00    -0.255 C  
HETATM   22  C   UNL     1      -8.842  12.929  67.191  1.00  0.00    -0.210 C  
HETATM   23  N   UNL     1      -8.650  14.293  66.993  1.00  0.00    -0.301 N  
HETATM   24  O   UNL     1      -8.165  12.191  67.878  1.00  0.00    -0.136 OA 
HETATM   25  C   UNL     1      -9.616  14.828  66.146  1.00  0.00    -0.309 A  
HETATM   26  H   UNL     1      -7.896  14.833  67.417  1.00  0.00     0.000 HD 
HETATM   27  C   UNL     1     -10.505  13.832  65.733  1.00  0.00    -0.303 A  
HETATM   28  C   UNL     1     -11.551  14.132  64.877  1.00  0.00    -0.379 A  
HETATM   29  C   UNL     1     -11.682  15.452  64.455  1.00  0.00    -0.277 A  
HETATM   30  F   UNL     1     -12.686  15.774  63.630  1.00  0.00    -0.123 F  
HETATM   31  C   UNL     1     -10.792  16.451  64.873  1.00  0.00    -0.268 A  
HETATM   32  C   UNL     1      -9.734  16.142  65.734  1.00  0.00    -0.325 A  
ENDBRANCH  17  20
ENDBRANCH   9  12
ENDBRANCH   7   8
ENDBRANCH   6   7
ENDBRANCH   3   6
ENDBRANCH   2   3
TORSDOF 7
ENDMDL
MODEL      142
REMARK 921   NORMALIZED FREE ENERGY PREDICTED BY IDOCK:   -4.47 KCAL/MOL
REMARK 922        TOTAL FREE ENERGY PREDICTED BY IDOCK:   -7.39 KCAL/MOL
REMARK 923 INTER-LIGAND FREE ENERGY PREDICTED BY IDOCK:   -6.18 KCAL/MOL
REMARK 924 INTRA-LIGAND FREE ENERGY PREDICTED BY IDOCK:   -1.21 KCAL/MOL
REMARK 927      BINDING AFFINITY PREDICTED BY RF-SCORE:    0.00 PKD
ROOT
HETATM    1  C   UNL     1      -8.752   4.135  70.539  1.00  0.00    -0.121 C  
HETATM    2  C   UNL     1      -9.813   4.692  69.595  1.00  0.00    -0.223 C  
ENDROOT
BRANCH   2   3
HETATM    3  N   UNL     1     -10.939   5.373  70.257  1.00  0.00    -0.152 NA 
BRANCH   3   4
HETATM    4  C   UNL     1     -10.601   5.931  71.582  1.00  0.00    -0.241 C  
HETATM    5  C   UNL     1     -10.166   7.397  71.617  1.00  0.00    -0.205 C  
ENDBRANCH   3   4
BRANCH   3   6
HETATM    6  C   UNL     1     -11.529   6.418  69.386  1.00  0.00    -0.305 C  
BRANCH   6   7
HETATM    7  C   UNL     1     -11.088   6.391  67.911  1.00  0.00    -0.270 C  
BRANCH   7   8
HETATM    8  N   UNL     1     -10.792   7.711  67.401  1.00  0.00    -0.528 N  
HETATM    9  C   UNL     1      -9.526   8.234  67.483  1.00  0.00    -0.149 C  
HETATM   10  H   UNL     1     -11.536   8.262  66.974  1.00  0.00     0.000 HD 
HETATM   11  O   UNL     1      -8.590   7.605  67.972  1.00  0.00    -0.123 OA 
BRANCH   9  12
HETATM   12  C   UNL     1      -9.356   9.575  66.917  1.00  0.00    -0.185 A  
HETATM   13  C   UNL     1      -9.127   9.940  65.594  1.00  0.00    -0.178 A  
HETATM   14  C   UNL     1      -9.002   9.163  64.331  1.00  0.00    -0.104 C  
HETATM   15  N   UNL     1      -9.071  11.317  65.543  1.00  0.00    -0.289 NA 
HETATM   16  H   UNL     1      -8.885  11.858  64.697  1.00  0.00     0.000 HD 
HETATM   17  C   UNL     1      -9.297  11.862  66.777  1.00  0.00    -0.201 A  
HETATM   18  C   UNL     1      -9.478  10.806  67.661  1.00  0.00    -0.166 A  
HETATM   19  C   UNL     1      -9.758  10.896  69.129  1.00  0.00    -0.141 C  
BRANCH  17  20
HETATM   20  C   UNL     1      -9.333  13.261  67.013  1.00  0.00    -0.242 C  
HETATM   21  C   UNL     1      -8.367  14.105  67.399  1.00  0.00    -0.210 C  
HETATM   22  C   UNL     1      -6.913  13.890  67.732  1.00  0.00    -0.172 C  
HETATM   23  N   UNL     1      -6.430  15.149  68.074  1.00  0.00    -0.130 N  
HETATM   24  O   UNL     1      -6.286  12.851  67.714  1.00  0.00    -0.111 OA 
HETATM   25  C   UNL     1      -7.424  16.120  67.988  1.00  0.00    -0.132 A  
HETATM   26  H   UNL     1      -5.467  15.338  68.352  1.00  0.00     0.000 HD 
HETATM   27  C   UNL     1      -8.630  15.545  67.578  1.00  0.00    -0.184 A  
HETATM   28  C   UNL     1      -9.763  16.323  67.418  1.00  0.00    -0.234 A  
HETATM   29  C   UNL     1      -9.654  17.684  67.685  1.00  0.00    -0.268 A  
HETATM   30  F   UNL     1     -10.734  18.463  67.543  1.00  0.00    -0.402 F  
HETATM   31  C   UNL     1      -8.446  18.260  68.100  1.00  0.00    -0.290 A  
HETATM   32  C   UNL     1      -7.302  17.470  68.256  1.00  0.00    -0.223 A  
ENDBRANCH  17  20
ENDBRANCH   9  12
ENDBRANCH   7   8
ENDBRANCH   6   7
ENDBRANCH   3   6
ENDBRANCH   2   3
TORSDOF 7
ENDMDL
MODEL      143
REMARK 921   NORMALIZED FREE ENERGY PREDICTED BY IDOCK:   -4.46 KCAL/MOL
REMARK 922        TOTAL FREE ENERGY PREDICTED BY IDOCK:   -7.38 KCAL/MOL
REMARK 923 INTER-LIGAND FREE ENERGY PREDICTED BY IDOCK:   -6.37 KCAL/MOL
REMARK 924 INTRA-LIGAND FREE ENERGY PREDICTED BY IDOCK:   -1.01 KCAL/MOL
REMARK 927      BINDING AFFINITY PREDICTED BY RF-SCORE:    0.00 PKD
ROOT
HETATM    1  C   UNL     1     -12.658  15.270  73.838  1.00  0.00    -0.731 C  
HETATM    2  C   UNL     1     -11.908  15.001  72.537  1.00  0.00    -0.320 C  
ENDROOT
BRANCH   2   3
HETATM    3  N   UNL     1     -12.595  14.096  71.600  1.00  0.00    -0.341 NA 
BRANCH   3   4
HETATM    4  C   UNL     1     -13.533  13.161  72.255  1.00  0.00    -0.568 C  
HETATM    5  C   UNL     1     -13.302  11.671  72.001  1.00  0.00    -0.405 C  
ENDBRANCH   3   4
BRANCH   3   6
HETATM    6  C   UNL     1     -13.277  14.848  70.519  1.00  0.00    -0.190 C  
BRANCH   6   7
HETATM    7  C   UNL     1     -12.371  15.726  69.637  1.00  0.00    -0.091 C  
BRANCH   7   8
HETATM    8  N   UNL     1     -11.439  14.944  68.857  1.00  0.00    -0.283 N  
HETATM    9  C   UNL     1     -10.097  14.946  69.146  1.00  0.00    -0.226 C  
HETATM   10  H   UNL     1     -11.784  14.382  68.078  1.00  0.00     0.000 HD 
HETATM   11  O   UNL     1      -9.632  15.590  70.083  1.00  0.00    -0.140 OA 
BRANCH   9  12
HETATM   12  C   UNL     1      -9.262  14.100  68.288  1.00  0.00    -0.198 A  
HETATM   13  C   UNL     1      -8.202  14.470  67.466  1.00  0.00    -0.187 A  
HETATM   14  C   UNL     1      -7.540  15.774  67.183  1.00  0.00    -0.259 C  
HETATM   15  N   UNL     1      -7.704  13.324  66.882  1.00  0.00    -0.356 NA 
HETATM   16  H   UNL     1      -6.938  13.304  66.208  1.00  0.00     0.000 HD 
HETATM   17  C   UNL     1      -8.375  12.218  67.327  1.00  0.00    -0.182 A  
HETATM   18  C   UNL     1      -9.355  12.662  68.205  1.00  0.00    -0.195 A  
HETATM   19  C   UNL     1     -10.343  11.823  68.953  1.00  0.00    -0.151 C  
BRANCH  17  20
HETATM   20  C   UNL     1      -8.050  10.898  66.920  1.00  0.00    -0.137 C  
HETATM   21  C   UNL     1      -8.349  10.234  65.795  1.00  0.00    -0.152 C  
HETATM   22  C   UNL     1      -9.134  10.627  64.570  1.00  0.00    -0.217 C  
HETATM   23  N   UNL     1      -9.102   9.507  63.746  1.00  0.00    -0.403 N  
HETATM   24  O   UNL     1      -9.685  11.684  64.341  1.00  0.00    -0.234 OA 
HETATM   25  C   UNL     1      -8.382   8.466  64.324  1.00  0.00    -0.083 A  
HETATM   26  H   UNL     1      -9.550   9.456  62.830  1.00  0.00     0.000 HD 
HETATM   27  C   UNL     1      -7.894   8.849  65.576  1.00  0.00    -0.100 A  
HETATM   28  C   UNL     1      -7.141   7.972  66.337  1.00  0.00    -0.074 A  
HETATM   29  C   UNL     1      -6.899   6.706  65.813  1.00  0.00    -0.049 A  
HETATM   30  F   UNL     1      -6.176   5.834  66.528  1.00  0.00    -0.029 F  
HETATM   31  C   UNL     1      -7.393   6.321  64.560  1.00  0.00    -0.070 A  
HETATM   32  C   UNL     1      -8.149   7.211  63.792  1.00  0.00    -0.000 A  
ENDBRANCH  17  20
ENDBRANCH   9  12
ENDBRANCH   7   8
ENDBRANCH   6   7
ENDBRANCH   3   6
ENDBRANCH   2   3
TORSDOF 7
ENDMDL
MODEL      144
REMARK 921   NORMALIZED FREE ENERGY PREDICTED BY IDOCK:   -4.46 KCAL/MOL
REMARK 922        TOTAL FREE ENERGY PREDICTED BY IDOCK:   -7.37 KCAL/MOL
REMARK 923 INTER-LIGAND FREE ENERGY PREDICTED BY IDOCK:   -6.35 KCAL/MOL
REMARK 924 INTRA-LIGAND FREE ENERGY PREDICTED BY IDOCK:   -1.02 KCAL/MOL
REMARK 927      BINDING AFFINITY PREDICTED BY RF-SCORE:    0.00 PKD
ROOT
HETATM    1  C   UNL     1      -8.724   3.985  64.035  1.00  0.00    -0.113 C  
HETATM    2  C   UNL     1      -9.612   4.141  65.265  1.00  0.00    -0.186 C  
ENDROOT
BRANCH   2   3
HETATM    3  N   UNL     1      -8.897   4.135  66.553  1.00  0.00    -0.115 NA 
BRANCH   3   4
HETATM    4  C   UNL     1      -9.292   3.029  67.448  1.00  0.00    -0.175 C  
HETATM    5  C   UNL     1      -9.409   3.362  68.937  1.00  0.00    -0.237 C  
ENDBRANCH   3   4
BRANCH   3   6
HETATM    6  C   UNL     1      -7.427   4.148  66.357  1.00  0.00    -0.084 C  
BRANCH   6   7
HETATM    7  C   UNL     1      -6.754   5.532  66.417  1.00  0.00    -0.057 C  
BRANCH   7   8
HETATM    8  N   UNL     1      -7.670   6.572  66.824  1.00  0.00    -0.098 N  
HETATM    9  C   UNL     1      -8.177   7.466  65.915  1.00  0.00    -0.134 C  
HETATM   10  H   UNL     1      -7.944   6.644  67.805  1.00  0.00     0.000 HD 
HETATM   11  O   UNL     1      -7.894   7.412  64.720  1.00  0.00    -0.114 OA 
BRANCH   9  12
HETATM   12  C   UNL     1      -9.106   8.463  66.454  1.00  0.00    -0.231 A  
HETATM   13  C   UNL     1     -10.295   8.261  67.147  1.00  0.00    -0.317 A  
HETATM   14  C   UNL     1     -11.016   7.038  67.597  1.00  0.00    -0.259 C  
HETATM   15  N   UNL     1     -10.802   9.499  67.481  1.00  0.00    -0.415 NA 
HETATM   16  H   UNL     1     -11.683   9.651  67.971  1.00  0.00     0.000 HD 
HETATM   17  C   UNL     1      -9.963  10.498  67.067  1.00  0.00    -0.201 A  
HETATM   18  C   UNL     1      -8.894   9.890  66.421  1.00  0.00    -0.159 A  
HETATM   19  C   UNL     1      -7.714  10.567  65.797  1.00  0.00    -0.145 C  
BRANCH  17  20
HETATM   20  C   UNL     1     -10.216  11.873  67.309  1.00  0.00    -0.220 C  
HETATM   21  C   UNL     1     -10.735  12.489  68.380  1.00  0.00    -0.259 C  
HETATM   22  C   UNL     1     -11.244  11.963  69.697  1.00  0.00    -0.112 C  
HETATM   23  N   UNL     1     -11.664  13.089  70.398  1.00  0.00    -0.540 N  
HETATM   24  O   UNL     1     -11.287  10.811  70.078  1.00  0.00    -0.282 OA 
HETATM   25  C   UNL     1     -11.471  14.253  69.660  1.00  0.00    -0.282 A  
HETATM   26  H   UNL     1     -12.064  13.064  71.336  1.00  0.00     0.000 HD 
HETATM   27  C   UNL     1     -10.904  13.952  68.419  1.00  0.00    -0.269 A  
HETATM   28  C   UNL     1     -10.616  14.959  67.513  1.00  0.00    -0.266 A  
HETATM   29  C   UNL     1     -10.918  16.266  67.883  1.00  0.00    -0.310 A  
HETATM   30  F   UNL     1     -10.654  17.262  67.027  1.00  0.00    -0.323 F  
HETATM   31  C   UNL     1     -11.491  16.567  69.126  1.00  0.00    -0.084 A  
HETATM   32  C   UNL     1     -11.776  15.547  70.040  1.00  0.00    -0.363 A  
ENDBRANCH  17  20
ENDBRANCH   9  12
ENDBRANCH   7   8
ENDBRANCH   6   7
ENDBRANCH   3   6
ENDBRANCH   2   3
TORSDOF 7
ENDMDL
MODEL      145
REMARK 921   NORMALIZED FREE ENERGY PREDICTED BY IDOCK:   -4.46 KCAL/MOL
REMARK 922        TOTAL FREE ENERGY PREDICTED BY IDOCK:   -7.37 KCAL/MOL
REMARK 923 INTER-LIGAND FREE ENERGY PREDICTED BY IDOCK:   -6.21 KCAL/MOL
REMARK 924 INTRA-LIGAND FREE ENERGY PREDICTED BY IDOCK:   -1.16 KCAL/MOL
REMARK 927      BINDING AFFINITY PREDICTED BY RF-SCORE:    0.00 PKD
ROOT
HETATM    1  C   UNL     1      -7.233   6.420  72.078  1.00  0.00    -0.090 C  
HETATM    2  C   UNL     1      -8.628   6.327  72.690  1.00  0.00    -0.123 C  
ENDROOT
BRANCH   2   3
HETATM    3  N   UNL     1      -9.428   5.175  72.241  1.00  0.00    -0.138 NA 
BRANCH   3   4
HETATM    4  C   UNL     1      -9.772   4.232  73.324  1.00  0.00    -0.126 C  
HETATM    5  C   UNL     1     -11.227   3.763  73.387  1.00  0.00    -0.280 C  
ENDBRANCH   3   4
BRANCH   3   6
HETATM    6  C   UNL     1     -10.649   5.609  71.520  1.00  0.00    -0.244 C  
BRANCH   6   7
HETATM    7  C   UNL     1     -10.635   5.408  69.994  1.00  0.00    -0.284 C  
BRANCH   7   8
HETATM    8  N   UNL     1     -10.419   6.644  69.278  1.00  0.00    -0.199 N  
HETATM    9  C   UNL     1      -9.186   6.958  68.762  1.00  0.00    -0.131 C  
HETATM   10  H   UNL     1     -11.195   7.295  69.153  1.00  0.00     0.000 HD 
HETATM   11  O   UNL     1      -8.222   6.202  68.868  1.00  0.00    -0.110 OA 
BRANCH   9  12
HETATM   12  C   UNL     1      -9.104   8.234  68.046  1.00  0.00    -0.139 A  
HETATM   13  C   UNL     1      -8.965   8.460  66.681  1.00  0.00    -0.151 A  
HETATM   14  C   UNL     1      -8.878   7.553  65.502  1.00  0.00    -0.012 C  
HETATM   15  N   UNL     1      -8.968   9.824  66.478  1.00  0.00    -0.148 NA 
HETATM   16  H   UNL     1      -8.853  10.275  65.570  1.00  0.00     0.000 HD 
HETATM   17  C   UNL     1      -9.147  10.493  67.659  1.00  0.00    -0.142 A  
HETATM   18  C   UNL     1      -9.235   9.534  68.660  1.00  0.00    -0.135 A  
HETATM   19  C   UNL     1      -9.435   9.774  70.123  1.00  0.00    -0.277 C  
BRANCH  17  20
HETATM   20  C   UNL     1      -9.228  11.907  67.744  1.00  0.00    -0.184 C  
HETATM   21  C   UNL     1     -10.260  12.704  68.052  1.00  0.00    -0.230 C  
HETATM   22  C   UNL     1     -11.695  12.406  68.404  1.00  0.00    -0.336 C  
HETATM   23  N   UNL     1     -12.282  13.649  68.612  1.00  0.00    -0.373 N  
HETATM   24  O   UNL     1     -12.236  11.322  68.487  1.00  0.00    -0.588 OA 
HETATM   25  C   UNL     1     -11.369  14.684  68.430  1.00  0.00    -0.292 A  
HETATM   26  H   UNL     1     -13.260  13.786  68.868  1.00  0.00     0.000 HD 
HETATM   27  C   UNL     1     -10.115  14.170  68.088  1.00  0.00    -0.239 A  
HETATM   28  C   UNL     1      -9.044  15.018  67.862  1.00  0.00    -0.180 A  
HETATM   29  C   UNL     1      -9.267  16.386  67.981  1.00  0.00    -0.204 A  
HETATM   30  F   UNL     1      -8.252  17.232  67.765  1.00  0.00    -0.192 F  
HETATM   31  C   UNL     1     -10.526  16.901  68.319  1.00  0.00    -0.352 A  
HETATM   32  C   UNL     1     -11.604  16.041  68.551  1.00  0.00    -0.316 A  
ENDBRANCH  17  20
ENDBRANCH   9  12
ENDBRANCH   7   8
ENDBRANCH   6   7
ENDBRANCH   3   6
ENDBRANCH   2   3
TORSDOF 7
ENDMDL
MODEL      146
REMARK 921   NORMALIZED FREE ENERGY PREDICTED BY IDOCK:   -4.46 KCAL/MOL
REMARK 922        TOTAL FREE ENERGY PREDICTED BY IDOCK:   -7.37 KCAL/MOL
REMARK 923 INTER-LIGAND FREE ENERGY PREDICTED BY IDOCK:   -7.25 KCAL/MOL
REMARK 924 INTRA-LIGAND FREE ENERGY PREDICTED BY IDOCK:   -0.12 KCAL/MOL
REMARK 927      BINDING AFFINITY PREDICTED BY RF-SCORE:    0.00 PKD
ROOT
HETATM    1  C   UNL     1      -7.241  19.250  67.966  1.00  0.00    -0.292 C  
HETATM    2  C   UNL     1      -8.412  19.306  68.943  1.00  0.00    -0.300 C  
ENDROOT
BRANCH   2   3
HETATM    3  N   UNL     1      -9.732  19.499  68.321  1.00  0.00    -0.379 NA 
BRANCH   3   4
HETATM    4  C   UNL     1      -9.714  20.405  67.154  1.00  0.00    -0.460 C  
HETATM    5  C   UNL     1     -10.315  19.861  65.857  1.00  0.00    -0.567 C  
ENDBRANCH   3   4
BRANCH   3   6
HETATM    6  C   UNL     1     -10.360  18.203  67.966  1.00  0.00    -0.391 C  
BRANCH   6   7
HETATM    7  C   UNL     1     -10.487  17.183  69.112  1.00  0.00    -0.296 C  
BRANCH   7   8
HETATM    8  N   UNL     1      -9.844  15.926  68.804  1.00  0.00    -0.207 N  
HETATM    9  C   UNL     1     -10.572  14.770  68.676  1.00  0.00    -0.255 C  
HETATM   10  H   UNL     1      -8.832  15.897  68.680  1.00  0.00     0.000 HD 
HETATM   11  O   UNL     1     -11.795  14.752  68.798  1.00  0.00    -0.308 OA 
BRANCH   9  12
HETATM   12  C   UNL     1      -9.802  13.567  68.349  1.00  0.00    -0.225 A  
HETATM   13  C   UNL     1      -8.427  13.366  68.423  1.00  0.00    -0.135 A  
HETATM   14  C   UNL     1      -7.294  14.229  68.856  1.00  0.00    -0.126 C  
HETATM   15  N   UNL     1      -8.172  12.064  68.046  1.00  0.00    -0.147 NA 
HETATM   16  H   UNL     1      -7.242  11.652  67.981  1.00  0.00     0.000 HD 
HETATM   17  C   UNL     1      -9.336  11.399  67.771  1.00  0.00    -0.162 A  
HETATM   18  C   UNL     1     -10.374  12.304  67.948  1.00  0.00    -0.216 A  
HETATM   19  C   UNL     1     -11.837  12.045  67.769  1.00  0.00    -0.308 C  
BRANCH  17  20
HETATM   20  C   UNL     1      -9.377  10.032  67.393  1.00  0.00    -0.167 C  
HETATM   21  C   UNL     1      -9.932   8.975  68.002  1.00  0.00    -0.213 C  
HETATM   22  C   UNL     1     -10.696   8.842  69.294  1.00  0.00    -0.162 C  
HETATM   23  N   UNL     1     -11.008   7.491  69.393  1.00  0.00    -0.421 N  
HETATM   24  O   UNL     1     -10.981   9.715  70.089  1.00  0.00    -0.242 OA 
HETATM   25  C   UNL     1     -10.523   6.772  68.304  1.00  0.00    -0.206 A  
HETATM   26  H   UNL     1     -11.529   7.077  70.167  1.00  0.00     0.000 HD 
HETATM   27  C   UNL     1      -9.858   7.624  67.418  1.00  0.00    -0.226 A  
HETATM   28  C   UNL     1      -9.294   7.129  66.254  1.00  0.00    -0.154 A  
HETATM   29  C   UNL     1      -9.410   5.764  66.010  1.00  0.00    -0.117 A  
HETATM   30  F   UNL     1      -8.872   5.255  64.895  1.00  0.00    -0.150 F  
HETATM   31  C   UNL     1     -10.073   4.910  66.902  1.00  0.00    -0.257 A  
HETATM   32  C   UNL     1     -10.645   5.415  68.073  1.00  0.00    -0.157 A  
ENDBRANCH  17  20
ENDBRANCH   9  12
ENDBRANCH   7   8
ENDBRANCH   6   7
ENDBRANCH   3   6
ENDBRANCH   2   3
TORSDOF 7
ENDMDL
MODEL      147
REMARK 921   NORMALIZED FREE ENERGY PREDICTED BY IDOCK:   -4.44 KCAL/MOL
REMARK 922        TOTAL FREE ENERGY PREDICTED BY IDOCK:   -7.34 KCAL/MOL
REMARK 923 INTER-LIGAND FREE ENERGY PREDICTED BY IDOCK:   -6.39 KCAL/MOL
REMARK 924 INTRA-LIGAND FREE ENERGY PREDICTED BY IDOCK:   -0.95 KCAL/MOL
REMARK 927      BINDING AFFINITY PREDICTED BY RF-SCORE:    0.00 PKD
ROOT
HETATM    1  C   UNL     1      -6.957   6.073  64.150  1.00  0.00    -0.051 C  
HETATM    2  C   UNL     1      -8.271   5.300  64.077  1.00  0.00    -0.131 C  
ENDROOT
BRANCH   2   3
HETATM    3  N   UNL     1      -8.884   4.993  65.380  1.00  0.00    -0.149 NA 
BRANCH   3   4
HETATM    4  C   UNL     1      -9.946   3.969  65.312  1.00  0.00    -0.189 C  
HETATM    5  C   UNL     1     -10.591   3.742  63.944  1.00  0.00    -0.273 C  
ENDBRANCH   3   4
BRANCH   3   6
HETATM    6  C   UNL     1      -7.861   4.618  66.386  1.00  0.00    -0.099 C  
BRANCH   6   7
HETATM    7  C   UNL     1      -8.235   4.883  67.856  1.00  0.00    -0.100 C  
BRANCH   7   8
HETATM    8  N   UNL     1      -8.628   6.255  68.085  1.00  0.00    -0.117 N  
HETATM    9  C   UNL     1      -8.003   7.021  69.037  1.00  0.00    -0.116 C  
HETATM   10  H   UNL     1      -9.382   6.661  67.530  1.00  0.00     0.000 HD 
HETATM   11  O   UNL     1      -7.077   6.588  69.719  1.00  0.00    -0.067 OA 
BRANCH   9  12
HETATM   12  C   UNL     1      -8.486   8.399  69.160  1.00  0.00    -0.123 A  
HETATM   13  C   UNL     1      -9.067   9.024  70.258  1.00  0.00    -0.202 A  
HETATM   14  C   UNL     1      -9.375   8.570  71.643  1.00  0.00    -0.311 C  
HETATM   15  N   UNL     1      -9.325  10.333  69.909  1.00  0.00    -0.408 NA 
HETATM   16  H   UNL     1      -9.777  11.016  70.517  1.00  0.00     0.000 HD 
HETATM   17  C   UNL     1      -8.895  10.593  68.636  1.00  0.00    -0.151 A  
HETATM   18  C   UNL     1      -8.366   9.410  68.136  1.00  0.00    -0.119 A  
HETATM   19  C   UNL     1      -7.766   9.191  66.783  1.00  0.00    -0.097 C  
BRANCH  17  20
HETATM   20  C   UNL     1      -9.000  11.870  68.028  1.00  0.00    -0.185 C  
HETATM   21  C   UNL     1     -10.067  12.522  67.547  1.00  0.00    -0.207 C  
HETATM   22  C   UNL     1     -11.525  12.147  67.464  1.00  0.00    -0.340 C  
HETATM   23  N   UNL     1     -12.143  13.234  66.855  1.00  0.00    -0.365 N  
HETATM   24  O   UNL     1     -12.057  11.123  67.839  1.00  0.00    -0.627 OA 
HETATM   25  C   UNL     1     -11.231  14.240  66.553  1.00  0.00    -0.332 A  
HETATM   26  H   UNL     1     -13.142  13.287  66.655  1.00  0.00     0.000 HD 
HETATM   27  C   UNL     1      -9.945  13.866  66.954  1.00  0.00    -0.264 A  
HETATM   28  C   UNL     1      -8.871  14.716  66.758  1.00  0.00    -0.269 A  
HETATM   29  C   UNL     1      -9.119  15.941  66.147  1.00  0.00    -0.350 A  
HETATM   30  F   UNL     1      -8.099  16.784  65.941  1.00  0.00    -0.340 F  
HETATM   31  C   UNL     1     -10.408  16.314  65.741  1.00  0.00    -0.393 A  
HETATM   32  C   UNL     1     -11.491  15.454  65.945  1.00  0.00    -0.014 A  
ENDBRANCH  17  20
ENDBRANCH   9  12
ENDBRANCH   7   8
ENDBRANCH   6   7
ENDBRANCH   3   6
ENDBRANCH   2   3
TORSDOF 7
ENDMDL
MODEL      148
REMARK 921   NORMALIZED FREE ENERGY PREDICTED BY IDOCK:   -4.38 KCAL/MOL
REMARK 922        TOTAL FREE ENERGY PREDICTED BY IDOCK:   -7.26 KCAL/MOL
REMARK 923 INTER-LIGAND FREE ENERGY PREDICTED BY IDOCK:   -6.53 KCAL/MOL
REMARK 924 INTRA-LIGAND FREE ENERGY PREDICTED BY IDOCK:   -0.73 KCAL/MOL
REMARK 927      BINDING AFFINITY PREDICTED BY RF-SCORE:    0.00 PKD
ROOT
HETATM    1  C   UNL     1      -8.927   4.510  62.784  1.00  0.00    -0.127 C  
HETATM    2  C   UNL     1      -8.002   3.622  63.611  1.00  0.00    -0.087 C  
ENDROOT
BRANCH   2   3
HETATM    3  N   UNL     1      -7.535   4.216  64.875  1.00  0.00    -0.072 NA 
BRANCH   3   4
HETATM    4  C   UNL     1      -6.298   5.011  64.738  1.00  0.00    -0.034 C  
HETATM    5  C   UNL     1      -5.275   4.513  63.715  1.00  0.00    -0.009 C  
ENDBRANCH   3   4
BRANCH   3   6
HETATM    6  C   UNL     1      -8.601   5.018  65.524  1.00  0.00    -0.139 C  
BRANCH   6   7
HETATM    7  C   UNL     1      -8.274   6.503  65.762  1.00  0.00    -0.135 C  
BRANCH   7   8
HETATM    8  N   UNL     1      -9.194   7.128  66.684  1.00  0.00    -0.154 N  
HETATM    9  C   UNL     1      -8.822   7.410  67.975  1.00  0.00    -0.126 C  
HETATM   10  H   UNL     1     -10.136   7.364  66.370  1.00  0.00     0.000 HD 
HETATM   11  O   UNL     1      -7.695   7.164  68.398  1.00  0.00    -0.115 OA 
BRANCH   9  12
HETATM   12  C   UNL     1      -9.844   8.057  68.803  1.00  0.00    -0.176 A  
HETATM   13  C   UNL     1     -10.886   7.472  69.515  1.00  0.00    -0.175 A  
HETATM   14  C   UNL     1     -11.316   6.061  69.716  1.00  0.00    -0.344 C  
HETATM   15  N   UNL     1     -11.564   8.480  70.170  1.00  0.00    -0.461 NA 
HETATM   16  H   UNL     1     -12.394   8.339  70.746  1.00  0.00     0.000 HD 
HETATM   17  C   UNL     1     -10.975   9.693  69.942  1.00  0.00    -0.252 A  
HETATM   18  C   UNL     1      -9.899   9.469  69.092  1.00  0.00    -0.176 A  
HETATM   19  C   UNL     1      -8.943  10.491  68.559  1.00  0.00    -0.147 C  
BRANCH  17  20
HETATM   20  C   UNL     1     -11.440  10.902  70.520  1.00  0.00    -0.314 C  
HETATM   21  C   UNL     1     -11.848  12.042  69.947  1.00  0.00    -0.405 C  
HETATM   22  C   UNL     1     -11.953  12.465  68.504  1.00  0.00    -0.223 C  
HETATM   23  N   UNL     1     -12.436  13.769  68.543  1.00  0.00    -0.281 N  
HETATM   24  O   UNL     1     -11.676  11.821  67.513  1.00  0.00    -0.512 OA 
HETATM   25  C   UNL     1     -12.643  14.200  69.850  1.00  0.00    -0.154 A  
HETATM   26  H   UNL     1     -12.617  14.338  67.716  1.00  0.00     0.000 HD 
HETATM   27  C   UNL     1     -12.304  13.189  70.753  1.00  0.00    -0.404 A  
HETATM   28  C   UNL     1     -12.434  13.390  72.117  1.00  0.00     0.073 A  
HETATM   29  C   UNL     1     -12.904  14.628  72.545  1.00  0.00    -0.388 A  
HETATM   30  F   UNL     1     -13.037  14.854  73.858  1.00  0.00    -0.527 F  
HETATM   31  C   UNL     1     -13.239  15.643  71.639  1.00  0.00    -0.554 A  
HETATM   32  C   UNL     1     -13.111  15.433  70.262  1.00  0.00    -0.111 A  
ENDBRANCH  17  20
ENDBRANCH   9  12
ENDBRANCH   7   8
ENDBRANCH   6   7
ENDBRANCH   3   6
ENDBRANCH   2   3
TORSDOF 7
ENDMDL
MODEL      149
REMARK 921   NORMALIZED FREE ENERGY PREDICTED BY IDOCK:   -4.37 KCAL/MOL
REMARK 922        TOTAL FREE ENERGY PREDICTED BY IDOCK:   -7.25 KCAL/MOL
REMARK 923 INTER-LIGAND FREE ENERGY PREDICTED BY IDOCK:   -6.26 KCAL/MOL
REMARK 924 INTRA-LIGAND FREE ENERGY PREDICTED BY IDOCK:   -0.99 KCAL/MOL
REMARK 927      BINDING AFFINITY PREDICTED BY RF-SCORE:    0.00 PKD
ROOT
HETATM    1  C   UNL     1     -10.612  19.682  65.841  1.00  0.00    -0.566 C  
HETATM    2  C   UNL     1     -10.355  19.608  67.343  1.00  0.00    -0.453 C  
ENDROOT
BRANCH   2   3
HETATM    3  N   UNL     1      -9.277  18.689  67.745  1.00  0.00    -0.282 NA 
BRANCH   3   4
HETATM    4  C   UNL     1      -7.947  19.327  67.817  1.00  0.00    -0.277 C  
HETATM    5  C   UNL     1      -7.215  19.234  69.157  1.00  0.00    -0.360 C  
ENDBRANCH   3   4
BRANCH   3   6
HETATM    6  C   UNL     1      -9.597  18.003  69.020  1.00  0.00    -0.144 C  
BRANCH   6   7
HETATM    7  C   UNL     1     -10.677  16.908  68.941  1.00  0.00    -0.321 C  
BRANCH   7   8
HETATM    8  N   UNL     1     -10.298  15.823  68.066  1.00  0.00    -0.246 N  
HETATM    9  C   UNL     1     -11.142  14.765  67.843  1.00  0.00    -0.293 C  
HETATM   10  H   UNL     1      -9.387  15.844  67.606  1.00  0.00     0.000 HD 
HETATM   11  O   UNL     1     -12.257  14.699  68.357  1.00  0.00    -0.231 OA 
BRANCH   9  12
HETATM   12  C   UNL     1     -10.644  13.738  66.924  1.00  0.00    -0.276 A  
HETATM   13  C   UNL     1     -10.367  13.845  65.564  1.00  0.00    -0.333 A  
HETATM   14  C   UNL     1     -10.441  14.974  64.596  1.00  0.00    -0.115 C  
HETATM   15  N   UNL     1      -9.888  12.625  65.136  1.00  0.00    -0.463 NA 
HETATM   16  H   UNL     1      -9.631  12.410  64.173  1.00  0.00     0.000 HD 
HETATM   17  C   UNL     1      -9.804  11.740  66.176  1.00  0.00    -0.229 A  
HETATM   18  C   UNL     1     -10.268  12.399  67.308  1.00  0.00    -0.224 A  
HETATM   19  C   UNL     1     -10.368  11.846  68.696  1.00  0.00    -0.218 C  
BRANCH  17  20
HETATM   20  C   UNL     1      -9.310  10.418  66.033  1.00  0.00    -0.219 C  
HETATM   21  C   UNL     1      -8.092   9.913  66.270  1.00  0.00    -0.114 C  
HETATM   22  C   UNL     1      -6.814  10.545  66.758  1.00  0.00    -0.103 C  
HETATM   23  N   UNL     1      -5.888   9.508  66.796  1.00  0.00    -0.054 N  
HETATM   24  O   UNL     1      -6.619  11.707  67.054  1.00  0.00    -0.123 OA 
HETATM   25  C   UNL     1      -6.451   8.304  66.386  1.00  0.00    -0.054 A  
HETATM   26  H   UNL     1      -4.917   9.617  67.088  1.00  0.00     0.000 HD 
HETATM   27  C   UNL     1      -7.796   8.485  66.054  1.00  0.00    -0.098 A  
HETATM   28  C   UNL     1      -8.565   7.418  65.622  1.00  0.00    -0.128 A  
HETATM   29  C   UNL     1      -7.949   6.174  65.528  1.00  0.00    -0.117 A  
HETATM   30  F   UNL     1      -8.665   5.123  65.110  1.00  0.00    -0.133 F  
HETATM   31  C   UNL     1      -6.598   5.994  65.857  1.00  0.00    -0.047 A  
HETATM   32  C   UNL     1      -5.827   7.073  66.297  1.00  0.00    -0.034 A  
ENDBRANCH  17  20
ENDBRANCH   9  12
ENDBRANCH   7   8
ENDBRANCH   6   7
ENDBRANCH   3   6
ENDBRANCH   2   3
TORSDOF 7
ENDMDL
MODEL      150
REMARK 921   NORMALIZED FREE ENERGY PREDICTED BY IDOCK:   -4.37 KCAL/MOL
REMARK 922        TOTAL FREE ENERGY PREDICTED BY IDOCK:   -7.24 KCAL/MOL
REMARK 923 INTER-LIGAND FREE ENERGY PREDICTED BY IDOCK:   -6.36 KCAL/MOL
REMARK 924 INTRA-LIGAND FREE ENERGY PREDICTED BY IDOCK:   -0.89 KCAL/MOL
REMARK 927      BINDING AFFINITY PREDICTED BY RF-SCORE:    0.00 PKD
ROOT
HETATM    1  C   UNL     1      -5.757  20.456  69.680  1.00  0.00    -0.385 C  
HETATM    2  C   UNL     1      -6.274  20.455  68.245  1.00  0.00    -0.300 C  
ENDROOT
BRANCH   2   3
HETATM    3  N   UNL     1      -7.456  19.609  68.011  1.00  0.00    -0.288 NA 
BRANCH   3   4
HETATM    4  C   UNL     1      -8.456  20.218  67.111  1.00  0.00    -0.339 C  
HETATM    5  C   UNL     1      -9.625  20.944  67.779  1.00  0.00    -0.206 C  
ENDBRANCH   3   4
BRANCH   3   6
HETATM    6  C   UNL     1      -7.072  18.260  67.527  1.00  0.00    -0.200 C  
BRANCH   6   7
HETATM    7  C   UNL     1      -6.796  17.209  68.617  1.00  0.00    -0.197 C  
BRANCH   7   8
HETATM    8  N   UNL     1      -7.588  16.014  68.441  1.00  0.00    -0.140 N  
HETATM    9  C   UNL     1      -7.130  14.965  67.684  1.00  0.00    -0.186 C  
HETATM   10  H   UNL     1      -8.504  15.948  68.887  1.00  0.00     0.000 HD 
HETATM   11  O   UNL     1      -6.028  14.984  67.140  1.00  0.00    -0.254 OA 
BRANCH   9  12
HETATM   12  C   UNL     1      -8.024  13.807  67.597  1.00  0.00    -0.179 A  
HETATM   13  C   UNL     1      -9.106  13.603  66.746  1.00  0.00    -0.217 A  
HETATM   14  C   UNL     1      -9.712  14.418  65.657  1.00  0.00    -0.258 C  
HETATM   15  N   UNL     1      -9.619  12.350  67.011  1.00  0.00    -0.205 NA 
HETATM   16  H   UNL     1     -10.437  11.950  66.551  1.00  0.00     0.000 HD 
HETATM   17  C   UNL     1      -8.883  11.715  67.974  1.00  0.00    -0.162 A  
HETATM   18  C   UNL     1      -7.879  12.593  68.364  1.00  0.00    -0.136 A  
HETATM   19  C   UNL     1      -6.818  12.350  69.391  1.00  0.00     0.021 C  
BRANCH  17  20
HETATM   20  C   UNL     1      -9.161  10.397  68.419  1.00  0.00    -0.147 C  
HETATM   21  C   UNL     1      -9.511   9.301  67.733  1.00  0.00    -0.160 C  
HETATM   22  C   UNL     1      -9.748   9.063  66.263  1.00  0.00    -0.275 C  
HETATM   23  N   UNL     1     -10.096   7.720  66.165  1.00  0.00    -0.420 N  
HETATM   24  O   UNL     1      -9.662   9.861  65.352  1.00  0.00    -0.269 OA 
HETATM   25  C   UNL     1     -10.100   7.100  67.411  1.00  0.00    -0.202 A  
HETATM   26  H   UNL     1     -10.320   7.249  65.289  1.00  0.00     0.000 HD 
HETATM   27  C   UNL     1      -9.748   8.013  68.408  1.00  0.00    -0.168 A  
HETATM   28  C   UNL     1      -9.681   7.617  69.733  1.00  0.00    -0.171 A  
HETATM   29  C   UNL     1      -9.980   6.290  70.027  1.00  0.00    -0.171 A  
HETATM   30  F   UNL     1      -9.927   5.878  71.300  1.00  0.00    -0.193 F  
HETATM   31  C   UNL     1     -10.337   5.376  69.026  1.00  0.00    -0.282 A  
HETATM   32  C   UNL     1     -10.399   5.779  67.689  1.00  0.00    -0.270 A  
ENDBRANCH  17  20
ENDBRANCH   9  12
ENDBRANCH   7   8
ENDBRANCH   6   7
ENDBRANCH   3   6
ENDBRANCH   2   3
TORSDOF 7
ENDMDL
MODEL      151
REMARK 921   NORMALIZED FREE ENERGY PREDICTED BY IDOCK:   -4.36 KCAL/MOL
REMARK 922        TOTAL FREE ENERGY PREDICTED BY IDOCK:   -7.23 KCAL/MOL
REMARK 923 INTER-LIGAND FREE ENERGY PREDICTED BY IDOCK:   -6.24 KCAL/MOL
REMARK 924 INTRA-LIGAND FREE ENERGY PREDICTED BY IDOCK:   -0.99 KCAL/MOL
REMARK 927      BINDING AFFINITY PREDICTED BY RF-SCORE:    0.00 PKD
ROOT
HETATM    1  C   UNL     1      -6.517   7.106  73.270  1.00  0.00    -0.065 C  
HETATM    2  C   UNL     1      -7.344   5.987  73.894  1.00  0.00    -0.092 C  
ENDROOT
BRANCH   2   3
HETATM    3  N   UNL     1      -7.748   4.919  72.964  1.00  0.00    -0.092 NA 
BRANCH   3   4
HETATM    4  C   UNL     1      -7.074   3.629  73.209  1.00  0.00    -0.054 C  
HETATM    5  C   UNL     1      -5.691   3.449  72.580  1.00  0.00    -0.008 C  
ENDBRANCH   3   4
BRANCH   3   6
HETATM    6  C   UNL     1      -9.221   4.744  72.947  1.00  0.00    -0.124 C  
BRANCH   6   7
HETATM    7  C   UNL     1      -9.855   4.523  71.561  1.00  0.00    -0.190 C  
BRANCH   7   8
HETATM    8  N   UNL     1     -10.248   5.762  70.932  1.00  0.00    -0.205 N  
HETATM    9  C   UNL     1      -9.408   6.412  70.061  1.00  0.00    -0.156 C  
HETATM   10  H   UNL     1     -11.163   6.162  71.138  1.00  0.00     0.000 HD 
HETATM   11  O   UNL     1      -8.302   5.964  69.765  1.00  0.00    -0.120 OA 
BRANCH   9  12
HETATM   12  C   UNL     1      -9.931   7.652  69.481  1.00  0.00    -0.182 A  
HETATM   13  C   UNL     1     -10.416   7.876  68.197  1.00  0.00    -0.173 A  
HETATM   14  C   UNL     1     -10.601   6.996  67.010  1.00  0.00    -0.412 C  
HETATM   15  N   UNL     1     -10.828   9.190  68.127  1.00  0.00    -0.464 NA 
HETATM   16  H   UNL     1     -11.202   9.636  67.289  1.00  0.00     0.000 HD 
HETATM   17  C   UNL     1     -10.667   9.817  69.332  1.00  0.00    -0.228 A  
HETATM   18  C   UNL     1     -10.109   8.889  70.202  1.00  0.00    -0.212 A  
HETATM   19  C   UNL     1      -9.749   9.102  71.640  1.00  0.00    -0.263 C  
BRANCH  17  20
HETATM   20  C   UNL     1     -11.041  11.166  69.561  1.00  0.00    -0.311 C  
HETATM   21  C   UNL     1     -11.138  12.200  68.714  1.00  0.00    -0.297 C  
HETATM   22  C   UNL     1     -10.882  12.319  67.234  1.00  0.00    -0.245 C  
HETATM   23  N   UNL     1     -11.149  13.648  66.925  1.00  0.00    -0.299 N  
HETATM   24  O   UNL     1     -10.516  11.452  66.465  1.00  0.00    -0.231 OA 
HETATM   25  C   UNL     1     -11.545  14.365  68.050  1.00  0.00    -0.327 A  
HETATM   26  H   UNL     1     -11.067  14.048  65.990  1.00  0.00     0.000 HD 
HETATM   27  C   UNL     1     -11.560  13.535  69.174  1.00  0.00    -0.359 A  
HETATM   28  C   UNL     1     -11.929  14.033  70.413  1.00  0.00    -0.398 A  
HETATM   29  C   UNL     1     -12.273  15.378  70.491  1.00  0.00    -0.394 A  
HETATM   30  F   UNL     1     -12.631  15.890  71.676  1.00  0.00    -0.418 F  
HETATM   31  C   UNL     1     -12.253  16.211  69.365  1.00  0.00     0.179 A  
HETATM   32  C   UNL     1     -11.884  15.704  68.115  1.00  0.00    -0.096 A  
ENDBRANCH  17  20
ENDBRANCH   9  12
ENDBRANCH   7   8
ENDBRANCH   6   7
ENDBRANCH   3   6
ENDBRANCH   2   3
TORSDOF 7
ENDMDL
MODEL      152
REMARK 921   NORMALIZED FREE ENERGY PREDICTED BY IDOCK:   -4.35 KCAL/MOL
REMARK 922        TOTAL FREE ENERGY PREDICTED BY IDOCK:   -7.21 KCAL/MOL
REMARK 923 INTER-LIGAND FREE ENERGY PREDICTED BY IDOCK:   -6.36 KCAL/MOL
REMARK 924 INTRA-LIGAND FREE ENERGY PREDICTED BY IDOCK:   -0.85 KCAL/MOL
REMARK 927      BINDING AFFINITY PREDICTED BY RF-SCORE:    0.00 PKD
ROOT
HETATM    1  C   UNL     1     -10.399  19.834  67.857  1.00  0.00    -0.569 C  
HETATM    2  C   UNL     1      -8.997  20.433  67.803  1.00  0.00    -0.179 C  
ENDROOT
BRANCH   2   3
HETATM    3  N   UNL     1      -8.161  19.958  66.687  1.00  0.00    -0.306 NA 
BRANCH   3   4
HETATM    4  C   UNL     1      -6.721  19.894  67.008  1.00  0.00    -0.208 C  
HETATM    5  C   UNL     1      -5.783  20.701  66.109  1.00  0.00    -0.233 C  
ENDBRANCH   3   4
BRANCH   3   6
HETATM    6  C   UNL     1      -8.639  18.653  66.169  1.00  0.00    -0.137 C  
BRANCH   6   7
HETATM    7  C   UNL     1      -7.760  17.434  66.505  1.00  0.00    -0.284 C  
BRANCH   7   8
HETATM    8  N   UNL     1      -8.399  16.184  66.165  1.00  0.00    -0.283 N  
HETATM    9  C   UNL     1      -9.083  15.458  67.108  1.00  0.00    -0.220 C  
HETATM   10  H   UNL     1      -8.342  15.835  65.208  1.00  0.00     0.000 HD 
HETATM   11  O   UNL     1      -9.198  15.841  68.270  1.00  0.00    -0.184 OA 
BRANCH   9  12
HETATM   12  C   UNL     1      -9.697  14.216  66.630  1.00  0.00    -0.297 A  
HETATM   13  C   UNL     1     -10.686  14.047  65.668  1.00  0.00    -0.303 A  
HETATM   14  C   UNL     1     -11.431  14.997  64.796  1.00  0.00    -0.403 C  
HETATM   15  N   UNL     1     -10.916  12.693  65.534  1.00  0.00    -0.273 NA 
HETATM   16  H   UNL     1     -11.614  12.283  64.914  1.00  0.00     0.000 HD 
HETATM   17  C   UNL     1     -10.080  11.974  66.344  1.00  0.00    -0.218 A  
HETATM   18  C   UNL     1      -9.305  12.890  67.045  1.00  0.00    -0.235 A  
HETATM   19  C   UNL     1      -8.241  12.586  68.052  1.00  0.00    -0.166 C  
BRANCH  17  20
HETATM   20  C   UNL     1     -10.070  10.556  66.385  1.00  0.00    -0.285 C  
HETATM   21  C   UNL     1      -9.109   9.681  66.061  1.00  0.00    -0.212 C  
HETATM   22  C   UNL     1      -7.710   9.869  65.534  1.00  0.00    -0.124 C  
HETATM   23  N   UNL     1      -7.202   8.583  65.386  1.00  0.00    -0.082 N  
HETATM   24  O   UNL     1      -7.137  10.910  65.283  1.00  0.00     0.047 OA 
HETATM   25  C   UNL     1      -8.132   7.619  65.765  1.00  0.00    -0.126 A  
HETATM   26  H   UNL     1      -6.265   8.372  65.044  1.00  0.00     0.000 HD 
HETATM   27  C   UNL     1      -9.316   8.227  66.190  1.00  0.00    -0.254 A  
HETATM   28  C   UNL     1     -10.386   7.462  66.620  1.00  0.00    -0.241 A  
HETATM   29  C   UNL     1     -10.238   6.079  66.607  1.00  0.00    -0.189 A  
HETATM   30  F   UNL     1     -11.257   5.311  67.015  1.00  0.00    -0.124 F  
HETATM   31  C   UNL     1      -9.051   5.469  66.177  1.00  0.00    -0.155 A  
HETATM   32  C   UNL     1      -7.972   6.246  65.747  1.00  0.00    -0.116 A  
ENDBRANCH  17  20
ENDBRANCH   9  12
ENDBRANCH   7   8
ENDBRANCH   6   7
ENDBRANCH   3   6
ENDBRANCH   2   3
TORSDOF 7
ENDMDL
MODEL      153
REMARK 921   NORMALIZED FREE ENERGY PREDICTED BY IDOCK:   -4.33 KCAL/MOL
REMARK 922        TOTAL FREE ENERGY PREDICTED BY IDOCK:   -7.19 KCAL/MOL
REMARK 923 INTER-LIGAND FREE ENERGY PREDICTED BY IDOCK:   -6.10 KCAL/MOL
REMARK 924 INTRA-LIGAND FREE ENERGY PREDICTED BY IDOCK:   -1.09 KCAL/MOL
REMARK 927      BINDING AFFINITY PREDICTED BY RF-SCORE:    0.00 PKD
ROOT
HETATM    1  C   UNL     1      -5.706  12.827  69.379  1.00  0.00    -0.090 C  
HETATM    2  C   UNL     1      -6.146  14.241  69.748  1.00  0.00    -0.132 C  
ENDROOT
BRANCH   2   3
HETATM    3  N   UNL     1      -7.040  14.887  68.772  1.00  0.00    -0.109 NA 
BRANCH   3   4
HETATM    4  C   UNL     1      -6.504  16.147  68.217  1.00  0.00    -0.128 C  
HETATM    5  C   UNL     1      -7.121  17.443  68.744  1.00  0.00    -0.246 C  
ENDBRANCH   3   4
BRANCH   3   6
HETATM    6  C   UNL     1      -7.417  13.955  67.681  1.00  0.00    -0.176 C  
BRANCH   6   7
HETATM    7  C   UNL     1      -8.898  13.535  67.639  1.00  0.00    -0.202 C  
BRANCH   7   8
HETATM    8  N   UNL     1      -9.245  12.635  68.715  1.00  0.00    -0.400 N  
HETATM    9  C   UNL     1     -10.200  11.665  68.546  1.00  0.00    -0.210 C  
HETATM   10  H   UNL     1      -8.773  12.723  69.615  1.00  0.00     0.000 HD 
HETATM   11  O   UNL     1     -10.786  11.504  67.477  1.00  0.00    -0.211 OA 
BRANCH   9  12
HETATM   12  C   UNL     1     -10.449  10.809  69.709  1.00  0.00    -0.130 A  
HETATM   13  C   UNL     1     -11.456  10.908  70.664  1.00  0.00    -0.130 A  
HETATM   14  C   UNL     1     -12.603  11.842  70.842  1.00  0.00    -0.384 C  
HETATM   15  N   UNL     1     -11.303   9.860  71.547  1.00  0.00    -0.289 NA 
HETATM   16  H   UNL     1     -11.889   9.702  72.366  1.00  0.00     0.000 HD 
HETATM   17  C   UNL     1     -10.258   9.058  71.176  1.00  0.00    -0.293 A  
HETATM   18  C   UNL     1      -9.700   9.619  70.034  1.00  0.00    -0.280 A  
HETATM   19  C   UNL     1      -8.533   9.102  69.253  1.00  0.00    -0.132 C  
BRANCH  17  20
HETATM   20  C   UNL     1      -9.893   7.883  71.882  1.00  0.00    -0.233 C  
HETATM   21  C   UNL     1     -10.624   6.820  72.241  1.00  0.00    -0.241 C  
HETATM   22  C   UNL     1     -12.080   6.483  72.044  1.00  0.00    -0.312 C  
HETATM   23  N   UNL     1     -12.250   5.241  72.647  1.00  0.00    -0.204 N  
HETATM   24  O   UNL     1     -12.933   7.144  71.486  1.00  0.00    -0.374 OA 
HETATM   25  C   UNL     1     -11.060   4.771  73.194  1.00  0.00    -0.310 A  
HETATM   26  H   UNL     1     -13.136   4.737  72.683  1.00  0.00     0.000 HD 
HETATM   27  C   UNL     1     -10.029   5.689  72.977  1.00  0.00    -0.191 A  
HETATM   28  C   UNL     1      -8.747   5.430  73.431  1.00  0.00    -0.115 A  
HETATM   29  C   UNL     1      -8.532   4.235  74.110  1.00  0.00    -0.094 A  
HETATM   30  F   UNL     1      -7.303   3.958  74.565  1.00  0.00    -0.059 F  
HETATM   31  C   UNL     1      -9.567   3.317  74.332  1.00  0.00    -0.128 A  
HETATM   32  C   UNL     1     -10.859   3.580  73.867  1.00  0.00    -0.301 A  
ENDBRANCH  17  20
ENDBRANCH   9  12
ENDBRANCH   7   8
ENDBRANCH   6   7
ENDBRANCH   3   6
ENDBRANCH   2   3
TORSDOF 7
ENDMDL
MODEL      154
REMARK 921   NORMALIZED FREE ENERGY PREDICTED BY IDOCK:   -4.33 KCAL/MOL
REMARK 922        TOTAL FREE ENERGY PREDICTED BY IDOCK:   -7.19 KCAL/MOL
REMARK 923 INTER-LIGAND FREE ENERGY PREDICTED BY IDOCK:   -6.20 KCAL/MOL
REMARK 924 INTRA-LIGAND FREE ENERGY PREDICTED BY IDOCK:   -0.99 KCAL/MOL
REMARK 927      BINDING AFFINITY PREDICTED BY RF-SCORE:    0.00 PKD
ROOT
HETATM    1  C   UNL     1     -13.033  15.770  73.772  1.00  0.00    -0.633 C  
HETATM    2  C   UNL     1     -11.737  15.620  72.982  1.00  0.00    -0.369 C  
ENDROOT
BRANCH   2   3
HETATM    3  N   UNL     1     -11.831  14.758  71.792  1.00  0.00    -0.346 NA 
BRANCH   3   4
HETATM    4  C   UNL     1     -13.163  14.150  71.601  1.00  0.00    -0.353 C  
HETATM    5  C   UNL     1     -13.315  12.689  72.028  1.00  0.00    -0.555 C  
ENDBRANCH   3   4
BRANCH   3   6
HETATM    6  C   UNL     1     -11.405  15.477  70.566  1.00  0.00    -0.351 C  
BRANCH   6   7
HETATM    7  C   UNL     1     -11.742  14.787  69.232  1.00  0.00    -0.316 C  
BRANCH   7   8
HETATM    8  N   UNL     1     -10.894  13.646  68.973  1.00  0.00    -0.347 N  
HETATM    9  C   UNL     1     -10.004  13.647  67.927  1.00  0.00    -0.244 C  
HETATM   10  H   UNL     1     -10.957  12.826  69.576  1.00  0.00     0.000 HD 
HETATM   11  O   UNL     1      -9.875  14.616  67.181  1.00  0.00    -0.231 OA 
BRANCH   9  12
HETATM   12  C   UNL     1      -9.194  12.435  67.782  1.00  0.00    -0.193 A  
HETATM   13  C   UNL     1      -7.934  12.161  68.304  1.00  0.00    -0.163 A  
HETATM   14  C   UNL     1      -7.002  12.933  69.173  1.00  0.00    -0.015 C  
HETATM   15  N   UNL     1      -7.592  10.880  67.927  1.00  0.00    -0.093 NA 
HETATM   16  H   UNL     1      -6.705  10.428  68.150  1.00  0.00     0.000 HD 
HETATM   17  C   UNL     1      -8.603  10.295  67.214  1.00  0.00    -0.125 A  
HETATM   18  C   UNL     1      -9.619  11.235  67.102  1.00  0.00    -0.194 A  
HETATM   19  C   UNL     1     -10.935  11.063  66.411  1.00  0.00    -0.202 C  
BRANCH  17  20
HETATM   20  C   UNL     1      -8.540   8.963  66.729  1.00  0.00    -0.122 C  
HETATM   21  C   UNL     1      -8.300   8.494  65.498  1.00  0.00    -0.163 C  
HETATM   22  C   UNL     1      -8.023   9.189  64.189  1.00  0.00    -0.140 C  
HETATM   23  N   UNL     1      -7.863   8.165  63.262  1.00  0.00    -0.143 N  
HETATM   24  O   UNL     1      -7.956  10.382  63.975  1.00  0.00    -0.147 OA 
HETATM   25  C   UNL     1      -8.009   6.913  63.851  1.00  0.00    -0.064 A  
HETATM   26  H   UNL     1      -7.663   8.314  62.273  1.00  0.00     0.000 HD 
HETATM   27  C   UNL     1      -8.275   7.047  65.216  1.00  0.00    -0.128 A  
HETATM   28  C   UNL     1      -8.453   5.929  66.013  1.00  0.00    -0.137 A  
HETATM   29  C   UNL     1      -8.364   4.681  65.403  1.00  0.00    -0.119 A  
HETATM   30  F   UNL     1      -8.535   3.580  66.146  1.00  0.00    -0.104 F  
HETATM   31  C   UNL     1      -8.102   4.547  64.033  1.00  0.00    -0.098 A  
HETATM   32  C   UNL     1      -7.918   5.679  63.233  1.00  0.00    -0.101 A  
ENDBRANCH  17  20
ENDBRANCH   9  12
ENDBRANCH   7   8
ENDBRANCH   6   7
ENDBRANCH   3   6
ENDBRANCH   2   3
TORSDOF 7
ENDMDL
MODEL      155
REMARK 921   NORMALIZED FREE ENERGY PREDICTED BY IDOCK:   -4.33 KCAL/MOL
REMARK 922        TOTAL FREE ENERGY PREDICTED BY IDOCK:   -7.18 KCAL/MOL
REMARK 923 INTER-LIGAND FREE ENERGY PREDICTED BY IDOCK:   -6.30 KCAL/MOL
REMARK 924 INTRA-LIGAND FREE ENERGY PREDICTED BY IDOCK:   -0.89 KCAL/MOL
REMARK 927      BINDING AFFINITY PREDICTED BY RF-SCORE:    0.00 PKD
ROOT
HETATM    1  C   UNL     1      -9.770   3.509  70.223  1.00  0.00    -0.165 C  
HETATM    2  C   UNL     1      -9.807   4.850  70.952  1.00  0.00    -0.207 C  
ENDROOT
BRANCH   2   3
HETATM    3  N   UNL     1     -11.156   5.374  71.221  1.00  0.00    -0.070 NA 
BRANCH   3   4
HETATM    4  C   UNL     1     -11.386   5.726  72.637  1.00  0.00    -0.300 C  
HETATM    5  C   UNL     1     -10.689   4.851  73.681  1.00  0.00    -0.352 C  
ENDBRANCH   3   4
BRANCH   3   6
HETATM    6  C   UNL     1     -11.478   6.522  70.339  1.00  0.00    -0.404 C  
BRANCH   6   7
HETATM    7  C   UNL     1     -11.116   6.349  68.853  1.00  0.00    -0.348 C  
BRANCH   7   8
HETATM    8  N   UNL     1     -10.574   7.558  68.275  1.00  0.00    -0.334 N  
HETATM    9  C   UNL     1      -9.220   7.783  68.246  1.00  0.00    -0.139 C  
HETATM   10  H   UNL     1     -11.207   8.255  67.883  1.00  0.00     0.000 HD 
HETATM   11  O   UNL     1      -8.413   6.968  68.688  1.00  0.00    -0.121 OA 
BRANCH   9  12
HETATM   12  C   UNL     1      -8.800   9.040  67.621  1.00  0.00    -0.127 A  
HETATM   13  C   UNL     1      -8.231   9.242  66.367  1.00  0.00    -0.111 A  
HETATM   14  C   UNL     1      -7.880   8.323  65.248  1.00  0.00    -0.120 C  
HETATM   15  N   UNL     1      -8.039  10.598  66.207  1.00  0.00    -0.146 NA 
HETATM   16  H   UNL     1      -7.609  11.029  65.388  1.00  0.00     0.000 HD 
HETATM   17  C   UNL     1      -8.501  11.289  67.293  1.00  0.00    -0.144 A  
HETATM   18  C   UNL     1      -8.983  10.350  68.197  1.00  0.00    -0.132 A  
HETATM   19  C   UNL     1      -9.594  10.619  69.537  1.00  0.00    -0.060 C  
BRANCH  17  20
HETATM   20  C   UNL     1      -8.465  12.704  67.385  1.00  0.00    -0.186 C  
HETATM   21  C   UNL     1      -9.331  13.628  66.949  1.00  0.00    -0.261 C  
HETATM   22  C   UNL     1     -10.637  13.516  66.204  1.00  0.00    -0.290 C  
HETATM   23  N   UNL     1     -11.067  14.826  66.028  1.00  0.00    -0.327 N  
HETATM   24  O   UNL     1     -11.200  12.508  65.828  1.00  0.00    -0.296 OA 
HETATM   25  C   UNL     1     -10.174  15.738  66.583  1.00  0.00    -0.285 A  
HETATM   26  H   UNL     1     -11.931  15.087  65.552  1.00  0.00     0.000 HD 
HETATM   27  C   UNL     1      -9.094  15.067  67.163  1.00  0.00    -0.229 A  
HETATM   28  C   UNL     1      -8.077  15.773  67.783  1.00  0.00    -0.156 A  
HETATM   29  C   UNL     1      -8.171  17.161  67.799  1.00  0.00    -0.197 A  
HETATM   30  F   UNL     1      -7.201  17.872  68.389  1.00  0.00    -0.217 F  
HETATM   31  C   UNL     1      -9.252  17.833  67.213  1.00  0.00    -0.253 A  
HETATM   32  C   UNL     1     -10.279  17.116  66.592  1.00  0.00    -0.319 A  
ENDBRANCH  17  20
ENDBRANCH   9  12
ENDBRANCH   7   8
ENDBRANCH   6   7
ENDBRANCH   3   6
ENDBRANCH   2   3
TORSDOF 7
ENDMDL
MODEL      156
REMARK 921   NORMALIZED FREE ENERGY PREDICTED BY IDOCK:   -4.29 KCAL/MOL
REMARK 922        TOTAL FREE ENERGY PREDICTED BY IDOCK:   -7.13 KCAL/MOL
REMARK 923 INTER-LIGAND FREE ENERGY PREDICTED BY IDOCK:   -5.89 KCAL/MOL
REMARK 924 INTRA-LIGAND FREE ENERGY PREDICTED BY IDOCK:   -1.24 KCAL/MOL
REMARK 927      BINDING AFFINITY PREDICTED BY RF-SCORE:    0.00 PKD
ROOT
HETATM    1  C   UNL     1      -7.691  14.792  68.960  1.00  0.00    -0.145 C  
HETATM    2  C   UNL     1      -8.978  15.172  69.686  1.00  0.00    -0.053 C  
ENDROOT
BRANCH   2   3
HETATM    3  N   UNL     1      -9.763  16.238  69.042  1.00  0.00    -0.242 NA 
BRANCH   3   4
HETATM    4  C   UNL     1      -9.129  16.796  67.830  1.00  0.00    -0.224 C  
HETATM    5  C   UNL     1      -8.627  18.237  67.922  1.00  0.00    -0.267 C  
ENDBRANCH   3   4
BRANCH   3   6
HETATM    6  C   UNL     1     -11.147  15.791  68.749  1.00  0.00    -0.321 C  
BRANCH   6   7
HETATM    7  C   UNL     1     -11.495  15.617  67.259  1.00  0.00    -0.037 C  
BRANCH   7   8
HETATM    8  N   UNL     1     -11.369  14.246  66.822  1.00  0.00    -0.335 N  
HETATM    9  C   UNL     1     -10.760  13.936  65.631  1.00  0.00    -0.290 C  
HETATM   10  H   UNL     1     -11.738  13.496  67.406  1.00  0.00     0.000 HD 
HETATM   11  O   UNL     1     -10.283  14.799  64.897  1.00  0.00    -0.388 OA 
BRANCH   9  12
HETATM   12  C   UNL     1     -10.684  12.508  65.310  1.00  0.00    -0.318 A  
HETATM   13  C   UNL     1     -11.391  11.792  64.349  1.00  0.00    -0.301 A  
HETATM   14  C   UNL     1     -12.407  12.181  63.332  1.00  0.00    -0.648 C  
HETATM   15  N   UNL     1     -10.956  10.484  64.395  1.00  0.00     0.103 NA 
HETATM   16  H   UNL     1     -11.326   9.730  63.816  1.00  0.00     0.000 HD 
HETATM   17  C   UNL     1      -9.961  10.333  65.323  1.00  0.00    -0.317 A  
HETATM   18  C   UNL     1      -9.765  11.574  65.914  1.00  0.00    -0.260 A  
HETATM   19  C   UNL     1      -8.778  11.916  66.987  1.00  0.00    -0.181 C  
BRANCH  17  20
HETATM   20  C   UNL     1      -9.302   9.099  65.558  1.00  0.00    -0.287 C  
HETATM   21  C   UNL     1      -9.319   8.291  66.627  1.00  0.00    -0.246 C  
HETATM   22  C   UNL     1     -10.023   8.391  67.956  1.00  0.00    -0.182 C  
HETATM   23  N   UNL     1      -9.645   7.248  68.653  1.00  0.00    -0.141 N  
HETATM   24  O   UNL     1     -10.760   9.273  68.349  1.00  0.00    -0.211 OA 
HETATM   25  C   UNL     1      -8.786   6.451  67.902  1.00  0.00    -0.113 A  
HETATM   26  H   UNL     1      -9.959   7.022  69.597  1.00  0.00     0.000 HD 
HETATM   27  C   UNL     1      -8.551   7.033  66.653  1.00  0.00    -0.124 A  
HETATM   28  C   UNL     1      -7.727   6.412  65.730  1.00  0.00    -0.092 A  
HETATM   29  C   UNL     1      -7.144   5.203  66.096  1.00  0.00    -0.072 A  
HETATM   30  F   UNL     1      -6.339   4.580  65.226  1.00  0.00    -0.031 F  
HETATM   31  C   UNL     1      -7.376   4.622  67.350  1.00  0.00    -0.074 A  
HETATM   32  C   UNL     1      -8.214   5.250  68.277  1.00  0.00    -0.094 A  
ENDBRANCH  17  20
ENDBRANCH   9  12
ENDBRANCH   7   8
ENDBRANCH   6   7
ENDBRANCH   3   6
ENDBRANCH   2   3
TORSDOF 7
ENDMDL
MODEL      157
REMARK 921   NORMALIZED FREE ENERGY PREDICTED BY IDOCK:   -4.24 KCAL/MOL
REMARK 922        TOTAL FREE ENERGY PREDICTED BY IDOCK:   -7.06 KCAL/MOL
REMARK 923 INTER-LIGAND FREE ENERGY PREDICTED BY IDOCK:   -6.06 KCAL/MOL
REMARK 924 INTRA-LIGAND FREE ENERGY PREDICTED BY IDOCK:   -1.00 KCAL/MOL
REMARK 927      BINDING AFFINITY PREDICTED BY RF-SCORE:    0.00 PKD
ROOT
HETATM    1  C   UNL     1      -7.788   2.641  67.260  1.00  0.00    -0.069 C  
HETATM    2  C   UNL     1      -8.092   2.694  68.754  1.00  0.00    -0.052 C  
ENDROOT
BRANCH   2   3
HETATM    3  N   UNL     1      -9.040   3.746  69.158  1.00  0.00    -0.123 NA 
BRANCH   3   4
HETATM    4  C   UNL     1      -9.041   4.021  70.609  1.00  0.00    -0.111 C  
HETATM    5  C   UNL     1      -7.674   4.190  71.275  1.00  0.00    -0.070 C  
ENDBRANCH   3   4
BRANCH   3   6
HETATM    6  C   UNL     1      -8.823   4.996  68.390  1.00  0.00    -0.102 C  
BRANCH   6   7
HETATM    7  C   UNL     1      -9.814   6.140  68.675  1.00  0.00    -0.138 C  
BRANCH   7   8
HETATM    8  N   UNL     1      -9.298   7.428  68.271  1.00  0.00    -0.140 N  
HETATM    9  C   UNL     1      -9.739   8.039  67.124  1.00  0.00    -0.195 C  
HETATM   10  H   UNL     1      -8.595   7.890  68.847  1.00  0.00     0.000 HD 
HETATM   11  O   UNL     1     -10.598   7.534  66.404  1.00  0.00    -0.022 OA 
BRANCH   9  12
HETATM   12  C   UNL     1      -9.147   9.348  66.835  1.00  0.00    -0.160 A  
HETATM   13  C   UNL     1      -8.031   9.648  66.061  1.00  0.00    -0.108 A  
HETATM   14  C   UNL     1      -7.090   8.812  65.265  1.00  0.00    -0.083 C  
HETATM   15  N   UNL     1      -7.880  11.018  66.054  1.00  0.00    -0.299 NA 
HETATM   16  H   UNL     1      -7.123  11.515  65.584  1.00  0.00     0.000 HD 
HETATM   17  C   UNL     1      -8.884  11.624  66.760  1.00  0.00    -0.184 A  
HETATM   18  C   UNL     1      -9.694  10.613  67.263  1.00  0.00    -0.195 A  
HETATM   19  C   UNL     1     -10.924  10.776  68.099  1.00  0.00    -0.308 C  
BRANCH  17  20
HETATM   20  C   UNL     1      -9.001  13.032  66.889  1.00  0.00    -0.210 C  
HETATM   21  C   UNL     1      -9.707  13.917  66.173  1.00  0.00    -0.289 C  
HETATM   22  C   UNL     1     -10.616  13.756  64.981  1.00  0.00    -0.389 C  
HETATM   23  N   UNL     1     -11.052  15.042  64.682  1.00  0.00    -0.605 N  
HETATM   24  O   UNL     1     -10.909  12.733  64.396  1.00  0.00    -0.323 OA 
HETATM   25  C   UNL     1     -10.515  15.982  65.557  1.00  0.00    -0.405 A  
HETATM   26  H   UNL     1     -11.686  15.268  63.916  1.00  0.00     0.000 HD 
HETATM   27  C   UNL     1      -9.688  15.356  66.493  1.00  0.00    -0.292 A  
HETATM   28  C   UNL     1      -9.046  16.095  67.472  1.00  0.00    -0.207 A  
HETATM   29  C   UNL     1      -9.252  17.471  67.480  1.00  0.00    -0.242 A  
HETATM   30  F   UNL     1      -8.642  18.214  68.412  1.00  0.00    -0.267 F  
HETATM   31  C   UNL     1     -10.078  18.099  66.538  1.00  0.00    -0.389 A  
HETATM   32  C   UNL     1     -10.728  17.347  65.554  1.00  0.00    -0.081 A  
ENDBRANCH  17  20
ENDBRANCH   9  12
ENDBRANCH   7   8
ENDBRANCH   6   7
ENDBRANCH   3   6
ENDBRANCH   2   3
TORSDOF 7
ENDMDL
MODEL      158
REMARK 921   NORMALIZED FREE ENERGY PREDICTED BY IDOCK:   -4.23 KCAL/MOL
REMARK 922        TOTAL FREE ENERGY PREDICTED BY IDOCK:   -7.05 KCAL/MOL
REMARK 923 INTER-LIGAND FREE ENERGY PREDICTED BY IDOCK:   -6.42 KCAL/MOL
REMARK 924 INTRA-LIGAND FREE ENERGY PREDICTED BY IDOCK:   -0.64 KCAL/MOL
REMARK 927      BINDING AFFINITY PREDICTED BY RF-SCORE:    0.00 PKD
ROOT
HETATM    1  C   UNL     1      -8.692   8.750  71.783  1.00  0.00    -0.223 C  
HETATM    2  C   UNL     1      -9.484   7.453  71.648  1.00  0.00    -0.150 C  
ENDROOT
BRANCH   2   3
HETATM    3  N   UNL     1      -8.801   6.383  70.901  1.00  0.00    -0.136 NA 
BRANCH   3   4
HETATM    4  C   UNL     1      -7.424   6.119  71.364  1.00  0.00    -0.093 C  
HETATM    5  C   UNL     1      -6.758   4.845  70.842  1.00  0.00    -0.035 C  
ENDBRANCH   3   4
BRANCH   3   6
HETATM    6  C   UNL     1      -9.598   5.132  70.895  1.00  0.00    -0.175 C  
BRANCH   6   7
HETATM    7  C   UNL     1     -10.137   4.686  69.523  1.00  0.00    -0.142 C  
BRANCH   7   8
HETATM    8  N   UNL     1     -10.051   5.733  68.531  1.00  0.00    -0.164 N  
HETATM    9  C   UNL     1      -9.004   5.783  67.644  1.00  0.00    -0.107 C  
HETATM   10  H   UNL     1     -10.778   6.447  68.489  1.00  0.00     0.000 HD 
HETATM   11  O   UNL     1      -8.111   4.939  67.640  1.00  0.00    -0.094 OA 
BRANCH   9  12
HETATM   12  C   UNL     1      -9.042   6.887  66.681  1.00  0.00    -0.172 A  
HETATM   13  C   UNL     1      -8.558   6.922  65.376  1.00  0.00    -0.043 A  
HETATM   14  C   UNL     1      -7.887   5.912  64.512  1.00  0.00    -0.115 C  
HETATM   15  N   UNL     1      -8.853   8.163  64.853  1.00  0.00    -0.394 NA 
HETATM   16  H   UNL     1      -8.588   8.474  63.918  1.00  0.00     0.000 HD 
HETATM   17  C   UNL     1      -9.548   8.921  65.755  1.00  0.00    -0.174 A  
HETATM   18  C   UNL     1      -9.684   8.159  66.908  1.00  0.00    -0.291 A  
HETATM   19  C   UNL     1     -10.375   8.556  68.175  1.00  0.00    -0.258 C  
BRANCH  17  20
HETATM   20  C   UNL     1     -10.014  10.231  65.471  1.00  0.00    -0.364 C  
HETATM   21  C   UNL     1      -9.596  11.422  65.920  1.00  0.00    -0.254 C  
HETATM   22  C   UNL     1      -8.503  11.810  66.883  1.00  0.00    -0.174 C  
HETATM   23  N   UNL     1      -8.559  13.197  66.954  1.00  0.00    -0.381 N  
HETATM   24  O   UNL     1      -7.736  11.080  67.479  1.00  0.00    -0.109 OA 
HETATM   25  C   UNL     1      -9.563  13.712  66.140  1.00  0.00    -0.209 A  
HETATM   26  H   UNL     1      -7.939  13.768  67.530  1.00  0.00     0.000 HD 
HETATM   27  C   UNL     1     -10.231  12.677  65.480  1.00  0.00    -0.298 A  
HETATM   28  C   UNL     1     -11.271  12.952  64.608  1.00  0.00    -0.353 A  
HETATM   29  C   UNL     1     -11.623  14.285  64.424  1.00  0.00    -0.344 A  
HETATM   30  F   UNL     1     -12.628  14.583  63.590  1.00  0.00    -0.389 F  
HETATM   31  C   UNL     1     -10.956  15.323  65.090  1.00  0.00    -0.428 A  
HETATM   32  C   UNL     1      -9.903  15.040  65.965  1.00  0.00    -0.347 A  
ENDBRANCH  17  20
ENDBRANCH   9  12
ENDBRANCH   7   8
ENDBRANCH   6   7
ENDBRANCH   3   6
ENDBRANCH   2   3
TORSDOF 7
ENDMDL
MODEL      159
REMARK 921   NORMALIZED FREE ENERGY PREDICTED BY IDOCK:   -4.23 KCAL/MOL
REMARK 922        TOTAL FREE ENERGY PREDICTED BY IDOCK:   -7.05 KCAL/MOL
REMARK 923 INTER-LIGAND FREE ENERGY PREDICTED BY IDOCK:   -7.08 KCAL/MOL
REMARK 924 INTRA-LIGAND FREE ENERGY PREDICTED BY IDOCK:    0.03 KCAL/MOL
REMARK 927      BINDING AFFINITY PREDICTED BY RF-SCORE:    0.00 PKD
ROOT
HETATM    1  C   UNL     1      -9.395  10.498  63.395  1.00  0.00    -0.335 C  
HETATM    2  C   UNL     1      -9.783  11.133  64.728  1.00  0.00    -0.257 C  
ENDROOT
BRANCH   2   3
HETATM    3  N   UNL     1     -10.331  12.496  64.631  1.00  0.00    -0.310 NA 
BRANCH   3   4
HETATM    4  C   UNL     1     -11.313  12.667  63.541  1.00  0.00    -0.463 C  
HETATM    5  C   UNL     1     -12.666  11.979  63.725  1.00  0.00    -0.516 C  
ENDBRANCH   3   4
BRANCH   3   6
HETATM    6  C   UNL     1     -10.903  12.944  65.924  1.00  0.00    -0.272 C  
BRANCH   6   7
HETATM    7  C   UNL     1      -9.899  13.122  67.077  1.00  0.00    -0.244 C  
BRANCH   7   8
HETATM    8  N   UNL     1      -9.990  12.062  68.055  1.00  0.00    -0.191 N  
HETATM    9  C   UNL     1     -11.139  11.323  68.193  1.00  0.00    -0.259 C  
HETATM   10  H   UNL     1      -9.189  11.859  68.652  1.00  0.00     0.000 HD 
HETATM   11  O   UNL     1     -12.127  11.514  67.487  1.00  0.00    -0.614 OA 
BRANCH   9  12
HETATM   12  C   UNL     1     -11.097  10.270  69.211  1.00  0.00    -0.293 A  
HETATM   13  C   UNL     1     -11.684  10.252  70.472  1.00  0.00    -0.331 A  
HETATM   14  C   UNL     1     -12.542  11.220  71.209  1.00  0.00    -0.487 C  
HETATM   15  N   UNL     1     -11.396   9.034  71.052  1.00  0.00    -0.278 NA 
HETATM   16  H   UNL     1     -11.680   8.760  71.993  1.00  0.00     0.000 HD 
HETATM   17  C   UNL     1     -10.679   8.243  70.197  1.00  0.00    -0.239 A  
HETATM   18  C   UNL     1     -10.472   8.980  69.038  1.00  0.00    -0.235 A  
HETATM   19  C   UNL     1      -9.740   8.541  67.808  1.00  0.00    -0.199 C  
BRANCH  17  20
HETATM   20  C   UNL     1     -10.275   6.921  70.517  1.00  0.00    -0.209 C  
HETATM   21  C   UNL     1      -9.160   6.468  71.104  1.00  0.00    -0.152 C  
HETATM   22  C   UNL     1      -7.934   7.176  71.624  1.00  0.00    -0.097 C  
HETATM   23  N   UNL     1      -7.115   6.166  72.116  1.00  0.00    -0.082 N  
HETATM   24  O   UNL     1      -7.698   8.367  71.618  1.00  0.00    -0.095 OA 
HETATM   25  C   UNL     1      -7.697   4.912  71.960  1.00  0.00    -0.100 A  
HETATM   26  H   UNL     1      -6.200   6.325  72.539  1.00  0.00     0.000 HD 
HETATM   27  C   UNL     1      -8.948   5.030  71.350  1.00  0.00    -0.159 A  
HETATM   28  C   UNL     1      -9.718   3.908  71.097  1.00  0.00    -0.248 A  
HETATM   29  C   UNL     1      -9.197   2.671  71.465  1.00  0.00    -0.114 A  
HETATM   30  F   UNL     1      -9.916   1.566  71.230  1.00  0.00    -0.196 F  
HETATM   31  C   UNL     1      -7.940   2.552  72.072  1.00  0.00    -0.053 A  
HETATM   32  C   UNL     1      -7.168   3.689  72.330  1.00  0.00    -0.048 A  
ENDBRANCH  17  20
ENDBRANCH   9  12
ENDBRANCH   7   8
ENDBRANCH   6   7
ENDBRANCH   3   6
ENDBRANCH   2   3
TORSDOF 7
ENDMDL
MODEL      160
REMARK 921   NORMALIZED FREE ENERGY PREDICTED BY IDOCK:   -4.23 KCAL/MOL
REMARK 922        TOTAL FREE ENERGY PREDICTED BY IDOCK:   -7.05 KCAL/MOL
REMARK 923 INTER-LIGAND FREE ENERGY PREDICTED BY IDOCK:   -5.83 KCAL/MOL
REMARK 924 INTRA-LIGAND FREE ENERGY PREDICTED BY IDOCK:   -1.21 KCAL/MOL
REMARK 927      BINDING AFFINITY PREDICTED BY RF-SCORE:    0.00 PKD
ROOT
HETATM    1  C   UNL     1      -9.911  10.140  65.069  1.00  0.00    -0.392 C  
HETATM    2  C   UNL     1     -10.031   9.438  66.419  1.00  0.00    -0.276 C  
ENDROOT
BRANCH   2   3
HETATM    3  N   UNL     1      -9.037   8.379  66.659  1.00  0.00    -0.154 NA 
BRANCH   3   4
HETATM    4  C   UNL     1      -9.502   7.029  66.281  1.00  0.00    -0.072 C  
HETATM    5  C   UNL     1      -8.909   5.857  67.064  1.00  0.00    -0.112 C  
ENDBRANCH   3   4
BRANCH   3   6
HETATM    6  C   UNL     1      -7.744   8.688  66.001  1.00  0.00    -0.100 C  
BRANCH   6   7
HETATM    7  C   UNL     1      -6.567   8.997  66.944  1.00  0.00    -0.064 C  
BRANCH   7   8
HETATM    8  N   UNL     1      -6.589  10.360  67.423  1.00  0.00    -0.066 N  
HETATM    9  C   UNL     1      -7.168  10.679  68.626  1.00  0.00    -0.090 C  
HETATM   10  H   UNL     1      -6.168  11.098  66.858  1.00  0.00     0.000 HD 
HETATM   11  O   UNL     1      -7.672   9.827  69.354  1.00  0.00    -0.088 OA 
BRANCH   9  12
HETATM   12  C   UNL     1      -7.111  12.094  69.002  1.00  0.00    -0.062 A  
HETATM   13  C   UNL     1      -6.254  12.724  69.899  1.00  0.00    -0.084 A  
HETATM   14  C   UNL     1      -5.127  12.238  70.743  1.00  0.00    -0.135 C  
HETATM   15  N   UNL     1      -6.558  14.069  69.897  1.00  0.00    -0.304 NA 
HETATM   16  H   UNL     1      -6.102  14.767  70.485  1.00  0.00     0.000 HD 
HETATM   17  C   UNL     1      -7.553  14.343  68.998  1.00  0.00    -0.106 A  
HETATM   18  C   UNL     1      -7.924  13.135  68.422  1.00  0.00    -0.130 A  
HETATM   19  C   UNL     1      -8.974  12.920  67.376  1.00  0.00    -0.199 C  
BRANCH  17  20
HETATM   20  C   UNL     1      -8.042  15.653  68.759  1.00  0.00    -0.169 C  
HETATM   21  C   UNL     1      -7.546  16.645  68.008  1.00  0.00    -0.171 C  
HETATM   22  C   UNL     1      -6.303  16.745  67.161  1.00  0.00    -0.188 C  
HETATM   23  N   UNL     1      -6.328  18.030  66.630  1.00  0.00    -0.180 N  
HETATM   24  O   UNL     1      -5.453  15.898  66.976  1.00  0.00    -0.332 OA 
HETATM   25  C   UNL     1      -7.450  18.737  67.053  1.00  0.00    -0.219 A  
HETATM   26  H   UNL     1      -5.614  18.408  66.007  1.00  0.00     0.000 HD 
HETATM   27  C   UNL     1      -8.234  17.944  67.895  1.00  0.00    -0.246 A  
HETATM   28  C   UNL     1      -9.409  18.438  68.436  1.00  0.00    -0.347 A  
HETATM   29  C   UNL     1      -9.768  19.744  68.116  1.00  0.00    -0.398 A  
HETATM   30  F   UNL     1     -10.897  20.251  68.627  1.00  0.00    -0.376 F  
HETATM   31  C   UNL     1      -8.979  20.540  67.275  1.00  0.00    -0.431 A  
HETATM   32  C   UNL     1      -7.796  20.035  66.727  1.00  0.00    -0.341 A  
ENDBRANCH  17  20
ENDBRANCH   9  12
ENDBRANCH   7   8
ENDBRANCH   6   7
ENDBRANCH   3   6
ENDBRANCH   2   3
TORSDOF 7
ENDMDL
MODEL      161
REMARK 921   NORMALIZED FREE ENERGY PREDICTED BY IDOCK:   -4.22 KCAL/MOL
REMARK 922        TOTAL FREE ENERGY PREDICTED BY IDOCK:   -7.04 KCAL/MOL
REMARK 923 INTER-LIGAND FREE ENERGY PREDICTED BY IDOCK:   -5.79 KCAL/MOL
REMARK 924 INTRA-LIGAND FREE ENERGY PREDICTED BY IDOCK:   -1.25 KCAL/MOL
REMARK 927      BINDING AFFINITY PREDICTED BY RF-SCORE:    0.00 PKD
ROOT
HETATM    1  C   UNL     1     -11.960  13.012  68.279  1.00  0.00    -0.306 C  
HETATM    2  C   UNL     1     -12.125  14.235  67.383  1.00  0.00    -0.336 C  
ENDROOT
BRANCH   2   3
HETATM    3  N   UNL     1     -11.070  15.253  67.521  1.00  0.00    -0.320 NA 
BRANCH   3   4
HETATM    4  C   UNL     1     -11.387  16.309  68.504  1.00  0.00    -0.330 C  
HETATM    5  C   UNL     1     -10.212  17.148  69.009  1.00  0.00    -0.315 C  
ENDBRANCH   3   4
BRANCH   3   6
HETATM    6  C   UNL     1      -9.756  14.636  67.822  1.00  0.00    -0.215 C  
BRANCH   6   7
HETATM    7  C   UNL     1      -8.976  14.091  66.612  1.00  0.00    -0.154 C  
BRANCH   7   8
HETATM    8  N   UNL     1      -8.656  12.689  66.749  1.00  0.00    -0.375 N  
HETATM    9  C   UNL     1      -9.324  11.736  66.021  1.00  0.00    -0.220 C  
HETATM   10  H   UNL     1      -7.923  12.402  67.398  1.00  0.00     0.000 HD 
HETATM   11  O   UNL     1     -10.203  12.028  65.213  1.00  0.00    -0.257 OA 
BRANCH   9  12
HETATM   12  C   UNL     1      -8.895  10.352  66.243  1.00  0.00    -0.166 A  
HETATM   13  C   UNL     1      -7.815   9.675  65.686  1.00  0.00    -0.107 A  
HETATM   14  C   UNL     1      -6.740  10.077  64.737  1.00  0.00    -0.127 C  
HETATM   15  N   UNL     1      -7.795   8.404  66.222  1.00  0.00    -0.096 NA 
HETATM   16  H   UNL     1      -7.122   7.680  65.969  1.00  0.00     0.000 HD 
HETATM   17  C   UNL     1      -8.798   8.244  67.138  1.00  0.00    -0.137 A  
HETATM   18  C   UNL     1      -9.506   9.439  67.178  1.00  0.00    -0.185 A  
HETATM   19  C   UNL     1     -10.694   9.755  68.033  1.00  0.00    -0.298 C  
BRANCH  17  20
HETATM   20  C   UNL     1      -8.993   7.047  67.873  1.00  0.00    -0.122 C  
HETATM   21  C   UNL     1      -9.049   5.772  67.465  1.00  0.00    -0.106 C  
HETATM   22  C   UNL     1      -8.937   5.145  66.099  1.00  0.00    -0.135 C  
HETATM   23  N   UNL     1      -9.082   3.779  66.315  1.00  0.00    -0.140 N  
HETATM   24  O   UNL     1      -8.762   5.698  65.032  1.00  0.00    -0.141 OA 
HETATM   25  C   UNL     1      -9.270   3.490  67.664  1.00  0.00    -0.188 A  
HETATM   26  H   UNL     1      -9.054   3.075  65.577  1.00  0.00     0.000 HD 
HETATM   27  C   UNL     1      -9.257   4.667  68.418  1.00  0.00    -0.170 A  
HETATM   28  C   UNL     1      -9.421   4.625  69.792  1.00  0.00    -0.238 A  
HETATM   29  C   UNL     1      -9.604   3.379  70.382  1.00  0.00    -0.157 A  
HETATM   30  F   UNL     1      -9.769   3.306  71.709  1.00  0.00    -0.192 F  
HETATM   31  C   UNL     1      -9.622   2.200  69.625  1.00  0.00    -0.035 A  
HETATM   32  C   UNL     1      -9.451   2.246  68.238  1.00  0.00    -0.227 A  
ENDBRANCH  17  20
ENDBRANCH   9  12
ENDBRANCH   7   8
ENDBRANCH   6   7
ENDBRANCH   3   6
ENDBRANCH   2   3
TORSDOF 7
ENDMDL
MODEL      162
REMARK 921   NORMALIZED FREE ENERGY PREDICTED BY IDOCK:   -4.22 KCAL/MOL
REMARK 922        TOTAL FREE ENERGY PREDICTED BY IDOCK:   -7.03 KCAL/MOL
REMARK 923 INTER-LIGAND FREE ENERGY PREDICTED BY IDOCK:   -6.57 KCAL/MOL
REMARK 924 INTRA-LIGAND FREE ENERGY PREDICTED BY IDOCK:   -0.46 KCAL/MOL
REMARK 927      BINDING AFFINITY PREDICTED BY RF-SCORE:    0.00 PKD
ROOT
HETATM    1  C   UNL     1      -7.617   7.174  64.941  1.00  0.00    -0.103 C  
HETATM    2  C   UNL     1      -8.280   6.092  64.094  1.00  0.00    -0.053 C  
ENDROOT
BRANCH   2   3
HETATM    3  N   UNL     1      -8.979   5.045  64.858  1.00  0.00    -0.143 NA 
BRANCH   3   4
HETATM    4  C   UNL     1      -8.821   3.690  64.293  1.00  0.00    -0.106 C  
HETATM    5  C   UNL     1     -10.081   3.035  63.724  1.00  0.00    -0.173 C  
ENDBRANCH   3   4
BRANCH   3   6
HETATM    6  C   UNL     1      -8.586   5.063  66.288  1.00  0.00    -0.113 C  
BRANCH   6   7
HETATM    7  C   UNL     1      -9.701   4.733  67.296  1.00  0.00    -0.182 C  
BRANCH   7   8
HETATM    8  N   UNL     1     -10.296   5.919  67.867  1.00  0.00    -0.189 N  
HETATM    9  C   UNL     1      -9.810   6.466  69.029  1.00  0.00    -0.138 C  
HETATM   10  H   UNL     1     -11.090   6.358  67.400  1.00  0.00     0.000 HD 
HETATM   11  O   UNL     1      -8.846   5.988  69.622  1.00  0.00    -0.130 OA 
BRANCH   9  12
HETATM   12  C   UNL     1     -10.493   7.676  69.495  1.00  0.00    -0.227 A  
HETATM   13  C   UNL     1     -11.512   7.794  70.435  1.00  0.00    -0.158 A  
HETATM   14  C   UNL     1     -12.232   6.807  71.286  1.00  0.00    -0.415 C  
HETATM   15  N   UNL     1     -11.808   9.135  70.566  1.00  0.00    -0.451 NA 
HETATM   16  H   UNL     1     -12.540   9.509  71.171  1.00  0.00     0.000 HD 
HETATM   17  C   UNL     1     -10.989   9.895  69.778  1.00  0.00    -0.268 A  
HETATM   18  C   UNL     1     -10.155   9.020  69.093  1.00  0.00    -0.201 A  
HETATM   19  C   UNL     1      -9.083   9.377  68.112  1.00  0.00    -0.129 C  
BRANCH  17  20
HETATM   20  C   UNL     1     -11.045  11.313  69.741  1.00  0.00    -0.238 C  
HETATM   21  C   UNL     1     -11.147  12.154  68.704  1.00  0.00    -0.297 C  
HETATM   22  C   UNL     1     -11.228  11.919  67.217  1.00  0.00    -0.317 C  
HETATM   23  N   UNL     1     -11.312  13.187  66.654  1.00  0.00    -0.312 N  
HETATM   24  O   UNL     1     -11.219  10.858  66.625  1.00  0.00    -0.207 OA 
HETATM   25  C   UNL     1     -11.294  14.182  67.626  1.00  0.00    -0.319 A  
HETATM   26  H   UNL     1     -11.380  13.366  65.652  1.00  0.00     0.000 HD 
HETATM   27  C   UNL     1     -11.197  13.615  68.900  1.00  0.00    -0.309 A  
HETATM   28  C   UNL     1     -11.167  14.416  70.028  1.00  0.00    -0.193 A  
HETATM   29  C   UNL     1     -11.230  15.794  69.844  1.00  0.00    -0.334 A  
HETATM   30  F   UNL     1     -11.199  16.595  70.916  1.00  0.00    -0.371 F  
HETATM   31  C   UNL     1     -11.322  16.363  68.566  1.00  0.00    -0.289 A  
HETATM   32  C   UNL     1     -11.357  15.549  67.430  1.00  0.00    -0.203 A  
ENDBRANCH  17  20
ENDBRANCH   9  12
ENDBRANCH   7   8
ENDBRANCH   6   7
ENDBRANCH   3   6
ENDBRANCH   2   3
TORSDOF 7
ENDMDL
MODEL      163
REMARK 921   NORMALIZED FREE ENERGY PREDICTED BY IDOCK:   -4.20 KCAL/MOL
REMARK 922        TOTAL FREE ENERGY PREDICTED BY IDOCK:   -7.00 KCAL/MOL
REMARK 923 INTER-LIGAND FREE ENERGY PREDICTED BY IDOCK:   -6.05 KCAL/MOL
REMARK 924 INTRA-LIGAND FREE ENERGY PREDICTED BY IDOCK:   -0.95 KCAL/MOL
REMARK 927      BINDING AFFINITY PREDICTED BY RF-SCORE:    0.00 PKD
ROOT
HETATM    1  C   UNL     1     -11.249   6.906  72.730  1.00  0.00    -0.277 C  
HETATM    2  C   UNL     1     -10.484   6.132  71.661  1.00  0.00    -0.222 C  
ENDROOT
BRANCH   2   3
HETATM    3  N   UNL     1      -9.025   6.078  71.857  1.00  0.00    -0.138 NA 
BRANCH   3   4
HETATM    4  C   UNL     1      -8.609   5.247  73.004  1.00  0.00    -0.118 C  
HETATM    5  C   UNL     1      -9.413   3.970  73.251  1.00  0.00    -0.131 C  
ENDBRANCH   3   4
BRANCH   3   6
HETATM    6  C   UNL     1      -8.327   5.649  70.621  1.00  0.00    -0.118 C  
BRANCH   6   7
HETATM    7  C   UNL     1      -7.407   6.698  69.970  1.00  0.00    -0.089 C  
BRANCH   7   8
HETATM    8  N   UNL     1      -8.142   7.825  69.444  1.00  0.00    -0.124 N  
HETATM    9  C   UNL     1      -7.867   8.330  68.198  1.00  0.00    -0.118 C  
HETATM   10  H   UNL     1      -8.878   8.252  70.007  1.00  0.00     0.000 HD 
HETATM   11  O   UNL     1      -7.005   7.842  67.471  1.00  0.00    -0.071 OA 
BRANCH   9  12
HETATM   12  C   UNL     1      -8.694   9.465  67.777  1.00  0.00    -0.116 A  
HETATM   13  C   UNL     1      -9.961   9.454  67.202  1.00  0.00    -0.204 A  
HETATM   14  C   UNL     1     -10.907   8.362  66.844  1.00  0.00     0.019 C  
HETATM   15  N   UNL     1     -10.347  10.765  67.013  1.00  0.00    -0.217 NA 
HETATM   16  H   UNL     1     -11.225  11.053  66.580  1.00  0.00     0.000 HD 
HETATM   17  C   UNL     1      -9.394  11.627  67.482  1.00  0.00    -0.168 A  
HETATM   18  C   UNL     1      -8.347  10.853  67.966  1.00  0.00    -0.122 A  
HETATM   19  C   UNL     1      -7.075  11.342  68.584  1.00  0.00    -0.095 C  
BRANCH  17  20
HETATM   20  C   UNL     1      -9.542  13.038  67.450  1.00  0.00    -0.211 C  
HETATM   21  C   UNL     1      -9.946  13.850  66.464  1.00  0.00    -0.288 C  
HETATM   22  C   UNL     1     -10.377  13.578  65.046  1.00  0.00    -0.362 C  
HETATM   23  N   UNL     1     -10.673  14.827  64.511  1.00  0.00    -0.605 N  
HETATM   24  O   UNL     1     -10.451  12.507  64.478  1.00  0.00    -0.306 OA 
HETATM   25  C   UNL     1     -10.474  15.843  65.442  1.00  0.00    -0.405 A  
HETATM   26  H   UNL     1     -10.996  14.980  63.556  1.00  0.00     0.000 HD 
HETATM   27  C   UNL     1     -10.033  15.309  66.655  1.00  0.00    -0.264 A  
HETATM   28  C   UNL     1      -9.773  16.135  67.735  1.00  0.00    -0.229 A  
HETATM   29  C   UNL     1      -9.961  17.503  67.562  1.00  0.00    -0.315 A  
HETATM   30  F   UNL     1      -9.714  18.328  68.587  1.00  0.00    -0.302 F  
HETATM   31  C   UNL     1     -10.399  18.038  66.343  1.00  0.00    -0.382 A  
HETATM   32  C   UNL     1     -10.665  17.199  65.257  1.00  0.00    -0.067 A  
ENDBRANCH  17  20
ENDBRANCH   9  12
ENDBRANCH   7   8
ENDBRANCH   6   7
ENDBRANCH   3   6
ENDBRANCH   2   3
TORSDOF 7
ENDMDL
MODEL      164
REMARK 921   NORMALIZED FREE ENERGY PREDICTED BY IDOCK:   -4.19 KCAL/MOL
REMARK 922        TOTAL FREE ENERGY PREDICTED BY IDOCK:   -7.00 KCAL/MOL
REMARK 923 INTER-LIGAND FREE ENERGY PREDICTED BY IDOCK:   -6.77 KCAL/MOL
REMARK 924 INTRA-LIGAND FREE ENERGY PREDICTED BY IDOCK:   -0.22 KCAL/MOL
REMARK 927      BINDING AFFINITY PREDICTED BY RF-SCORE:    0.00 PKD
ROOT
HETATM    1  C   UNL     1     -13.025  13.685  65.610  1.00  0.00    -0.296 C  
HETATM    2  C   UNL     1     -12.397  14.028  66.958  1.00  0.00    -0.243 C  
ENDROOT
BRANCH   2   3
HETATM    3  N   UNL     1     -11.484  15.183  66.941  1.00  0.00    -0.273 NA 
BRANCH   3   4
HETATM    4  C   UNL     1     -10.694  15.336  68.180  1.00  0.00    -0.257 C  
HETATM    5  C   UNL     1     -11.434  15.094  69.497  1.00  0.00    -0.314 C  
ENDBRANCH   3   4
BRANCH   3   6
HETATM    6  C   UNL     1     -10.594  15.154  65.755  1.00  0.00    -0.351 C  
BRANCH   6   7
HETATM    7  C   UNL     1      -9.226  14.478  65.958  1.00  0.00    -0.063 C  
BRANCH   7   8
HETATM    8  N   UNL     1      -9.349  13.089  66.337  1.00  0.00    -0.386 N  
HETATM    9  C   UNL     1      -9.821  12.153  65.451  1.00  0.00    -0.211 C  
HETATM   10  H   UNL     1      -9.082  12.799  67.278  1.00  0.00     0.000 HD 
HETATM   11  O   UNL     1     -10.139  12.445  64.300  1.00  0.00    -0.315 OA 
BRANCH   9  12
HETATM   12  C   UNL     1      -9.885  10.778  65.954  1.00  0.00    -0.290 A  
HETATM   13  C   UNL     1      -9.516   9.598  65.316  1.00  0.00    -0.275 A  
HETATM   14  C   UNL     1      -8.933   9.304  63.978  1.00  0.00    -0.107 C  
HETATM   15  N   UNL     1      -9.726   8.560  66.199  1.00  0.00    -0.409 NA 
HETATM   16  H   UNL     1      -9.566   7.576  65.984  1.00  0.00     0.000 HD 
HETATM   17  C   UNL     1     -10.176   9.027  67.404  1.00  0.00    -0.245 A  
HETATM   18  C   UNL     1     -10.289  10.406  67.289  1.00  0.00    -0.278 A  
HETATM   19  C   UNL     1     -10.740  11.365  68.346  1.00  0.00    -0.237 C  
BRANCH  17  20
HETATM   20  C   UNL     1     -10.441   8.182  68.513  1.00  0.00    -0.199 C  
HETATM   21  C   UNL     1      -9.688   7.233  69.085  1.00  0.00    -0.160 C  
HETATM   22  C   UNL     1      -8.311   6.709  68.767  1.00  0.00    -0.120 C  
HETATM   23  N   UNL     1      -8.073   5.718  69.713  1.00  0.00    -0.102 N  
HETATM   24  O   UNL     1      -7.562   7.063  67.879  1.00  0.00    -0.105 OA 
HETATM   25  C   UNL     1      -9.150   5.571  70.583  1.00  0.00    -0.145 A  
HETATM   26  H   UNL     1      -7.216   5.168  69.764  1.00  0.00     0.000 HD 
HETATM   27  C   UNL     1     -10.167   6.471  70.252  1.00  0.00    -0.227 A  
HETATM   28  C   UNL     1     -11.340   6.510  70.987  1.00  0.00    -0.378 A  
HETATM   29  C   UNL     1     -11.464   5.622  72.051  1.00  0.00    -0.133 A  
HETATM   30  F   UNL     1     -12.589   5.633  72.779  1.00  0.00    -0.212 F  
HETATM   31  C   UNL     1     -10.446   4.717  72.379  1.00  0.00    -0.258 A  
HETATM   32  C   UNL     1      -9.261   4.685  71.637  1.00  0.00    -0.183 A  
ENDBRANCH  17  20
ENDBRANCH   9  12
ENDBRANCH   7   8
ENDBRANCH   6   7
ENDBRANCH   3   6
ENDBRANCH   2   3
TORSDOF 7
ENDMDL
MODEL      165
REMARK 921   NORMALIZED FREE ENERGY PREDICTED BY IDOCK:   -4.19 KCAL/MOL
REMARK 922        TOTAL FREE ENERGY PREDICTED BY IDOCK:   -6.99 KCAL/MOL
REMARK 923 INTER-LIGAND FREE ENERGY PREDICTED BY IDOCK:   -5.80 KCAL/MOL
REMARK 924 INTRA-LIGAND FREE ENERGY PREDICTED BY IDOCK:   -1.19 KCAL/MOL
REMARK 927      BINDING AFFINITY PREDICTED BY RF-SCORE:    0.00 PKD
ROOT
HETATM    1  C   UNL     1      -6.902   5.211  67.168  1.00  0.00    -0.060 C  
HETATM    2  C   UNL     1      -7.648   6.443  66.663  1.00  0.00    -0.094 C  
ENDROOT
BRANCH   2   3
HETATM    3  N   UNL     1      -8.304   7.245  67.709  1.00  0.00    -0.118 NA 
BRANCH   3   4
HETATM    4  C   UNL     1      -9.562   6.654  68.210  1.00  0.00    -0.125 C  
HETATM    5  C   UNL     1     -10.856   7.154  67.565  1.00  0.00    -0.311 C  
ENDBRANCH   3   4
BRANCH   3   6
HETATM    6  C   UNL     1      -7.379   7.533  68.832  1.00  0.00    -0.094 C  
BRANCH   6   7
HETATM    7  C   UNL     1      -6.633   8.877  68.760  1.00  0.00    -0.054 C  
BRANCH   7   8
HETATM    8  N   UNL     1      -7.466   9.942  68.251  1.00  0.00    -0.079 N  
HETATM    9  C   UNL     1      -7.198  10.534  67.041  1.00  0.00    -0.098 C  
HETATM   10  H   UNL     1      -8.266  10.260  68.798  1.00  0.00     0.000 HD 
HETATM   11  O   UNL     1      -6.259  10.177  66.333  1.00  0.00    -0.064 OA 
BRANCH   9  12
HETATM   12  C   UNL     1      -8.127  11.592  66.633  1.00  0.00    -0.139 A  
HETATM   13  C   UNL     1      -9.360  11.473  66.000  1.00  0.00    -0.223 A  
HETATM   14  C   UNL     1     -10.164  10.303  65.549  1.00  0.00    -0.308 C  
HETATM   15  N   UNL     1      -9.880  12.741  65.851  1.00  0.00    -0.319 NA 
HETATM   16  H   UNL     1     -10.765  12.954  65.392  1.00  0.00     0.000 HD 
HETATM   17  C   UNL     1      -9.049  13.678  66.403  1.00  0.00    -0.051 A  
HETATM   18  C   UNL     1      -7.944  12.998  66.900  1.00  0.00     0.092 A  
HETATM   19  C   UNL     1      -6.760  13.591  67.599  1.00  0.00    -0.176 C  
BRANCH  17  20
HETATM   20  C   UNL     1      -9.350  15.064  66.427  1.00  0.00    -0.334 C  
HETATM   21  C   UNL     1      -9.594  15.885  67.457  1.00  0.00    -0.221 C  
HETATM   22  C   UNL     1      -9.650  15.649  68.944  1.00  0.00    -0.224 C  
HETATM   23  N   UNL     1      -9.955  16.889  69.496  1.00  0.00    -0.093 N  
HETATM   24  O   UNL     1      -9.473  14.609  69.545  1.00  0.00     0.005 OA 
HETATM   25  C   UNL     1     -10.094  17.866  68.516  1.00  0.00    -0.391 A  
HETATM   26  H   UNL     1     -10.064  17.060  70.496  1.00  0.00     0.000 HD 
HETATM   27  C   UNL     1      -9.882  17.316  67.249  1.00  0.00    -0.267 A  
HETATM   28  C   UNL     1      -9.964  18.106  66.115  1.00  0.00    -0.301 A  
HETATM   29  C   UNL     1     -10.268  19.453  66.286  1.00  0.00    -0.478 A  
HETATM   30  F   UNL     1     -10.357  20.242  65.208  1.00  0.00    -0.478 F  
HETATM   31  C   UNL     1     -10.484  20.003  67.557  1.00  0.00    -0.487 A  
HETATM   32  C   UNL     1     -10.396  19.202  68.700  1.00  0.00    -0.311 A  
ENDBRANCH  17  20
ENDBRANCH   9  12
ENDBRANCH   7   8
ENDBRANCH   6   7
ENDBRANCH   3   6
ENDBRANCH   2   3
TORSDOF 7
ENDMDL
MODEL      166
REMARK 921   NORMALIZED FREE ENERGY PREDICTED BY IDOCK:   -4.14 KCAL/MOL
REMARK 922        TOTAL FREE ENERGY PREDICTED BY IDOCK:   -6.92 KCAL/MOL
REMARK 923 INTER-LIGAND FREE ENERGY PREDICTED BY IDOCK:   -6.71 KCAL/MOL
REMARK 924 INTRA-LIGAND FREE ENERGY PREDICTED BY IDOCK:   -0.22 KCAL/MOL
REMARK 927      BINDING AFFINITY PREDICTED BY RF-SCORE:    0.00 PKD
ROOT
HETATM    1  C   UNL     1     -11.229  15.102  71.388  1.00  0.00    -0.319 C  
HETATM    2  C   UNL     1     -12.038  15.739  70.262  1.00  0.00    -0.347 C  
ENDROOT
BRANCH   2   3
HETATM    3  N   UNL     1     -11.350  15.804  68.962  1.00  0.00    -0.329 NA 
BRANCH   3   4
HETATM    4  C   UNL     1     -10.053  16.509  69.010  1.00  0.00    -0.279 C  
HETATM    5  C   UNL     1     -10.078  18.009  68.712  1.00  0.00    -0.388 C  
ENDBRANCH   3   4
BRANCH   3   6
HETATM    6  C   UNL     1     -11.189  14.455  68.365  1.00  0.00    -0.273 C  
BRANCH   6   7
HETATM    7  C   UNL     1     -12.270  13.423  68.736  1.00  0.00    -0.115 C  
BRANCH   7   8
HETATM    8  N   UNL     1     -11.714  12.116  69.001  1.00  0.00    -0.306 N  
HETATM    9  C   UNL     1     -11.891  11.505  70.217  1.00  0.00    -0.342 C  
HETATM   10  H   UNL     1     -11.182  11.640  68.273  1.00  0.00     0.000 HD 
HETATM   11  O   UNL     1     -12.539  12.026  71.122  1.00  0.00    -0.367 OA 
BRANCH   9  12
HETATM   12  C   UNL     1     -11.290  10.175  70.352  1.00  0.00    -0.401 A  
HETATM   13  C   UNL     1     -10.190   9.644  69.685  1.00  0.00    -0.222 A  
HETATM   14  C   UNL     1      -9.253  10.196  68.667  1.00  0.00    -0.157 C  
HETATM   15  N   UNL     1      -9.979   8.371  70.170  1.00  0.00    -0.185 NA 
HETATM   16  H   UNL     1      -9.252   7.737  69.837  1.00  0.00     0.000 HD 
HETATM   17  C   UNL     1     -10.876   8.070  71.159  1.00  0.00    -0.238 A  
HETATM   18  C   UNL     1     -11.711   9.172  71.299  1.00  0.00    -0.396 A  
HETATM   19  C   UNL     1     -12.850   9.323  72.259  1.00  0.00    -0.459 C  
BRANCH  17  20
HETATM   20  C   UNL     1     -10.870   6.838  71.863  1.00  0.00    -0.261 C  
HETATM   21  C   UNL     1      -9.865   6.172  72.445  1.00  0.00    -0.179 C  
HETATM   22  C   UNL     1      -8.391   6.467  72.559  1.00  0.00    -0.114 C  
HETATM   23  N   UNL     1      -7.862   5.398  73.273  1.00  0.00    -0.103 N  
HETATM   24  O   UNL     1      -7.783   7.425  72.125  1.00  0.00    -0.086 OA 
HETATM   25  C   UNL     1      -8.844   4.473  73.615  1.00  0.00    -0.105 A  
HETATM   26  H   UNL     1      -6.876   5.303  73.517  1.00  0.00     0.000 HD 
HETATM   27  C   UNL     1     -10.090   4.891  73.139  1.00  0.00    -0.194 A  
HETATM   28  C   UNL     1     -11.223   4.128  73.366  1.00  0.00    -0.339 A  
HETATM   29  C   UNL     1     -11.070   2.940  74.073  1.00  0.00    -0.083 A  
HETATM   30  F   UNL     1     -12.147   2.178  74.305  1.00  0.00     0.109 F  
HETATM   31  C   UNL     1      -9.819   2.519  74.545  1.00  0.00    -0.146 A  
HETATM   32  C   UNL     1      -8.679   3.295  74.318  1.00  0.00    -0.084 A  
ENDBRANCH  17  20
ENDBRANCH   9  12
ENDBRANCH   7   8
ENDBRANCH   6   7
ENDBRANCH   3   6
ENDBRANCH   2   3
TORSDOF 7
ENDMDL
MODEL      167
REMARK 921   NORMALIZED FREE ENERGY PREDICTED BY IDOCK:   -4.13 KCAL/MOL
REMARK 922        TOTAL FREE ENERGY PREDICTED BY IDOCK:   -6.91 KCAL/MOL
REMARK 923 INTER-LIGAND FREE ENERGY PREDICTED BY IDOCK:   -5.83 KCAL/MOL
REMARK 924 INTRA-LIGAND FREE ENERGY PREDICTED BY IDOCK:   -1.08 KCAL/MOL
REMARK 927      BINDING AFFINITY PREDICTED BY RF-SCORE:    0.00 PKD
ROOT
HETATM    1  C   UNL     1      -9.647  18.145  69.158  1.00  0.00    -0.067 C  
HETATM    2  C   UNL     1      -9.883  17.299  67.911  1.00  0.00    -0.283 C  
ENDROOT
BRANCH   2   3
HETATM    3  N   UNL     1      -9.160  17.748  66.709  1.00  0.00    -0.255 NA 
BRANCH   3   4
HETATM    4  C   UNL     1      -8.241  18.877  66.955  1.00  0.00    -0.268 C  
HETATM    5  C   UNL     1      -7.067  19.028  65.985  1.00  0.00    -0.292 C  
ENDBRANCH   3   4
BRANCH   3   6
HETATM    6  C   UNL     1      -8.445  16.625  66.055  1.00  0.00    -0.163 C  
BRANCH   6   7
HETATM    7  C   UNL     1      -8.001  15.480  66.983  1.00  0.00    -0.233 C  
BRANCH   7   8
HETATM    8  N   UNL     1      -8.313  14.178  66.438  1.00  0.00    -0.159 N  
HETATM    9  C   UNL     1      -9.467  13.523  66.787  1.00  0.00    -0.269 C  
HETATM   10  H   UNL     1      -7.665  13.739  65.784  1.00  0.00     0.000 HD 
HETATM   11  O   UNL     1     -10.290  14.014  67.556  1.00  0.00    -0.242 OA 
BRANCH   9  12
HETATM   12  C   UNL     1      -9.671  12.217  66.154  1.00  0.00    -0.254 A  
HETATM   13  C   UNL     1     -10.345  11.915  64.975  1.00  0.00    -0.289 A  
HETATM   14  C   UNL     1     -11.047  12.751  63.961  1.00  0.00    -0.458 C  
HETATM   15  N   UNL     1     -10.242  10.556  64.768  1.00  0.00    -0.341 NA 
HETATM   16  H   UNL     1     -10.669  10.055  63.989  1.00  0.00     0.000 HD 
HETATM   17  C   UNL     1      -9.489   9.968  65.748  1.00  0.00    -0.214 A  
HETATM   18  C   UNL     1      -9.116  10.973  66.631  1.00  0.00    -0.177 A  
HETATM   19  C   UNL     1      -8.282  10.825  67.865  1.00  0.00    -0.113 C  
BRANCH  17  20
HETATM   20  C   UNL     1      -9.188   8.582  65.768  1.00  0.00    -0.210 C  
HETATM   21  C   UNL     1      -9.613   7.609  66.584  1.00  0.00    -0.271 C  
HETATM   22  C   UNL     1     -10.545   7.621  67.769  1.00  0.00    -0.196 C  
HETATM   23  N   UNL     1     -10.590   6.303  68.208  1.00  0.00    -0.229 N  
HETATM   24  O   UNL     1     -11.133   8.569  68.249  1.00  0.00     0.119 OA 
HETATM   25  C   UNL     1      -9.790   5.475  67.426  1.00  0.00    -0.148 A  
HETATM   26  H   UNL     1     -11.141   5.982  69.005  1.00  0.00     0.000 HD 
HETATM   27  C   UNL     1      -9.169   6.213  66.415  1.00  0.00    -0.166 A  
HETATM   28  C   UNL     1      -8.326   5.596  65.508  1.00  0.00    -0.139 A  
HETATM   29  C   UNL     1      -8.120   4.227  65.646  1.00  0.00    -0.105 A  
HETATM   30  F   UNL     1      -7.306   3.601  64.785  1.00  0.00    -0.062 F  
HETATM   31  C   UNL     1      -8.739   3.487  66.663  1.00  0.00    -0.126 A  
HETATM   32  C   UNL     1      -9.594   4.114  67.574  1.00  0.00    -0.219 A  
ENDBRANCH  17  20
ENDBRANCH   9  12
ENDBRANCH   7   8
ENDBRANCH   6   7
ENDBRANCH   3   6
ENDBRANCH   2   3
TORSDOF 7
ENDMDL
MODEL      168
REMARK 921   NORMALIZED FREE ENERGY PREDICTED BY IDOCK:   -4.13 KCAL/MOL
REMARK 922        TOTAL FREE ENERGY PREDICTED BY IDOCK:   -6.90 KCAL/MOL
REMARK 923 INTER-LIGAND FREE ENERGY PREDICTED BY IDOCK:   -5.76 KCAL/MOL
REMARK 924 INTRA-LIGAND FREE ENERGY PREDICTED BY IDOCK:   -1.14 KCAL/MOL
REMARK 927      BINDING AFFINITY PREDICTED BY RF-SCORE:    0.00 PKD
ROOT
HETATM    1  C   UNL     1     -12.504  12.891  64.805  1.00  0.00    -0.517 C  
HETATM    2  C   UNL     1     -11.998  12.877  66.244  1.00  0.00    -0.408 C  
ENDROOT
BRANCH   2   3
HETATM    3  N   UNL     1     -11.631  14.195  66.788  1.00  0.00    -0.372 NA 
BRANCH   3   4
HETATM    4  C   UNL     1     -11.582  14.239  68.263  1.00  0.00    -0.324 C  
HETATM    5  C   UNL     1     -11.785  15.607  68.915  1.00  0.00    -0.396 C  
ENDBRANCH   3   4
BRANCH   3   6
HETATM    6  C   UNL     1     -10.357  14.686  66.208  1.00  0.00    -0.294 C  
BRANCH   6   7
HETATM    7  C   UNL     1      -9.075  14.258  66.944  1.00  0.00    -0.252 C  
BRANCH   7   8
HETATM    8  N   UNL     1      -8.556  13.000  66.458  1.00  0.00    -0.425 N  
HETATM    9  C   UNL     1      -8.517  11.890  67.265  1.00  0.00    -0.172 C  
HETATM   10  H   UNL     1      -8.211  12.935  65.500  1.00  0.00     0.000 HD 
HETATM   11  O   UNL     1      -8.936  11.909  68.420  1.00  0.00    -0.183 OA 
BRANCH   9  12
HETATM   12  C   UNL     1      -7.980  10.675  66.647  1.00  0.00    -0.134 A  
HETATM   13  C   UNL     1      -6.672  10.396  66.265  1.00  0.00    -0.112 A  
HETATM   14  C   UNL     1      -5.400  11.165  66.354  1.00  0.00    -0.130 C  
HETATM   15  N   UNL     1      -6.646   9.113  65.761  1.00  0.00    -0.067 NA 
HETATM   16  H   UNL     1      -5.817   8.658  65.380  1.00  0.00     0.000 HD 
HETATM   17  C   UNL     1      -7.882   8.531  65.841  1.00  0.00    -0.099 A  
HETATM   18  C   UNL     1      -8.741   9.476  66.388  1.00  0.00    -0.149 A  
HETATM   19  C   UNL     1     -10.200   9.308  66.676  1.00  0.00    -0.323 C  
BRANCH  17  20
HETATM   20  C   UNL     1      -8.140   7.199  65.429  1.00  0.00    -0.137 C  
HETATM   21  C   UNL     1      -8.384   6.095  66.148  1.00  0.00    -0.128 C  
HETATM   22  C   UNL     1      -8.464   5.857  67.634  1.00  0.00    -0.103 C  
HETATM   23  N   UNL     1      -8.740   4.500  67.769  1.00  0.00    -0.103 N  
HETATM   24  O   UNL     1      -8.317   6.662  68.531  1.00  0.00    -0.121 OA 
HETATM   25  C   UNL     1      -8.842   3.873  66.531  1.00  0.00    -0.125 A  
HETATM   26  H   UNL     1      -8.855   4.024  68.664  1.00  0.00     0.000 HD 
HETATM   27  C   UNL     1      -8.636   4.795  65.501  1.00  0.00    -0.131 A  
HETATM   28  C   UNL     1      -8.695   4.397  64.176  1.00  0.00    -0.139 A  
HETATM   29  C   UNL     1      -8.957   3.055  63.916  1.00  0.00    -0.097 A  
HETATM   30  F   UNL     1      -9.017   2.639  62.645  1.00  0.00    -0.085 F  
HETATM   31  C   UNL     1      -9.159   2.130  64.950  1.00  0.00    -0.130 A  
HETATM   32  C   UNL     1      -9.103   2.538  66.286  1.00  0.00    -0.105 A  
ENDBRANCH  17  20
ENDBRANCH   9  12
ENDBRANCH   7   8
ENDBRANCH   6   7
ENDBRANCH   3   6
ENDBRANCH   2   3
TORSDOF 7
ENDMDL
MODEL      169
REMARK 921   NORMALIZED FREE ENERGY PREDICTED BY IDOCK:   -4.12 KCAL/MOL
REMARK 922        TOTAL FREE ENERGY PREDICTED BY IDOCK:   -6.90 KCAL/MOL
REMARK 923 INTER-LIGAND FREE ENERGY PREDICTED BY IDOCK:   -6.49 KCAL/MOL
REMARK 924 INTRA-LIGAND FREE ENERGY PREDICTED BY IDOCK:   -0.40 KCAL/MOL
REMARK 927      BINDING AFFINITY PREDICTED BY RF-SCORE:    0.00 PKD
ROOT
HETATM    1  C   UNL     1     -12.062  15.842  71.017  1.00  0.00    -0.464 C  
HETATM    2  C   UNL     1     -10.932  15.733  69.998  1.00  0.00    -0.338 C  
ENDROOT
BRANCH   2   3
HETATM    3  N   UNL     1     -11.330  15.971  68.600  1.00  0.00    -0.369 NA 
BRANCH   3   4
HETATM    4  C   UNL     1     -10.497  16.972  67.906  1.00  0.00    -0.354 C  
HETATM    5  C   UNL     1      -9.685  17.920  68.791  1.00  0.00    -0.326 C  
ENDBRANCH   3   4
BRANCH   3   6
HETATM    6  C   UNL     1     -11.380  14.706  67.827  1.00  0.00    -0.322 C  
BRANCH   6   7
HETATM    7  C   UNL     1     -12.077  13.521  68.520  1.00  0.00    -0.268 C  
BRANCH   7   8
HETATM    8  N   UNL     1     -11.251  12.336  68.547  1.00  0.00    -0.249 N  
HETATM    9  C   UNL     1     -11.719  11.159  69.075  1.00  0.00    -0.339 C  
HETATM   10  H   UNL     1     -10.305  12.375  68.169  1.00  0.00     0.000 HD 
HETATM   11  O   UNL     1     -12.857  11.053  69.527  1.00  0.00    -0.188 OA 
BRANCH   9  12
HETATM   12  C   UNL     1     -10.788  10.028  69.029  1.00  0.00    -0.253 A  
HETATM   13  C   UNL     1     -10.043   9.556  67.954  1.00  0.00    -0.191 A  
HETATM   14  C   UNL     1      -9.897  10.004  66.541  1.00  0.00    -0.267 C  
HETATM   15  N   UNL     1      -9.286   8.493  68.402  1.00  0.00    -0.135 NA 
HETATM   16  H   UNL     1      -8.665   7.937  67.814  1.00  0.00     0.000 HD 
HETATM   17  C   UNL     1      -9.481   8.284  69.740  1.00  0.00    -0.163 A  
HETATM   18  C   UNL     1     -10.412   9.222  70.166  1.00  0.00    -0.265 A  
HETATM   19  C   UNL     1     -10.947   9.396  71.554  1.00  0.00    -0.429 C  
BRANCH  17  20
HETATM   20  C   UNL     1      -8.802   7.278  70.474  1.00  0.00    -0.153 C  
HETATM   21  C   UNL     1      -9.278   6.239  71.173  1.00  0.00    -0.159 C  
HETATM   22  C   UNL     1     -10.682   5.763  71.445  1.00  0.00    -0.256 C  
HETATM   23  N   UNL     1     -10.533   4.633  72.242  1.00  0.00    -0.193 N  
HETATM   24  O   UNL     1     -11.725   6.252  71.063  1.00  0.00    -0.319 OA 
HETATM   25  C   UNL     1      -9.193   4.355  72.493  1.00  0.00    -0.123 A  
HETATM   26  H   UNL     1     -11.310   4.076  72.598  1.00  0.00     0.000 HD 
HETATM   27  C   UNL     1      -8.376   5.299  71.864  1.00  0.00    -0.122 A  
HETATM   28  C   UNL     1      -6.998   5.221  71.971  1.00  0.00    -0.078 A  
HETATM   29  C   UNL     1      -6.467   4.179  72.725  1.00  0.00    -0.032 A  
HETATM   30  F   UNL     1      -5.137   4.078  72.849  1.00  0.00     0.000 F  
HETATM   31  C   UNL     1      -7.287   3.235  73.358  1.00  0.00    -0.055 A  
HETATM   32  C   UNL     1      -8.678   3.316  73.244  1.00  0.00    -0.081 A  
ENDBRANCH  17  20
ENDBRANCH   9  12
ENDBRANCH   7   8
ENDBRANCH   6   7
ENDBRANCH   3   6
ENDBRANCH   2   3
TORSDOF 7
ENDMDL
MODEL      170
REMARK 921   NORMALIZED FREE ENERGY PREDICTED BY IDOCK:   -4.10 KCAL/MOL
REMARK 922        TOTAL FREE ENERGY PREDICTED BY IDOCK:   -6.87 KCAL/MOL
REMARK 923 INTER-LIGAND FREE ENERGY PREDICTED BY IDOCK:   -6.41 KCAL/MOL
REMARK 924 INTRA-LIGAND FREE ENERGY PREDICTED BY IDOCK:   -0.46 KCAL/MOL
REMARK 927      BINDING AFFINITY PREDICTED BY RF-SCORE:    0.00 PKD
ROOT
HETATM    1  C   UNL     1     -11.602  15.799  70.831  1.00  0.00    -0.440 C  
HETATM    2  C   UNL     1     -10.544  15.659  69.741  1.00  0.00    -0.304 C  
ENDROOT
BRANCH   2   3
HETATM    3  N   UNL     1     -10.827  16.401  68.501  1.00  0.00    -0.322 NA 
BRANCH   3   4
HETATM    4  C   UNL     1      -9.823  17.436  68.184  1.00  0.00    -0.301 C  
HETATM    5  C   UNL     1      -9.184  17.367  66.796  1.00  0.00    -0.274 C  
ENDBRANCH   3   4
BRANCH   3   6
HETATM    6  C   UNL     1     -11.012  15.483  67.350  1.00  0.00    -0.306 C  
BRANCH   6   7
HETATM    7  C   UNL     1     -11.637  14.115  67.677  1.00  0.00    -0.365 C  
BRANCH   7   8
HETATM    8  N   UNL     1     -10.992  13.033  66.969  1.00  0.00    -0.261 N  
HETATM    9  C   UNL     1     -11.361  11.728  67.182  1.00  0.00    -0.322 C  
HETATM   10  H   UNL     1     -10.250  13.242  66.300  1.00  0.00     0.000 HD 
HETATM   11  O   UNL     1     -12.260  11.422  67.962  1.00  0.00    -0.607 OA 
BRANCH   9  12
HETATM   12  C   UNL     1     -10.638  10.727  66.391  1.00  0.00    -0.266 A  
HETATM   13  C   UNL     1     -10.161  10.825  65.088  1.00  0.00    -0.299 A  
HETATM   14  C   UNL     1     -10.178  11.918  64.077  1.00  0.00    -0.394 C  
HETATM   15  N   UNL     1      -9.518   9.643  64.786  1.00  0.00    -0.410 NA 
HETATM   16  H   UNL     1      -9.096   9.428  63.883  1.00  0.00     0.000 HD 
HETATM   17  C   UNL     1      -9.524   8.796  65.861  1.00  0.00    -0.208 A  
HETATM   18  C   UNL     1     -10.214   9.438  66.881  1.00  0.00    -0.318 A  
HETATM   19  C   UNL     1     -10.482   8.914  68.257  1.00  0.00    -0.243 C  
BRANCH  17  20
HETATM   20  C   UNL     1      -8.901   7.521  65.847  1.00  0.00    -0.157 C  
HETATM   21  C   UNL     1      -7.761   7.101  66.411  1.00  0.00    -0.100 C  
HETATM   22  C   UNL     1      -6.727   7.813  67.246  1.00  0.00    -0.068 C  
HETATM   23  N   UNL     1      -5.766   6.848  67.531  1.00  0.00    -0.019 N  
HETATM   24  O   UNL     1      -6.719   8.975  67.598  1.00  0.00    -0.064 OA 
HETATM   25  C   UNL     1      -6.091   5.619  66.966  1.00  0.00    -0.026 A  
HETATM   26  H   UNL     1      -4.927   7.021  68.085  1.00  0.00     0.000 HD 
HETATM   27  C   UNL     1      -7.300   5.708  66.271  1.00  0.00    -0.078 A  
HETATM   28  C   UNL     1      -7.827   4.601  65.629  1.00  0.00    -0.094 A  
HETATM   29  C   UNL     1      -7.108   3.412  65.697  1.00  0.00    -0.066 A  
HETATM   30  F   UNL     1      -7.591   2.324  65.082  1.00  0.00    -0.065 F  
HETATM   31  C   UNL     1      -5.893   3.324  66.390  1.00  0.00    -0.023 A  
HETATM   32  C   UNL     1      -5.367   4.443  67.041  1.00  0.00    -0.013 A  
ENDBRANCH  17  20
ENDBRANCH   9  12
ENDBRANCH   7   8
ENDBRANCH   6   7
ENDBRANCH   3   6
ENDBRANCH   2   3
TORSDOF 7
ENDMDL
MODEL      171
REMARK 921   NORMALIZED FREE ENERGY PREDICTED BY IDOCK:   -4.10 KCAL/MOL
REMARK 922        TOTAL FREE ENERGY PREDICTED BY IDOCK:   -6.86 KCAL/MOL
REMARK 923 INTER-LIGAND FREE ENERGY PREDICTED BY IDOCK:   -7.01 KCAL/MOL
REMARK 924 INTRA-LIGAND FREE ENERGY PREDICTED BY IDOCK:    0.16 KCAL/MOL
REMARK 927      BINDING AFFINITY PREDICTED BY RF-SCORE:    0.00 PKD
ROOT
HETATM    1  C   UNL     1     -11.219  15.099  71.391  1.00  0.00    -0.319 C  
HETATM    2  C   UNL     1     -12.030  15.789  70.298  1.00  0.00    -0.361 C  
ENDROOT
BRANCH   2   3
HETATM    3  N   UNL     1     -11.336  15.934  69.007  1.00  0.00    -0.347 NA 
BRANCH   3   4
HETATM    4  C   UNL     1     -10.047  16.648  69.101  1.00  0.00    -0.285 C  
HETATM    5  C   UNL     1     -10.088  18.163  68.895  1.00  0.00    -0.354 C  
ENDBRANCH   3   4
BRANCH   3   6
HETATM    6  C   UNL     1     -11.159  14.623  68.336  1.00  0.00    -0.257 C  
BRANCH   6   7
HETATM    7  C   UNL     1     -12.214  13.551  68.667  1.00  0.00    -0.137 C  
BRANCH   7   8
HETATM    8  N   UNL     1     -11.635  12.235  68.805  1.00  0.00    -0.306 N  
HETATM    9  C   UNL     1     -11.758  11.527  69.974  1.00  0.00    -0.332 C  
HETATM   10  H   UNL     1     -11.126  11.825  68.022  1.00  0.00     0.000 HD 
HETATM   11  O   UNL     1     -12.375  11.966  70.942  1.00  0.00    -0.373 OA 
BRANCH   9  12
HETATM   12  C   UNL     1     -11.137  10.199  69.981  1.00  0.00    -0.368 A  
HETATM   13  C   UNL     1     -10.054   9.740  69.238  1.00  0.00    -0.198 A  
HETATM   14  C   UNL     1      -9.157  10.385  68.240  1.00  0.00    -0.145 C  
HETATM   15  N   UNL     1      -9.814   8.433  69.609  1.00  0.00    -0.181 NA 
HETATM   16  H   UNL     1      -9.091   7.840  69.202  1.00  0.00     0.000 HD 
HETATM   17  C   UNL     1     -10.675   8.040  70.597  1.00  0.00    -0.228 A  
HETATM   18  C   UNL     1     -11.516   9.115  70.855  1.00  0.00    -0.357 A  
HETATM   19  C   UNL     1     -12.624   9.172  71.859  1.00  0.00    -0.463 C  
BRANCH  17  20
HETATM   20  C   UNL     1     -10.632   6.755  71.197  1.00  0.00    -0.252 C  
HETATM   21  C   UNL     1      -9.960   5.651  70.846  1.00  0.00    -0.251 C  
HETATM   22  C   UNL     1      -9.024   5.361  69.700  1.00  0.00    -0.109 C  
HETATM   23  N   UNL     1      -8.649   4.033  69.866  1.00  0.00    -0.063 N  
HETATM   24  O   UNL     1      -8.668   6.113  68.815  1.00  0.00    -0.119 OA 
HETATM   25  C   UNL     1      -9.248   3.468  70.988  1.00  0.00    -0.125 A  
HETATM   26  H   UNL     1      -8.013   3.534  69.244  1.00  0.00     0.000 HD 
HETATM   27  C   UNL     1     -10.059   4.407  71.631  1.00  0.00    -0.230 A  
HETATM   28  C   UNL     1     -10.755   4.070  72.779  1.00  0.00    -0.179 A  
HETATM   29  C   UNL     1     -10.620   2.771  73.257  1.00  0.00    -0.165 A  
HETATM   30  F   UNL     1     -11.284   2.413  74.364  1.00  0.00    -0.181 F  
HETATM   31  C   UNL     1      -9.811   1.827  72.610  1.00  0.00    -0.171 A  
HETATM   32  C   UNL     1      -9.106   2.174  71.453  1.00  0.00    -0.159 A  
ENDBRANCH  17  20
ENDBRANCH   9  12
ENDBRANCH   7   8
ENDBRANCH   6   7
ENDBRANCH   3   6
ENDBRANCH   2   3
TORSDOF 7
ENDMDL
MODEL      172
REMARK 921   NORMALIZED FREE ENERGY PREDICTED BY IDOCK:   -4.09 KCAL/MOL
REMARK 922        TOTAL FREE ENERGY PREDICTED BY IDOCK:   -6.85 KCAL/MOL
REMARK 923 INTER-LIGAND FREE ENERGY PREDICTED BY IDOCK:   -5.91 KCAL/MOL
REMARK 924 INTRA-LIGAND FREE ENERGY PREDICTED BY IDOCK:   -0.95 KCAL/MOL
REMARK 927      BINDING AFFINITY PREDICTED BY RF-SCORE:    0.00 PKD
ROOT
HETATM    1  C   UNL     1     -12.281  13.016  65.309  1.00  0.00    -0.513 C  
HETATM    2  C   UNL     1     -11.167  14.050  65.173  1.00  0.00    -0.329 C  
ENDROOT
BRANCH   2   3
HETATM    3  N   UNL     1     -10.694  14.625  66.444  1.00  0.00    -0.303 NA 
BRANCH   3   4
HETATM    4  C   UNL     1     -10.460  16.082  66.388  1.00  0.00    -0.309 C  
HETATM    5  C   UNL     1     -10.707  16.763  65.041  1.00  0.00    -0.118 C  
ENDBRANCH   3   4
BRANCH   3   6
HETATM    6  C   UNL     1     -11.604  14.285  67.565  1.00  0.00    -0.363 C  
BRANCH   6   7
HETATM    7  C   UNL     1     -10.927  13.771  68.848  1.00  0.00    -0.252 C  
BRANCH   7   8
HETATM    8  N   UNL     1     -10.501  12.395  68.732  1.00  0.00    -0.357 N  
HETATM    9  C   UNL     1     -11.250  11.375  69.263  1.00  0.00    -0.277 C  
HETATM   10  H   UNL     1      -9.630  12.178  68.248  1.00  0.00     0.000 HD 
HETATM   11  O   UNL     1     -12.316  11.579  69.840  1.00  0.00    -0.250 OA 
BRANCH   9  12
HETATM   12  C   UNL     1     -10.715  10.025  69.065  1.00  0.00    -0.244 A  
HETATM   13  C   UNL     1     -10.510   9.022  70.007  1.00  0.00    -0.214 A  
HETATM   14  C   UNL     1     -10.762   8.934  71.472  1.00  0.00    -0.398 C  
HETATM   15  N   UNL     1     -10.021   7.916  69.343  1.00  0.00    -0.185 NA 
HETATM   16  H   UNL     1      -9.754   7.041  69.794  1.00  0.00     0.000 HD 
HETATM   17  C   UNL     1      -9.941   8.150  67.997  1.00  0.00    -0.184 A  
HETATM   18  C   UNL     1     -10.365   9.456  67.786  1.00  0.00    -0.291 A  
HETATM   19  C   UNL     1     -10.459  10.172  66.474  1.00  0.00    -0.236 C  
BRANCH  17  20
HETATM   20  C   UNL     1      -9.505   7.174  67.065  1.00  0.00    -0.192 C  
HETATM   21  C   UNL     1      -8.348   7.059  66.399  1.00  0.00    -0.125 C  
HETATM   22  C   UNL     1      -7.105   7.911  66.383  1.00  0.00    -0.071 C  
HETATM   23  N   UNL     1      -6.246   7.281  65.489  1.00  0.00    -0.037 N  
HETATM   24  O   UNL     1      -6.887   8.930  67.007  1.00  0.00    -0.072 OA 
HETATM   25  C   UNL     1      -6.819   6.133  64.950  1.00  0.00    -0.047 A  
HETATM   26  H   UNL     1      -5.311   7.618  65.257  1.00  0.00     0.000 HD 
HETATM   27  C   UNL     1      -8.102   5.942  65.470  1.00  0.00    -0.131 A  
HETATM   28  C   UNL     1      -8.865   4.855  65.080  1.00  0.00    -0.154 A  
HETATM   29  C   UNL     1      -8.311   3.975  64.156  1.00  0.00    -0.093 A  
HETATM   30  F   UNL     1      -9.026   2.915  63.756  1.00  0.00    -0.095 F  
HETATM   31  C   UNL     1      -7.026   4.169  63.632  1.00  0.00    -0.045 A  
HETATM   32  C   UNL     1      -6.257   5.266  64.032  1.00  0.00    -0.022 A  
ENDBRANCH  17  20
ENDBRANCH   9  12
ENDBRANCH   7   8
ENDBRANCH   6   7
ENDBRANCH   3   6
ENDBRANCH   2   3
TORSDOF 7
ENDMDL
MODEL      173
REMARK 921   NORMALIZED FREE ENERGY PREDICTED BY IDOCK:   -4.09 KCAL/MOL
REMARK 922        TOTAL FREE ENERGY PREDICTED BY IDOCK:   -6.85 KCAL/MOL
REMARK 923 INTER-LIGAND FREE ENERGY PREDICTED BY IDOCK:   -6.72 KCAL/MOL
REMARK 924 INTRA-LIGAND FREE ENERGY PREDICTED BY IDOCK:   -0.13 KCAL/MOL
REMARK 927      BINDING AFFINITY PREDICTED BY RF-SCORE:    0.00 PKD
ROOT
HETATM    1  C   UNL     1     -10.014  18.555  65.593  1.00  0.00     0.287 C  
HETATM    2  C   UNL     1      -8.810  19.223  66.249  1.00  0.00    -0.326 C  
ENDROOT
BRANCH   2   3
HETATM    3  N   UNL     1      -8.442  18.683  67.569  1.00  0.00    -0.264 NA 
BRANCH   3   4
HETATM    4  C   UNL     1      -7.033  18.924  67.939  1.00  0.00    -0.229 C  
HETATM    5  C   UNL     1      -6.787  19.597  69.291  1.00  0.00    -0.390 C  
ENDBRANCH   3   4
BRANCH   3   6
HETATM    6  C   UNL     1      -9.353  19.177  68.630  1.00  0.00    -0.388 C  
BRANCH   6   7
HETATM    7  C   UNL     1     -10.645  18.365  68.838  1.00  0.00     0.224 C  
BRANCH   7   8
HETATM    8  N   UNL     1     -10.480  16.971  68.495  1.00  0.00    -0.351 N  
HETATM    9  C   UNL     1     -10.737  15.981  69.410  1.00  0.00    -0.294 C  
HETATM   10  H   UNL     1     -10.167  16.718  67.557  1.00  0.00     0.000 HD 
HETATM   11  O   UNL     1     -11.133  16.230  70.547  1.00  0.00    -0.348 OA 
BRANCH   9  12
HETATM   12  C   UNL     1     -10.544  14.609  68.932  1.00  0.00    -0.253 A  
HETATM   13  C   UNL     1     -11.162  13.440  69.366  1.00  0.00    -0.175 A  
HETATM   14  C   UNL     1     -12.203  13.160  70.393  1.00  0.00    -0.389 C  
HETATM   15  N   UNL     1     -10.683  12.402  68.595  1.00  0.00    -0.232 NA 
HETATM   16  H   UNL     1     -10.945  11.423  68.714  1.00  0.00     0.000 HD 
HETATM   17  C   UNL     1      -9.807  12.859  67.648  1.00  0.00    -0.211 A  
HETATM   18  C   UNL     1      -9.695  14.232  67.828  1.00  0.00    -0.222 A  
HETATM   19  C   UNL     1      -8.854  15.180  67.031  1.00  0.00    -0.258 C  
BRANCH  17  20
HETATM   20  C   UNL     1      -9.187  12.014  66.692  1.00  0.00    -0.211 C  
HETATM   21  C   UNL     1      -9.629  11.563  65.511  1.00  0.00    -0.252 C  
HETATM   22  C   UNL     1     -10.928  11.770  64.773  1.00  0.00    -0.303 C  
HETATM   23  N   UNL     1     -10.797  11.038  63.598  1.00  0.00    -0.558 N  
HETATM   24  O   UNL     1     -11.889  12.427  65.119  1.00  0.00    -0.368 OA 
HETATM   25  C   UNL     1      -9.561  10.402  63.525  1.00  0.00    -0.310 A  
HETATM   26  H   UNL     1     -11.517  10.976  62.878  1.00  0.00     0.000 HD 
HETATM   27  C   UNL     1      -8.802  10.686  64.663  1.00  0.00    -0.191 A  
HETATM   28  C   UNL     1      -7.529  10.162  64.809  1.00  0.00    -0.136 A  
HETATM   29  C   UNL     1      -7.045   9.346  63.791  1.00  0.00    -0.098 A  
HETATM   30  F   UNL     1      -5.818   8.822  63.905  1.00  0.00    -0.067 F  
HETATM   31  C   UNL     1      -7.809   9.058  62.652  1.00  0.00    -0.127 A  
HETATM   32  C   UNL     1      -9.093   9.593  62.507  1.00  0.00    -0.283 A  
ENDBRANCH  17  20
ENDBRANCH   9  12
ENDBRANCH   7   8
ENDBRANCH   6   7
ENDBRANCH   3   6
ENDBRANCH   2   3
TORSDOF 7
ENDMDL
MODEL      174
REMARK 921   NORMALIZED FREE ENERGY PREDICTED BY IDOCK:   -4.09 KCAL/MOL
REMARK 922        TOTAL FREE ENERGY PREDICTED BY IDOCK:   -6.85 KCAL/MOL
REMARK 923 INTER-LIGAND FREE ENERGY PREDICTED BY IDOCK:   -6.23 KCAL/MOL
REMARK 924 INTRA-LIGAND FREE ENERGY PREDICTED BY IDOCK:   -0.62 KCAL/MOL
REMARK 927      BINDING AFFINITY PREDICTED BY RF-SCORE:    0.00 PKD
ROOT
HETATM    1  C   UNL     1     -10.276  17.088  68.905  1.00  0.00    -0.322 C  
HETATM    2  C   UNL     1     -10.062  15.652  68.436  1.00  0.00    -0.214 C  
ENDROOT
BRANCH   2   3
HETATM    3  N   UNL     1     -11.069  15.153  67.483  1.00  0.00    -0.312 NA 
BRANCH   3   4
HETATM    4  C   UNL     1     -10.509  14.771  66.171  1.00  0.00    -0.304 C  
HETATM    5  C   UNL     1      -9.417  15.679  65.603  1.00  0.00    -0.272 C  
ENDBRANCH   3   4
BRANCH   3   6
HETATM    6  C   UNL     1     -11.855  14.035  68.060  1.00  0.00    -0.368 C  
BRANCH   6   7
HETATM    7  C   UNL     1     -11.378  13.515  69.428  1.00  0.00    -0.233 C  
BRANCH   7   8
HETATM    8  N   UNL     1     -10.906  12.150  69.364  1.00  0.00    -0.453 N  
HETATM    9  C   UNL     1     -11.711  11.104  69.740  1.00  0.00    -0.345 C  
HETATM   10  H   UNL     1      -9.960  11.961  69.034  1.00  0.00     0.000 HD 
HETATM   11  O   UNL     1     -12.865  11.275  70.128  1.00  0.00    -0.107 OA 
BRANCH   9  12
HETATM   12  C   UNL     1     -11.118   9.770  69.614  1.00  0.00    -0.251 A  
HETATM   13  C   UNL     1     -10.895   8.818  70.604  1.00  0.00    -0.232 A  
HETATM   14  C   UNL     1     -11.177   8.784  72.065  1.00  0.00    -0.443 C  
HETATM   15  N   UNL     1     -10.347   7.706  70.001  1.00  0.00    -0.217 NA 
HETATM   16  H   UNL     1     -10.056   6.863  70.496  1.00  0.00     0.000 HD 
HETATM   17  C   UNL     1     -10.245   7.884  68.648  1.00  0.00    -0.205 A  
HETATM   18  C   UNL     1     -10.716   9.160  68.369  1.00  0.00    -0.163 A  
HETATM   19  C   UNL     1     -10.808   9.814  67.026  1.00  0.00    -0.165 C  
BRANCH  17  20
HETATM   20  C   UNL     1      -9.749   6.886  67.770  1.00  0.00    -0.148 C  
HETATM   21  C   UNL     1      -9.569   5.572  67.956  1.00  0.00    -0.147 C  
HETATM   22  C   UNL     1      -9.810   4.679  69.147  1.00  0.00    -0.172 C  
HETATM   23  N   UNL     1      -9.424   3.409  68.731  1.00  0.00    -0.162 N  
HETATM   24  O   UNL     1     -10.243   4.988  70.238  1.00  0.00    -0.253 OA 
HETATM   25  C   UNL     1      -8.971   3.416  67.415  1.00  0.00    -0.150 A  
HETATM   26  H   UNL     1      -9.467   2.576  69.318  1.00  0.00     0.000 HD 
HETATM   27  C   UNL     1      -9.038   4.708  66.886  1.00  0.00    -0.123 A  
HETATM   28  C   UNL     1      -8.642   4.957  65.583  1.00  0.00    -0.131 A  
HETATM   29  C   UNL     1      -8.175   3.882  64.834  1.00  0.00    -0.093 A  
HETATM   30  F   UNL     1      -7.782   4.091  63.571  1.00  0.00    -0.065 F  
HETATM   31  C   UNL     1      -8.104   2.587  65.366  1.00  0.00    -0.084 A  
HETATM   32  C   UNL     1      -8.509   2.340  66.681  1.00  0.00    -0.100 A  
ENDBRANCH  17  20
ENDBRANCH   9  12
ENDBRANCH   7   8
ENDBRANCH   6   7
ENDBRANCH   3   6
ENDBRANCH   2   3
TORSDOF 7
ENDMDL
MODEL      175
REMARK 921   NORMALIZED FREE ENERGY PREDICTED BY IDOCK:   -4.08 KCAL/MOL
REMARK 922        TOTAL FREE ENERGY PREDICTED BY IDOCK:   -6.84 KCAL/MOL
REMARK 923 INTER-LIGAND FREE ENERGY PREDICTED BY IDOCK:   -6.08 KCAL/MOL
REMARK 924 INTRA-LIGAND FREE ENERGY PREDICTED BY IDOCK:   -0.76 KCAL/MOL
REMARK 927      BINDING AFFINITY PREDICTED BY RF-SCORE:    0.00 PKD
ROOT
HETATM    1  C   UNL     1      -6.924  18.705  68.377  1.00  0.00    -0.278 C  
HETATM    2  C   UNL     1      -7.368  18.463  66.938  1.00  0.00    -0.208 C  
ENDROOT
BRANCH   2   3
HETATM    3  N   UNL     1      -8.825  18.362  66.745  1.00  0.00    -0.270 NA 
BRANCH   3   4
HETATM    4  C   UNL     1      -9.477  19.655  66.456  1.00  0.00    -0.384 C  
HETATM    5  C   UNL     1      -9.784  20.550  67.658  1.00  0.00    -0.501 C  
ENDBRANCH   3   4
BRANCH   3   6
HETATM    6  C   UNL     1      -9.167  17.361  65.706  1.00  0.00     0.209 C  
BRANCH   6   7
HETATM    7  C   UNL     1     -10.525  16.655  65.874  1.00  0.00    -0.313 C  
BRANCH   7   8
HETATM    8  N   UNL     1     -10.383  15.294  66.337  1.00  0.00    -0.279 N  
HETATM    9  C   UNL     1     -11.221  14.303  65.888  1.00  0.00    -0.319 C  
HETATM   10  H   UNL     1      -9.650  15.065  67.008  1.00  0.00     0.000 HD 
HETATM   11  O   UNL     1     -12.109  14.521  65.067  1.00  0.00    -0.391 OA 
BRANCH   9  12
HETATM   12  C   UNL     1     -10.963  12.964  66.424  1.00  0.00    -0.310 A  
HETATM   13  C   UNL     1     -11.224  12.469  67.698  1.00  0.00    -0.282 A  
HETATM   14  C   UNL     1     -11.845  13.065  68.914  1.00  0.00    -0.358 C  
HETATM   15  N   UNL     1     -10.840  11.145  67.722  1.00  0.00    -0.221 NA 
HETATM   16  H   UNL     1     -10.893  10.542  68.542  1.00  0.00     0.000 HD 
HETATM   17  C   UNL     1     -10.378  10.748  66.496  1.00  0.00    -0.244 A  
HETATM   18  C   UNL     1     -10.439  11.856  65.661  1.00  0.00    -0.302 A  
HETATM   19  C   UNL     1     -10.045  11.921  64.218  1.00  0.00    -0.325 C  
BRANCH  17  20
HETATM   20  C   UNL     1      -9.950   9.424  66.220  1.00  0.00    -0.353 C  
HETATM   21  C   UNL     1      -9.325   8.530  66.998  1.00  0.00    -0.204 C  
HETATM   22  C   UNL     1      -8.845   8.596  68.425  1.00  0.00    -0.142 C  
HETATM   23  N   UNL     1      -8.266   7.355  68.670  1.00  0.00    -0.124 N  
HETATM   24  O   UNL     1      -8.933   9.524  69.203  1.00  0.00    -0.136 OA 
HETATM   25  C   UNL     1      -8.336   6.528  67.553  1.00  0.00    -0.121 A  
HETATM   26  H   UNL     1      -7.843   7.085  69.558  1.00  0.00     0.000 HD 
HETATM   27  C   UNL     1      -8.975   7.188  66.500  1.00  0.00    -0.172 A  
HETATM   28  C   UNL     1      -9.164   6.555  65.283  1.00  0.00     0.431 A  
HETATM   29  C   UNL     1      -8.691   5.253  65.152  1.00  0.00    -0.146 A  
HETATM   30  F   UNL     1      -8.856   4.616  63.986  1.00  0.00    -0.131 F  
HETATM   31  C   UNL     1      -8.047   4.594  66.207  1.00  0.00    -0.103 A  
HETATM   32  C   UNL     1      -7.862   5.235  67.436  1.00  0.00    -0.100 A  
ENDBRANCH  17  20
ENDBRANCH   9  12
ENDBRANCH   7   8
ENDBRANCH   6   7
ENDBRANCH   3   6
ENDBRANCH   2   3
TORSDOF 7
ENDMDL
MODEL      176
REMARK 921   NORMALIZED FREE ENERGY PREDICTED BY IDOCK:   -4.07 KCAL/MOL
REMARK 922        TOTAL FREE ENERGY PREDICTED BY IDOCK:   -6.82 KCAL/MOL
REMARK 923 INTER-LIGAND FREE ENERGY PREDICTED BY IDOCK:   -5.92 KCAL/MOL
REMARK 924 INTRA-LIGAND FREE ENERGY PREDICTED BY IDOCK:   -0.90 KCAL/MOL
REMARK 927      BINDING AFFINITY PREDICTED BY RF-SCORE:    0.00 PKD
ROOT
HETATM    1  C   UNL     1      -9.808  17.214  68.949  1.00  0.00    -0.273 C  
HETATM    2  C   UNL     1     -10.820  16.828  67.875  1.00  0.00    -0.311 C  
ENDROOT
BRANCH   2   3
HETATM    3  N   UNL     1     -11.097  17.874  66.877  1.00  0.00     0.143 NA 
BRANCH   3   4
HETATM    4  C   UNL     1     -10.649  19.221  67.286  1.00  0.00    -0.484 C  
HETATM    5  C   UNL     1     -10.141  20.140  66.174  1.00  0.00    -0.532 C  
ENDBRANCH   3   4
BRANCH   3   6
HETATM    6  C   UNL     1     -10.538  17.520  65.549  1.00  0.00    -0.092 C  
BRANCH   6   7
HETATM    7  C   UNL     1     -11.113  16.249  64.897  1.00  0.00    -0.290 C  
BRANCH   7   8
HETATM    8  N   UNL     1     -10.319  15.076  65.183  1.00  0.00    -0.394 N  
HETATM    9  C   UNL     1     -10.870  13.982  65.801  1.00  0.00    -0.291 C  
HETATM   10  H   UNL     1      -9.333  15.061  64.922  1.00  0.00     0.000 HD 
HETATM   11  O   UNL     1     -12.056  13.941  66.121  1.00  0.00    -0.398 OA 
BRANCH   9  12
HETATM   12  C   UNL     1      -9.962  12.853  66.022  1.00  0.00    -0.275 A  
HETATM   13  C   UNL     1      -9.278  12.499  67.181  1.00  0.00    -0.205 A  
HETATM   14  C   UNL     1      -9.231  13.076  68.552  1.00  0.00    -0.062 C  
HETATM   15  N   UNL     1      -8.573  11.343  66.915  1.00  0.00    -0.149 NA 
HETATM   16  H   UNL     1      -7.959  10.874  67.581  1.00  0.00     0.000 HD 
HETATM   17  C   UNL     1      -8.807  10.911  65.638  1.00  0.00    -0.190 A  
HETATM   18  C   UNL     1      -9.669  11.828  65.050  1.00  0.00    -0.212 A  
HETATM   19  C   UNL     1     -10.218  11.785  63.658  1.00  0.00    -0.461 C  
BRANCH  17  20
HETATM   20  C   UNL     1      -8.240   9.724  65.105  1.00  0.00    -0.140 C  
HETATM   21  C   UNL     1      -8.501   8.438  65.372  1.00  0.00    -0.193 C  
HETATM   22  C   UNL     1      -9.465   7.780  66.325  1.00  0.00    -0.133 C  
HETATM   23  N   UNL     1      -9.268   6.414  66.154  1.00  0.00    -0.264 N  
HETATM   24  O   UNL     1     -10.247   8.313  67.086  1.00  0.00    -0.237 OA 
HETATM   25  C   UNL     1      -8.290   6.153  65.200  1.00  0.00    -0.129 A  
HETATM   26  H   UNL     1      -9.778   5.693  66.664  1.00  0.00     0.000 HD 
HETATM   27  C   UNL     1      -7.784   7.349  64.683  1.00  0.00    -0.118 A  
HETATM   28  C   UNL     1      -6.799   7.336  63.711  1.00  0.00    -0.053 A  
HETATM   29  C   UNL     1      -6.334   6.098  63.279  1.00  0.00    -0.025 A  
HETATM   30  F   UNL     1      -5.378   6.052  62.342  1.00  0.00    -0.018 F  
HETATM   31  C   UNL     1      -6.838   4.898  63.801  1.00  0.00    -0.047 A  
HETATM   32  C   UNL     1      -7.836   4.916  64.780  1.00  0.00    -0.090 A  
ENDBRANCH  17  20
ENDBRANCH   9  12
ENDBRANCH   7   8
ENDBRANCH   6   7
ENDBRANCH   3   6
ENDBRANCH   2   3
TORSDOF 7
ENDMDL
MODEL      177
REMARK 921   NORMALIZED FREE ENERGY PREDICTED BY IDOCK:   -4.07 KCAL/MOL
REMARK 922        TOTAL FREE ENERGY PREDICTED BY IDOCK:   -6.82 KCAL/MOL
REMARK 923 INTER-LIGAND FREE ENERGY PREDICTED BY IDOCK:   -5.70 KCAL/MOL
REMARK 924 INTRA-LIGAND FREE ENERGY PREDICTED BY IDOCK:   -1.12 KCAL/MOL
REMARK 927      BINDING AFFINITY PREDICTED BY RF-SCORE:    0.00 PKD
ROOT
HETATM    1  C   UNL     1     -10.447   7.211  66.970  1.00  0.00    -0.392 C  
HETATM    2  C   UNL     1     -10.614   6.392  68.246  1.00  0.00    -0.256 C  
ENDROOT
BRANCH   2   3
HETATM    3  N   UNL     1      -9.726   5.223  68.355  1.00  0.00    -0.134 NA 
BRANCH   3   4
HETATM    4  C   UNL     1      -9.871   4.260  67.245  1.00  0.00    -0.146 C  
HETATM    5  C   UNL     1      -8.860   3.113  67.197  1.00  0.00    -0.155 C  
ENDBRANCH   3   4
BRANCH   3   6
HETATM    6  C   UNL     1      -8.308   5.631  68.510  1.00  0.00    -0.106 C  
BRANCH   6   7
HETATM    7  C   UNL     1      -8.008   6.586  69.679  1.00  0.00    -0.120 C  
BRANCH   7   8
HETATM    8  N   UNL     1      -7.868   7.957  69.247  1.00  0.00    -0.113 N  
HETATM    9  C   UNL     1      -8.420   8.987  69.968  1.00  0.00    -0.145 C  
HETATM   10  H   UNL     1      -7.351   8.165  68.392  1.00  0.00     0.000 HD 
HETATM   11  O   UNL     1      -9.036   8.795  71.014  1.00  0.00    -0.177 OA 
BRANCH   9  12
HETATM   12  C   UNL     1      -8.194  10.331  69.430  1.00  0.00    -0.171 A  
HETATM   13  C   UNL     1      -7.019  11.076  69.410  1.00  0.00    -0.126 A  
HETATM   14  C   UNL     1      -5.631  10.801  69.874  1.00  0.00    -0.057 C  
HETATM   15  N   UNL     1      -7.288  12.267  68.769  1.00  0.00    -0.176 NA 
HETATM   16  H   UNL     1      -6.611  13.019  68.637  1.00  0.00     0.000 HD 
HETATM   17  C   UNL     1      -8.585  12.306  68.334  1.00  0.00    -0.136 A  
HETATM   18  C   UNL     1      -9.182  11.115  68.729  1.00  0.00    -0.151 A  
HETATM   19  C   UNL     1     -10.595  10.690  68.480  1.00  0.00    -0.229 C  
BRANCH  17  20
HETATM   20  C   UNL     1      -9.127  13.399  67.610  1.00  0.00    -0.203 C  
HETATM   21  C   UNL     1      -9.090  14.714  67.859  1.00  0.00    -0.189 C  
HETATM   22  C   UNL     1      -8.480  15.511  68.983  1.00  0.00    -0.229 C  
HETATM   23  N   UNL     1      -8.780  16.838  68.691  1.00  0.00    -0.247 N  
HETATM   24  O   UNL     1      -7.862  15.099  69.944  1.00  0.00    -0.144 OA 
HETATM   25  C   UNL     1      -9.507  16.950  67.510  1.00  0.00    -0.241 A  
HETATM   26  H   UNL     1      -8.501  17.630  69.270  1.00  0.00     0.000 HD 
HETATM   27  C   UNL     1      -9.726  15.688  66.952  1.00  0.00    -0.240 A  
HETATM   28  C   UNL     1     -10.426  15.553  65.766  1.00  0.00    -0.378 A  
HETATM   29  C   UNL     1     -10.903  16.712  65.162  1.00  0.00    -0.186 A  
HETATM   30  F   UNL     1     -11.587  16.614  64.016  1.00  0.00    -0.418 F  
HETATM   31  C   UNL     1     -10.687  17.978  65.724  1.00  0.00    -0.091 A  
HETATM   32  C   UNL     1      -9.974  18.110  66.920  1.00  0.00    -0.345 A  
ENDBRANCH  17  20
ENDBRANCH   9  12
ENDBRANCH   7   8
ENDBRANCH   6   7
ENDBRANCH   3   6
ENDBRANCH   2   3
TORSDOF 7
ENDMDL
MODEL      178
REMARK 921   NORMALIZED FREE ENERGY PREDICTED BY IDOCK:   -4.07 KCAL/MOL
REMARK 922        TOTAL FREE ENERGY PREDICTED BY IDOCK:   -6.82 KCAL/MOL
REMARK 923 INTER-LIGAND FREE ENERGY PREDICTED BY IDOCK:   -6.04 KCAL/MOL
REMARK 924 INTRA-LIGAND FREE ENERGY PREDICTED BY IDOCK:   -0.78 KCAL/MOL
REMARK 927      BINDING AFFINITY PREDICTED BY RF-SCORE:    0.00 PKD
ROOT
HETATM    1  C   UNL     1     -11.221  15.550  65.133  1.00  0.00    -0.322 C  
HETATM    2  C   UNL     1     -10.528  16.824  65.604  1.00  0.00    -0.269 C  
ENDROOT
BRANCH   2   3
HETATM    3  N   UNL     1      -9.475  16.622  66.613  1.00  0.00    -0.240 NA 
BRANCH   3   4
HETATM    4  C   UNL     1      -9.065  17.862  67.303  1.00  0.00    -0.251 C  
HETATM    5  C   UNL     1      -9.361  19.177  66.581  1.00  0.00    -0.375 C  
ENDBRANCH   3   4
BRANCH   3   6
HETATM    6  C   UNL     1      -9.858  15.579  67.596  1.00  0.00    -0.213 C  
BRANCH   6   7
HETATM    7  C   UNL     1      -8.707  14.716  68.143  1.00  0.00    -0.168 C  
BRANCH   7   8
HETATM    8  N   UNL     1      -9.182  13.569  68.882  1.00  0.00    -0.388 N  
HETATM    9  C   UNL     1      -9.830  12.537  68.249  1.00  0.00    -0.227 C  
HETATM   10  H   UNL     1      -9.035  13.525  69.891  1.00  0.00     0.000 HD 
HETATM   11  O   UNL     1     -10.017  12.531  67.035  1.00  0.00    -0.210 OA 
BRANCH   9  12
HETATM   12  C   UNL     1     -10.249  11.428  69.110  1.00  0.00    -0.084 A  
HETATM   13  C   UNL     1     -11.376  11.332  69.921  1.00  0.00    -0.249 A  
HETATM   14  C   UNL     1     -12.521  12.247  70.185  1.00  0.00    -0.095 C  
HETATM   15  N   UNL     1     -11.362  10.087  70.514  1.00  0.00    -0.310 NA 
HETATM   16  H   UNL     1     -12.058   9.757  71.182  1.00  0.00     0.000 HD 
HETATM   17  C   UNL     1     -10.289   9.354  70.086  1.00  0.00    -0.233 A  
HETATM   18  C   UNL     1      -9.571  10.158  69.209  1.00  0.00    -0.239 A  
HETATM   19  C   UNL     1      -8.316   9.798  68.477  1.00  0.00    -0.110 C  
BRANCH  17  20
HETATM   20  C   UNL     1     -10.043   8.021  70.505  1.00  0.00    -0.195 C  
HETATM   21  C   UNL     1     -10.091   6.870  69.822  1.00  0.00    -0.196 C  
HETATM   22  C   UNL     1     -10.426   6.563  68.385  1.00  0.00    -0.218 C  
HETATM   23  N   UNL     1     -10.309   5.181  68.273  1.00  0.00    -0.114 N  
HETATM   24  O   UNL     1     -10.736   7.340  67.505  1.00  0.00    -0.254 OA 
HETATM   25  C   UNL     1      -9.937   4.599  69.481  1.00  0.00    -0.196 A  
HETATM   26  H   UNL     1     -10.474   4.659  67.412  1.00  0.00     0.000 HD 
HETATM   27  C   UNL     1      -9.786   5.580  70.466  1.00  0.00    -0.241 A  
HETATM   28  C   UNL     1      -9.413   5.234  71.753  1.00  0.00    -0.183 A  
HETATM   29  C   UNL     1      -9.205   3.885  72.025  1.00  0.00    -0.121 A  
HETATM   30  F   UNL     1      -8.847   3.518  73.262  1.00  0.00    -0.086 F  
HETATM   31  C   UNL     1      -9.361   2.902  71.038  1.00  0.00    -0.218 A  
HETATM   32  C   UNL     1      -9.733   3.256  69.738  1.00  0.00    -0.038 A  
ENDBRANCH  17  20
ENDBRANCH   9  12
ENDBRANCH   7   8
ENDBRANCH   6   7
ENDBRANCH   3   6
ENDBRANCH   2   3
TORSDOF 7
ENDMDL
MODEL      179
REMARK 921   NORMALIZED FREE ENERGY PREDICTED BY IDOCK:   -4.02 KCAL/MOL
REMARK 922        TOTAL FREE ENERGY PREDICTED BY IDOCK:   -6.76 KCAL/MOL
REMARK 923 INTER-LIGAND FREE ENERGY PREDICTED BY IDOCK:   -6.04 KCAL/MOL
REMARK 924 INTRA-LIGAND FREE ENERGY PREDICTED BY IDOCK:   -0.72 KCAL/MOL
REMARK 927      BINDING AFFINITY PREDICTED BY RF-SCORE:    0.00 PKD
ROOT
HETATM    1  C   UNL     1     -10.606  19.951  65.893  1.00  0.00    -0.523 C  
HETATM    2  C   UNL     1      -9.308  19.446  66.517  1.00  0.00    -0.359 C  
ENDROOT
BRANCH   2   3
HETATM    3  N   UNL     1      -9.392  18.109  67.128  1.00  0.00    -0.259 NA 
BRANCH   3   4
HETATM    4  C   UNL     1     -10.737  17.767  67.631  1.00  0.00    -0.322 C  
HETATM    5  C   UNL     1     -10.805  16.733  68.756  1.00  0.00    -0.318 C  
ENDBRANCH   3   4
BRANCH   3   6
HETATM    6  C   UNL     1      -8.897  17.059  66.205  1.00  0.00    -0.254 C  
BRANCH   6   7
HETATM    7  C   UNL     1      -7.441  16.606  66.421  1.00  0.00    -0.225 C  
BRANCH   7   8
HETATM    8  N   UNL     1      -7.355  15.269  66.962  1.00  0.00    -0.212 N  
HETATM    9  C   UNL     1      -7.359  15.053  68.318  1.00  0.00    -0.111 C  
HETATM   10  H   UNL     1      -7.291  14.474  66.328  1.00  0.00     0.000 HD 
HETATM   11  O   UNL     1      -7.453  15.974  69.126  1.00  0.00    -0.193 OA 
BRANCH   9  12
HETATM   12  C   UNL     1      -7.280  13.651  68.737  1.00  0.00    -0.100 A  
HETATM   13  C   UNL     1      -6.365  13.046  69.592  1.00  0.00    -0.089 A  
HETATM   14  C   UNL     1      -5.208  13.563  70.375  1.00  0.00    -0.108 C  
HETATM   15  N   UNL     1      -6.714  11.717  69.710  1.00  0.00    -0.329 NA 
HETATM   16  H   UNL     1      -6.196  11.029  70.256  1.00  0.00     0.000 HD 
HETATM   17  C   UNL     1      -7.849  11.445  68.996  1.00  0.00    -0.043 A  
HETATM   18  C   UNL     1      -8.231  12.627  68.374  1.00  0.00    -0.129 A  
HETATM   19  C   UNL     1      -9.417  12.836  67.485  1.00  0.00    -0.187 C  
BRANCH  17  20
HETATM   20  C   UNL     1      -8.458  10.164  68.966  1.00  0.00    -0.151 C  
HETATM   21  C   UNL     1      -8.311   9.110  69.779  1.00  0.00    -0.136 C  
HETATM   22  C   UNL     1      -7.456   8.889  71.000  1.00  0.00    -0.110 C  
HETATM   23  N   UNL     1      -7.734   7.588  71.406  1.00  0.00    -0.084 N  
HETATM   24  O   UNL     1      -6.684   9.666  71.525  1.00  0.00    -0.316 OA 
HETATM   25  C   UNL     1      -8.667   6.980  70.573  1.00  0.00    -0.153 A  
HETATM   26  H   UNL     1      -7.307   7.137  72.215  1.00  0.00     0.000 HD 
HETATM   27  C   UNL     1      -9.061   7.860  69.561  1.00  0.00    -0.149 A  
HETATM   28  C   UNL     1      -9.991   7.471  68.613  1.00  0.00    -0.178 A  
HETATM   29  C   UNL     1     -10.507   6.183  68.704  1.00  0.00    -0.236 A  
HETATM   30  F   UNL     1     -11.407   5.777  67.798  1.00  0.00    -0.254 F  
HETATM   31  C   UNL     1     -10.109   5.299  69.716  1.00  0.00    -0.334 A  
HETATM   32  C   UNL     1      -9.173   5.697  70.675  1.00  0.00    -0.176 A  
ENDBRANCH  17  20
ENDBRANCH   9  12
ENDBRANCH   7   8
ENDBRANCH   6   7
ENDBRANCH   3   6
ENDBRANCH   2   3
TORSDOF 7
ENDMDL
MODEL      180
REMARK 921   NORMALIZED FREE ENERGY PREDICTED BY IDOCK:   -4.02 KCAL/MOL
REMARK 922        TOTAL FREE ENERGY PREDICTED BY IDOCK:   -6.75 KCAL/MOL
REMARK 923 INTER-LIGAND FREE ENERGY PREDICTED BY IDOCK:   -6.89 KCAL/MOL
REMARK 924 INTRA-LIGAND FREE ENERGY PREDICTED BY IDOCK:    0.14 KCAL/MOL
REMARK 927      BINDING AFFINITY PREDICTED BY RF-SCORE:    0.00 PKD
ROOT
HETATM    1  C   UNL     1      -9.774   6.067  74.548  1.00  0.00    -0.263 C  
HETATM    2  C   UNL     1      -9.339   4.605  74.498  1.00  0.00    -0.119 C  
ENDROOT
BRANCH   2   3
HETATM    3  N   UNL     1      -9.700   3.891  73.262  1.00  0.00    -0.112 NA 
BRANCH   3   4
HETATM    4  C   UNL     1     -11.131   3.535  73.177  1.00  0.00    -0.073 C  
HETATM    5  C   UNL     1     -11.529   2.164  73.729  1.00  0.00    -0.269 C  
ENDBRANCH   3   4
BRANCH   3   6
HETATM    6  C   UNL     1      -9.278   4.645  72.056  1.00  0.00    -0.132 C  
BRANCH   6   7
HETATM    7  C   UNL     1     -10.268   4.636  70.878  1.00  0.00    -0.143 C  
BRANCH   7   8
HETATM    8  N   UNL     1     -10.739   5.961  70.545  1.00  0.00    -0.275 N  
HETATM    9  C   UNL     1      -9.968   7.070  70.792  1.00  0.00    -0.190 C  
HETATM   10  H   UNL     1     -11.659   6.076  70.120  1.00  0.00     0.000 HD 
HETATM   11  O   UNL     1      -8.845   6.987  71.285  1.00  0.00    -0.133 OA 
BRANCH   9  12
HETATM   12  C   UNL     1     -10.555   8.352  70.396  1.00  0.00    -0.236 A  
HETATM   13  C   UNL     1     -11.786   8.894  70.750  1.00  0.00    -0.194 A  
HETATM   14  C   UNL     1     -12.892   8.420  71.628  1.00  0.00    -0.355 C  
HETATM   15  N   UNL     1     -11.884  10.137  70.160  1.00  0.00    -0.384 NA 
HETATM   16  H   UNL     1     -12.698  10.748  70.229  1.00  0.00     0.000 HD 
HETATM   17  C   UNL     1     -10.742  10.441  69.470  1.00  0.00    -0.251 A  
HETATM   18  C   UNL     1      -9.890   9.351  69.593  1.00  0.00    -0.205 A  
HETATM   19  C   UNL     1      -8.518   9.210  69.013  1.00  0.00    -0.132 C  
BRANCH  17  20
HETATM   20  C   UNL     1     -10.550  11.673  68.793  1.00  0.00    -0.241 C  
HETATM   21  C   UNL     1     -11.017  12.899  69.065  1.00  0.00    -0.244 C  
HETATM   22  C   UNL     1     -11.911  13.418  70.162  1.00  0.00    -0.326 C  
HETATM   23  N   UNL     1     -12.044  14.778  69.908  1.00  0.00    -0.319 N  
HETATM   24  O   UNL     1     -12.416  12.795  71.075  1.00  0.00    -0.376 OA 
HETATM   25  C   UNL     1     -11.331  15.160  68.776  1.00  0.00    -0.300 A  
HETATM   26  H   UNL     1     -12.596  15.418  70.481  1.00  0.00     0.000 HD 
HETATM   27  C   UNL     1     -10.680  14.057  68.218  1.00  0.00    -0.262 A  
HETATM   28  C   UNL     1      -9.901  14.198  67.082  1.00  0.00    -0.253 A  
HETATM   29  C   UNL     1      -9.801  15.468  66.522  1.00  0.00    -0.264 A  
HETATM   30  F   UNL     1      -9.058  15.636  65.420  1.00  0.00    -0.248 F  
HETATM   31  C   UNL     1     -10.458  16.573  67.079  1.00  0.00    -0.289 A  
HETATM   32  C   UNL     1     -11.239  16.427  68.229  1.00  0.00    -0.300 A  
ENDBRANCH  17  20
ENDBRANCH   9  12
ENDBRANCH   7   8
ENDBRANCH   6   7
ENDBRANCH   3   6
ENDBRANCH   2   3
TORSDOF 7
ENDMDL
MODEL      181
REMARK 921   NORMALIZED FREE ENERGY PREDICTED BY IDOCK:   -4.01 KCAL/MOL
REMARK 922        TOTAL FREE ENERGY PREDICTED BY IDOCK:   -6.74 KCAL/MOL
REMARK 923 INTER-LIGAND FREE ENERGY PREDICTED BY IDOCK:   -5.81 KCAL/MOL
REMARK 924 INTRA-LIGAND FREE ENERGY PREDICTED BY IDOCK:   -0.93 KCAL/MOL
REMARK 927      BINDING AFFINITY PREDICTED BY RF-SCORE:    0.00 PKD
ROOT
HETATM    1  C   UNL     1     -12.447  15.085  74.032  1.00  0.00    -0.636 C  
HETATM    2  C   UNL     1     -11.889  14.875  72.628  1.00  0.00    -0.214 C  
ENDROOT
BRANCH   2   3
HETATM    3  N   UNL     1     -12.695  13.995  71.765  1.00  0.00    -0.330 NA 
BRANCH   3   4
HETATM    4  C   UNL     1     -13.491  12.998  72.508  1.00  0.00    -0.419 C  
HETATM    5  C   UNL     1     -13.365  11.543  72.052  1.00  0.00    -0.397 C  
ENDBRANCH   3   4
BRANCH   3   6
HETATM    6  C   UNL     1     -13.562  14.778  70.850  1.00  0.00    -0.223 C  
BRANCH   6   7
HETATM    7  C   UNL     1     -12.837  15.775  69.927  1.00  0.00     0.321 C  
BRANCH   7   8
HETATM    8  N   UNL     1     -11.942  15.118  69.003  1.00  0.00    -0.494 N  
HETATM    9  C   UNL     1     -10.584  15.129  69.204  1.00  0.00    -0.256 C  
HETATM   10  H   UNL     1     -12.324  14.638  68.188  1.00  0.00     0.000 HD 
HETATM   11  O   UNL     1     -10.072  15.676  70.178  1.00  0.00    -0.294 OA 
BRANCH   9  12
HETATM   12  C   UNL     1      -9.789  14.414  68.201  1.00  0.00    -0.223 A  
HETATM   13  C   UNL     1      -8.820  14.916  67.338  1.00  0.00    -0.193 A  
HETATM   14  C   UNL     1      -8.243  16.274  67.134  1.00  0.00    -0.219 C  
HETATM   15  N   UNL     1      -8.324  13.860  66.604  1.00  0.00    -0.395 NA 
HETATM   16  H   UNL     1      -7.618  13.944  65.872  1.00  0.00     0.000 HD 
HETATM   17  C   UNL     1      -8.905  12.682  66.988  1.00  0.00    -0.212 A  
HETATM   18  C   UNL     1      -9.825  12.988  67.983  1.00  0.00    -0.224 A  
HETATM   19  C   UNL     1     -10.708  12.031  68.720  1.00  0.00    -0.252 C  
BRANCH  17  20
HETATM   20  C   UNL     1      -8.557  11.426  66.427  1.00  0.00    -0.174 C  
HETATM   21  C   UNL     1      -7.858  10.405  66.939  1.00  0.00    -0.114 C  
HETATM   22  C   UNL     1      -7.182  10.214  68.273  1.00  0.00    -0.080 C  
HETATM   23  N   UNL     1      -6.612   8.947  68.212  1.00  0.00    -0.060 N  
HETATM   24  O   UNL     1      -7.134  10.990  69.206  1.00  0.00    -0.102 OA 
HETATM   25  C   UNL     1      -6.861   8.332  66.988  1.00  0.00    -0.070 A  
HETATM   26  H   UNL     1      -6.078   8.521  68.970  1.00  0.00     0.000 HD 
HETATM   27  C   UNL     1      -7.620   9.172  66.169  1.00  0.00    -0.095 A  
HETATM   28  C   UNL     1      -7.994   8.766  64.899  1.00  0.00    -0.135 A  
HETATM   29  C   UNL     1      -7.583   7.506  64.476  1.00  0.00    -0.110 A  
HETATM   30  F   UNL     1      -7.926   7.087  63.251  1.00  0.00    -0.111 F  
HETATM   31  C   UNL     1      -6.818   6.666  65.297  1.00  0.00    -0.054 A  
HETATM   32  C   UNL     1      -6.446   7.078  66.580  1.00  0.00    -0.051 A  
ENDBRANCH  17  20
ENDBRANCH   9  12
ENDBRANCH   7   8
ENDBRANCH   6   7
ENDBRANCH   3   6
ENDBRANCH   2   3
TORSDOF 7
ENDMDL
MODEL      182
REMARK 921   NORMALIZED FREE ENERGY PREDICTED BY IDOCK:   -4.01 KCAL/MOL
REMARK 922        TOTAL FREE ENERGY PREDICTED BY IDOCK:   -6.73 KCAL/MOL
REMARK 923 INTER-LIGAND FREE ENERGY PREDICTED BY IDOCK:   -5.58 KCAL/MOL
REMARK 924 INTRA-LIGAND FREE ENERGY PREDICTED BY IDOCK:   -1.15 KCAL/MOL
REMARK 927      BINDING AFFINITY PREDICTED BY RF-SCORE:    0.00 PKD
ROOT
HETATM    1  C   UNL     1     -12.924  13.776  65.322  1.00  0.00    -0.328 C  
HETATM    2  C   UNL     1     -11.940  13.852  66.486  1.00  0.00    -0.439 C  
ENDROOT
BRANCH   2   3
HETATM    3  N   UNL     1     -11.417  15.199  66.769  1.00  0.00    -0.258 NA 
BRANCH   3   4
HETATM    4  C   UNL     1     -11.181  15.457  68.204  1.00  0.00    -0.325 C  
HETATM    5  C   UNL     1     -11.985  14.610  69.192  1.00  0.00    -0.329 C  
ENDBRANCH   3   4
BRANCH   3   6
HETATM    6  C   UNL     1     -10.193  15.483  65.980  1.00  0.00    -0.330 C  
BRANCH   6   7
HETATM    7  C   UNL     1      -8.856  15.245  66.705  1.00  0.00    -0.271 C  
BRANCH   7   8
HETATM    8  N   UNL     1      -8.495  13.847  66.749  1.00  0.00    -0.439 N  
HETATM    9  C   UNL     1      -7.854  13.315  67.840  1.00  0.00    -0.152 C  
HETATM   10  H   UNL     1      -8.721  13.245  65.957  1.00  0.00     0.000 HD 
HETATM   11  O   UNL     1      -7.575  13.991  68.828  1.00  0.00    -0.123 OA 
BRANCH   9  12
HETATM   12  C   UNL     1      -7.556  11.882  67.765  1.00  0.00    -0.130 A  
HETATM   13  C   UNL     1      -6.423  11.252  67.261  1.00  0.00    -0.085 A  
HETATM   14  C   UNL     1      -5.154  11.760  66.668  1.00  0.00    -0.041 C  
HETATM   15  N   UNL     1      -6.584   9.894  67.436  1.00  0.00    -0.069 NA 
HETATM   16  H   UNL     1      -5.914   9.187  67.131  1.00  0.00     0.000 HD 
HETATM   17  C   UNL     1      -7.762   9.620  68.075  1.00  0.00    -0.086 A  
HETATM   18  C   UNL     1      -8.397  10.836  68.296  1.00  0.00    -0.125 A  
HETATM   19  C   UNL     1      -9.716  11.055  68.968  1.00  0.00    -0.151 C  
BRANCH  17  20
HETATM   20  C   UNL     1      -8.171   8.306  68.419  1.00  0.00    -0.132 C  
HETATM   21  C   UNL     1      -8.226   7.694  69.609  1.00  0.00    -0.128 C  
HETATM   22  C   UNL     1      -7.872   8.156  71.000  1.00  0.00    -0.090 C  
HETATM   23  N   UNL     1      -8.138   7.067  71.822  1.00  0.00    -0.099 N  
HETATM   24  O   UNL     1      -7.444   9.240  71.342  1.00  0.00    -0.316 OA 
HETATM   25  C   UNL     1      -8.618   5.982  71.096  1.00  0.00    -0.129 A  
HETATM   26  H   UNL     1      -7.999   7.065  72.833  1.00  0.00     0.000 HD 
HETATM   27  C   UNL     1      -8.697   6.303  69.738  1.00  0.00    -0.137 A  
HETATM   28  C   UNL     1      -9.155   5.374  68.820  1.00  0.00    -0.135 A  
HETATM   29  C   UNL     1      -9.523   4.120  69.298  1.00  0.00    -0.188 A  
HETATM   30  F   UNL     1      -9.967   3.199  68.434  1.00  0.00    -0.149 F  
HETATM   31  C   UNL     1      -9.439   3.797  70.660  1.00  0.00    -0.240 A  
HETATM   32  C   UNL     1      -8.981   4.740  71.584  1.00  0.00    -0.160 A  
ENDBRANCH  17  20
ENDBRANCH   9  12
ENDBRANCH   7   8
ENDBRANCH   6   7
ENDBRANCH   3   6
ENDBRANCH   2   3
TORSDOF 7
ENDMDL
MODEL      183
REMARK 921   NORMALIZED FREE ENERGY PREDICTED BY IDOCK:   -3.99 KCAL/MOL
REMARK 922        TOTAL FREE ENERGY PREDICTED BY IDOCK:   -6.71 KCAL/MOL
REMARK 923 INTER-LIGAND FREE ENERGY PREDICTED BY IDOCK:   -5.68 KCAL/MOL
REMARK 924 INTRA-LIGAND FREE ENERGY PREDICTED BY IDOCK:   -1.03 KCAL/MOL
REMARK 927      BINDING AFFINITY PREDICTED BY RF-SCORE:    0.00 PKD
ROOT
HETATM    1  C   UNL     1      -8.594   2.925  71.314  1.00  0.00    -0.103 C  
HETATM    2  C   UNL     1      -8.834   4.406  71.591  1.00  0.00    -0.119 C  
ENDROOT
BRANCH   2   3
HETATM    3  N   UNL     1      -9.716   5.084  70.627  1.00  0.00    -0.183 NA 
BRANCH   3   4
HETATM    4  C   UNL     1     -11.048   5.418  71.171  1.00  0.00     0.029 C  
HETATM    5  C   UNL     1     -11.158   5.525  72.693  1.00  0.00    -0.334 C  
ENDBRANCH   3   4
BRANCH   3   6
HETATM    6  C   UNL     1      -9.069   6.288  70.053  1.00  0.00    -0.148 C  
BRANCH   6   7
HETATM    7  C   UNL     1      -9.992   7.236  69.265  1.00  0.00    -0.170 C  
BRANCH   7   8
HETATM    8  N   UNL     1      -9.557   8.612  69.337  1.00  0.00    -0.165 N  
HETATM    9  C   UNL     1      -8.918   9.209  68.279  1.00  0.00    -0.129 C  
HETATM   10  H   UNL     1      -9.728   9.149  70.188  1.00  0.00     0.000 HD 
HETATM   11  O   UNL     1      -8.704   8.614  67.225  1.00  0.00    -0.127 OA 
BRANCH   9  12
HETATM   12  C   UNL     1      -8.542  10.612  68.474  1.00  0.00    -0.137 A  
HETATM   13  C   UNL     1      -7.411  11.132  69.096  1.00  0.00    -0.109 A  
HETATM   14  C   UNL     1      -6.221  10.505  69.735  1.00  0.00    -0.074 C  
HETATM   15  N   UNL     1      -7.478  12.507  69.006  1.00  0.00    -0.313 NA 
HETATM   16  H   UNL     1      -6.790  13.147  69.405  1.00  0.00     0.000 HD 
HETATM   17  C   UNL     1      -8.590  12.898  68.311  1.00  0.00    -0.170 A  
HETATM   18  C   UNL     1      -9.279  11.743  67.964  1.00  0.00    -0.181 A  
HETATM   19  C   UNL     1     -10.558  11.654  67.192  1.00  0.00    -0.269 C  
BRANCH  17  20
HETATM   20  C   UNL     1      -8.893  14.255  68.034  1.00  0.00    -0.178 C  
HETATM   21  C   UNL     1      -8.115  15.249  67.585  1.00  0.00    -0.173 C  
HETATM   22  C   UNL     1      -6.653  15.300  67.223  1.00  0.00     0.025 C  
HETATM   23  N   UNL     1      -6.423  16.614  66.828  1.00  0.00    -0.190 N  
HETATM   24  O   UNL     1      -5.839  14.400  67.265  1.00  0.00    -0.293 OA 
HETATM   25  C   UNL     1      -7.582  17.382  66.905  1.00  0.00    -0.219 A  
HETATM   26  H   UNL     1      -5.519  16.970  66.520  1.00  0.00     0.000 HD 
HETATM   27  C   UNL     1      -8.650  16.604  67.359  1.00  0.00    -0.203 A  
HETATM   28  C   UNL     1      -9.910  17.157  67.509  1.00  0.00    -0.266 A  
HETATM   29  C   UNL     1     -10.065  18.505  67.200  1.00  0.00    -0.353 A  
HETATM   30  F   UNL     1     -11.271  19.069  67.339  1.00  0.00    -0.506 F  
HETATM   31  C   UNL     1      -8.992  19.285  66.750  1.00  0.00    -0.360 A  
HETATM   32  C   UNL     1      -7.722  18.721  66.595  1.00  0.00    -0.262 A  
ENDBRANCH  17  20
ENDBRANCH   9  12
ENDBRANCH   7   8
ENDBRANCH   6   7
ENDBRANCH   3   6
ENDBRANCH   2   3
TORSDOF 7
ENDMDL
MODEL      184
REMARK 921   NORMALIZED FREE ENERGY PREDICTED BY IDOCK:   -3.98 KCAL/MOL
REMARK 922        TOTAL FREE ENERGY PREDICTED BY IDOCK:   -6.69 KCAL/MOL
REMARK 923 INTER-LIGAND FREE ENERGY PREDICTED BY IDOCK:   -5.68 KCAL/MOL
REMARK 924 INTRA-LIGAND FREE ENERGY PREDICTED BY IDOCK:   -1.02 KCAL/MOL
REMARK 927      BINDING AFFINITY PREDICTED BY RF-SCORE:    0.00 PKD
ROOT
HETATM    1  C   UNL     1     -12.237  14.171  65.189  1.00  0.00    -0.439 C  
HETATM    2  C   UNL     1     -11.234  15.287  64.914  1.00  0.00    -0.415 C  
ENDROOT
BRANCH   2   3
HETATM    3  N   UNL     1     -10.376  15.647  66.055  1.00  0.00    -0.315 NA 
BRANCH   3   4
HETATM    4  C   UNL     1     -10.193  17.102  66.227  1.00  0.00    -0.334 C  
HETATM    5  C   UNL     1     -10.708  17.708  67.534  1.00  0.00    -0.294 C  
ENDBRANCH   3   4
BRANCH   3   6
HETATM    6  C   UNL     1     -10.861  15.030  67.314  1.00  0.00    -0.310 C  
BRANCH   6   7
HETATM    7  C   UNL     1      -9.819  14.229  68.115  1.00  0.00    -0.226 C  
BRANCH   7   8
HETATM    8  N   UNL     1     -10.016  12.802  68.003  1.00  0.00    -0.219 N  
HETATM    9  C   UNL     1      -8.976  11.967  67.678  1.00  0.00    -0.172 C  
HETATM   10  H   UNL     1     -10.942  12.409  68.167  1.00  0.00     0.000 HD 
HETATM   11  O   UNL     1      -7.837  12.387  67.487  1.00  0.00    -0.147 OA 
BRANCH   9  12
HETATM   12  C   UNL     1      -9.305  10.541  67.609  1.00  0.00    -0.160 A  
HETATM   13  C   UNL     1      -9.797   9.811  66.532  1.00  0.00    -0.225 A  
HETATM   14  C   UNL     1     -10.131  10.170  65.126  1.00  0.00    -0.329 C  
HETATM   15  N   UNL     1      -9.919   8.497  66.935  1.00  0.00    -0.238 NA 
HETATM   16  H   UNL     1     -10.284   7.744  66.352  1.00  0.00     0.000 HD 
HETATM   17  C   UNL     1      -9.483   8.340  68.223  1.00  0.00    -0.138 A  
HETATM   18  C   UNL     1      -9.093   9.593  68.677  1.00  0.00    -0.132 A  
HETATM   19  C   UNL     1      -8.542   9.932  70.026  1.00  0.00    -0.196 C  
BRANCH  17  20
HETATM   20  C   UNL     1      -9.459   7.085  68.885  1.00  0.00    -0.137 C  
HETATM   21  C   UNL     1      -8.536   6.114  68.880  1.00  0.00    -0.118 C  
HETATM   22  C   UNL     1      -7.209   5.987  68.176  1.00  0.00    -0.080 C  
HETATM   23  N   UNL     1      -6.713   4.746  68.560  1.00  0.00    -0.049 N  
HETATM   24  O   UNL     1      -6.677   6.785  67.431  1.00  0.00    -0.061 OA 
HETATM   25  C   UNL     1      -7.586   4.090  69.423  1.00  0.00    -0.053 A  
HETATM   26  H   UNL     1      -5.821   4.363  68.247  1.00  0.00     0.000 HD 
HETATM   27  C   UNL     1      -8.717   4.876  69.660  1.00  0.00    -0.109 A  
HETATM   28  C   UNL     1      -9.724   4.428  70.497  1.00  0.00    -0.287 A  
HETATM   29  C   UNL     1      -9.568   3.175  71.081  1.00  0.00    -0.160 A  
HETATM   30  F   UNL     1     -10.528   2.712  71.893  1.00  0.00    -0.200 F  
HETATM   31  C   UNL     1      -8.436   2.385  70.839  1.00  0.00    -0.089 A  
HETATM   32  C   UNL     1      -7.419   2.844  69.997  1.00  0.00    -0.044 A  
ENDBRANCH  17  20
ENDBRANCH   9  12
ENDBRANCH   7   8
ENDBRANCH   6   7
ENDBRANCH   3   6
ENDBRANCH   2   3
TORSDOF 7
ENDMDL
MODEL      185
REMARK 921   NORMALIZED FREE ENERGY PREDICTED BY IDOCK:   -3.97 KCAL/MOL
REMARK 922        TOTAL FREE ENERGY PREDICTED BY IDOCK:   -6.68 KCAL/MOL
REMARK 923 INTER-LIGAND FREE ENERGY PREDICTED BY IDOCK:   -6.63 KCAL/MOL
REMARK 924 INTRA-LIGAND FREE ENERGY PREDICTED BY IDOCK:   -0.05 KCAL/MOL
REMARK 927      BINDING AFFINITY PREDICTED BY RF-SCORE:    0.00 PKD
ROOT
HETATM    1  C   UNL     1      -6.519   8.722  71.481  1.00  0.00    -0.074 C  
HETATM    2  C   UNL     1      -7.042   8.709  72.914  1.00  0.00     0.065 C  
ENDROOT
BRANCH   2   3
HETATM    3  N   UNL     1      -7.273   7.368  73.479  1.00  0.00    -0.081 NA 
BRANCH   3   4
HETATM    4  C   UNL     1      -6.051   6.724  74.002  1.00  0.00    -0.064 C  
HETATM    5  C   UNL     1      -6.086   5.201  74.139  1.00  0.00    -0.056 C  
ENDBRANCH   3   4
BRANCH   3   6
HETATM    6  C   UNL     1      -8.335   7.391  74.514  1.00  0.00    -0.204 C  
BRANCH   6   7
HETATM    7  C   UNL     1      -9.760   7.078  74.022  1.00  0.00    -0.296 C  
BRANCH   7   8
HETATM    8  N   UNL     1      -9.973   7.494  72.654  1.00  0.00    -0.190 N  
HETATM    9  C   UNL     1      -9.888   6.596  71.620  1.00  0.00    -0.166 C  
HETATM   10  H   UNL     1     -10.190   8.471  72.454  1.00  0.00     0.000 HD 
HETATM   11  O   UNL     1      -9.647   5.406  71.806  1.00  0.00    -0.145 OA 
BRANCH   9  12
HETATM   12  C   UNL     1     -10.138   7.143  70.283  1.00  0.00    -0.195 A  
HETATM   13  C   UNL     1     -10.279   6.464  69.077  1.00  0.00    -0.183 A  
HETATM   14  C   UNL     1     -10.255   5.021  68.711  1.00  0.00    -0.164 C  
HETATM   15  N   UNL     1     -10.538   7.400  68.097  1.00  0.00    -0.326 NA 
HETATM   16  H   UNL     1     -10.658   7.183  67.107  1.00  0.00     0.000 HD 
HETATM   17  C   UNL     1     -10.613   8.658  68.630  1.00  0.00    -0.129 A  
HETATM   18  C   UNL     1     -10.368   8.537  69.992  1.00  0.00    -0.213 A  
HETATM   19  C   UNL     1     -10.345   9.639  71.004  1.00  0.00    -0.292 C  
BRANCH  17  20
HETATM   20  C   UNL     1     -10.904   9.811  67.857  1.00  0.00    -0.298 C  
HETATM   21  C   UNL     1     -10.563  10.128  66.601  1.00  0.00    -0.214 C  
HETATM   22  C   UNL     1      -9.751   9.399  65.561  1.00  0.00    -0.230 C  
HETATM   23  N   UNL     1      -9.742  10.240  64.453  1.00  0.00    -0.316 N  
HETATM   24  O   UNL     1      -9.213   8.314  65.656  1.00  0.00    -0.130 OA 
HETATM   25  C   UNL     1     -10.459  11.408  64.691  1.00  0.00    -0.315 A  
HETATM   26  H   UNL     1      -9.269  10.026  63.575  1.00  0.00     0.000 HD 
HETATM   27  C   UNL     1     -10.988  11.398  65.985  1.00  0.00    -0.286 A  
HETATM   28  C   UNL     1     -11.746  12.461  66.444  1.00  0.00    -0.453 A  
HETATM   29  C   UNL     1     -11.953  13.530  65.577  1.00  0.00    -0.390 A  
HETATM   30  F   UNL     1     -12.680  14.574  65.994  1.00  0.00    -0.381 F  
HETATM   31  C   UNL     1     -11.419  13.541  64.281  1.00  0.00    -0.414 A  
HETATM   32  C   UNL     1     -10.657  12.463  63.820  1.00  0.00    -0.486 A  
ENDBRANCH  17  20
ENDBRANCH   9  12
ENDBRANCH   7   8
ENDBRANCH   6   7
ENDBRANCH   3   6
ENDBRANCH   2   3
TORSDOF 7
ENDMDL
MODEL      186
REMARK 921   NORMALIZED FREE ENERGY PREDICTED BY IDOCK:   -3.96 KCAL/MOL
REMARK 922        TOTAL FREE ENERGY PREDICTED BY IDOCK:   -6.67 KCAL/MOL
REMARK 923 INTER-LIGAND FREE ENERGY PREDICTED BY IDOCK:   -6.60 KCAL/MOL
REMARK 924 INTRA-LIGAND FREE ENERGY PREDICTED BY IDOCK:   -0.07 KCAL/MOL
REMARK 927      BINDING AFFINITY PREDICTED BY RF-SCORE:    0.00 PKD
ROOT
HETATM    1  C   UNL     1      -6.111  18.548  65.030  1.00  0.00    -0.218 C  
HETATM    2  C   UNL     1      -5.977  18.421  66.544  1.00  0.00    -0.156 C  
ENDROOT
BRANCH   2   3
HETATM    3  N   UNL     1      -6.805  17.368  67.155  1.00  0.00    -0.164 NA 
BRANCH   3   4
HETATM    4  C   UNL     1      -7.310  17.713  68.500  1.00  0.00    -0.256 C  
HETATM    5  C   UNL     1      -7.486  19.202  68.804  1.00  0.00    -0.379 C  
ENDBRANCH   3   4
BRANCH   3   6
HETATM    6  C   UNL     1      -7.922  16.971  66.264  1.00  0.00    -0.308 C  
BRANCH   6   7
HETATM    7  C   UNL     1      -9.242  16.602  66.965  1.00  0.00    -0.220 C  
BRANCH   7   8
HETATM    8  N   UNL     1      -9.500  15.180  66.939  1.00  0.00    -0.227 N  
HETATM    9  C   UNL     1     -10.074  14.584  65.844  1.00  0.00    -0.326 C  
HETATM   10  H   UNL     1      -9.252  14.610  67.748  1.00  0.00     0.000 HD 
HETATM   11  O   UNL     1     -10.375  15.221  64.837  1.00  0.00    -0.363 OA 
BRANCH   9  12
HETATM   12  C   UNL     1     -10.269  13.135  65.939  1.00  0.00    -0.294 A  
HETATM   13  C   UNL     1     -11.030  12.303  65.125  1.00  0.00    -0.303 A  
HETATM   14  C   UNL     1     -11.860  12.546  63.913  1.00  0.00    -0.544 C  
HETATM   15  N   UNL     1     -10.879  11.012  65.586  1.00  0.00    -0.150 NA 
HETATM   16  H   UNL     1     -11.349  10.197  65.191  1.00  0.00     0.000 HD 
HETATM   17  C   UNL     1     -10.013  10.969  66.644  1.00  0.00    -0.209 A  
HETATM   18  C   UNL     1      -9.612  12.275  66.895  1.00  0.00    -0.214 A  
HETATM   19  C   UNL     1      -8.664  12.740  67.956  1.00  0.00    -0.194 C  
BRANCH  17  20
HETATM   20  C   UNL     1      -9.643   9.764  67.295  1.00  0.00    -0.194 C  
HETATM   21  C   UNL     1      -9.947   9.304  68.516  1.00  0.00    -0.193 C  
HETATM   22  C   UNL     1     -10.771   9.884  69.637  1.00  0.00    -0.252 C  
HETATM   23  N   UNL     1     -10.712   8.939  70.656  1.00  0.00    -0.221 N  
HETATM   24  O   UNL     1     -11.361  10.945  69.661  1.00  0.00    -0.245 OA 
HETATM   25  C   UNL     1      -9.943   7.838  70.290  1.00  0.00    -0.189 A  
HETATM   26  H   UNL     1     -11.175   9.041  71.559  1.00  0.00     0.000 HD 
HETATM   27  C   UNL     1      -9.451   8.000  68.993  1.00  0.00    -0.151 A  
HETATM   28  C   UNL     1      -8.660   7.023  68.412  1.00  0.00    -0.126 A  
HETATM   29  C   UNL     1      -8.375   5.890  69.168  1.00  0.00    -0.106 A  
HETATM   30  F   UNL     1      -7.610   4.928  68.635  1.00  0.00    -0.072 F  
HETATM   31  C   UNL     1      -8.866   5.730  70.471  1.00  0.00    -0.144 A  
HETATM   32  C   UNL     1      -9.668   6.718  71.051  1.00  0.00    -0.182 A  
ENDBRANCH  17  20
ENDBRANCH   9  12
ENDBRANCH   7   8
ENDBRANCH   6   7
ENDBRANCH   3   6
ENDBRANCH   2   3
TORSDOF 7
ENDMDL
MODEL      187
REMARK 921   NORMALIZED FREE ENERGY PREDICTED BY IDOCK:   -3.94 KCAL/MOL
REMARK 922        TOTAL FREE ENERGY PREDICTED BY IDOCK:   -6.64 KCAL/MOL
REMARK 923 INTER-LIGAND FREE ENERGY PREDICTED BY IDOCK:   -5.39 KCAL/MOL
REMARK 924 INTRA-LIGAND FREE ENERGY PREDICTED BY IDOCK:   -1.24 KCAL/MOL
REMARK 927      BINDING AFFINITY PREDICTED BY RF-SCORE:    0.00 PKD
ROOT
HETATM    1  C   UNL     1     -10.429  16.951  65.689  1.00  0.00    -0.252 C  
HETATM    2  C   UNL     1     -10.188  15.501  65.279  1.00  0.00    -0.346 C  
ENDROOT
BRANCH   2   3
HETATM    3  N   UNL     1     -10.750  14.494  66.195  1.00  0.00    -0.303 NA 
BRANCH   3   4
HETATM    4  C   UNL     1     -11.230  15.055  67.474  1.00  0.00    -0.330 C  
HETATM    5  C   UNL     1     -10.674  14.422  68.750  1.00  0.00    -0.258 C  
ENDBRANCH   3   4
BRANCH   3   6
HETATM    6  C   UNL     1     -11.818  13.701  65.539  1.00  0.00    -0.362 C  
BRANCH   6   7
HETATM    7  C   UNL     1     -11.459  12.244  65.198  1.00  0.00    -0.341 C  
BRANCH   7   8
HETATM    8  N   UNL     1     -10.963  11.517  66.343  1.00  0.00    -0.291 N  
HETATM    9  C   UNL     1      -9.705  10.968  66.343  1.00  0.00    -0.201 C  
HETATM   10  H   UNL     1     -11.557  11.409  67.166  1.00  0.00     0.000 HD 
HETATM   11  O   UNL     1      -8.942  11.083  65.386  1.00  0.00    -0.198 OA 
BRANCH   9  12
HETATM   12  C   UNL     1      -9.318  10.268  67.571  1.00  0.00    -0.164 A  
HETATM   13  C   UNL     1      -8.559  10.737  68.639  1.00  0.00    -0.151 A  
HETATM   14  C   UNL     1      -7.917  12.048  68.934  1.00  0.00     0.069 C  
HETATM   15  N   UNL     1      -8.489   9.730  69.579  1.00  0.00    -0.154 NA 
HETATM   16  H   UNL     1      -7.970   9.790  70.454  1.00  0.00     0.000 HD 
HETATM   17  C   UNL     1      -9.210   8.638  69.179  1.00  0.00    -0.152 A  
HETATM   18  C   UNL     1      -9.741   8.936  67.930  1.00  0.00    -0.190 A  
HETATM   19  C   UNL     1     -10.607   8.055  67.085  1.00  0.00    -0.367 C  
BRANCH  17  20
HETATM   20  C   UNL     1      -9.345   7.466  69.967  1.00  0.00    -0.151 C  
HETATM   21  C   UNL     1      -8.416   6.684  70.533  1.00  0.00    -0.138 C  
HETATM   22  C   UNL     1      -6.910   6.748  70.536  1.00  0.00    -0.058 C  
HETATM   23  N   UNL     1      -6.502   5.654  71.291  1.00  0.00    -0.042 N  
HETATM   24  O   UNL     1      -6.194   7.568  69.998  1.00  0.00    -0.027 OA 
HETATM   25  C   UNL     1      -7.589   4.920  71.757  1.00  0.00    -0.096 A  
HETATM   26  H   UNL     1      -5.528   5.418  71.481  1.00  0.00     0.000 HD 
HETATM   27  C   UNL     1      -8.786   5.501  71.329  1.00  0.00    -0.142 A  
HETATM   28  C   UNL     1     -10.004   4.943  71.678  1.00  0.00    -0.255 A  
HETATM   29  C   UNL     1      -9.987   3.790  72.457  1.00  0.00    -0.163 A  
HETATM   30  F   UNL     1     -11.149   3.225  72.808  1.00  0.00    -0.175 F  
HETATM   31  C   UNL     1      -8.786   3.205  72.882  1.00  0.00    -0.093 A  
HETATM   32  C   UNL     1      -7.559   3.775  72.531  1.00  0.00    -0.060 A  
ENDBRANCH  17  20
ENDBRANCH   9  12
ENDBRANCH   7   8
ENDBRANCH   6   7
ENDBRANCH   3   6
ENDBRANCH   2   3
TORSDOF 7
ENDMDL
MODEL      188
REMARK 921   NORMALIZED FREE ENERGY PREDICTED BY IDOCK:   -3.93 KCAL/MOL
REMARK 922        TOTAL FREE ENERGY PREDICTED BY IDOCK:   -6.63 KCAL/MOL
REMARK 923 INTER-LIGAND FREE ENERGY PREDICTED BY IDOCK:   -5.76 KCAL/MOL
REMARK 924 INTRA-LIGAND FREE ENERGY PREDICTED BY IDOCK:   -0.87 KCAL/MOL
REMARK 927      BINDING AFFINITY PREDICTED BY RF-SCORE:    0.00 PKD
ROOT
HETATM    1  C   UNL     1     -10.630  16.667  69.532  1.00  0.00    -0.308 C  
HETATM    2  C   UNL     1     -10.884  15.164  69.596  1.00  0.00    -0.286 C  
ENDROOT
BRANCH   2   3
HETATM    3  N   UNL     1     -11.446  14.575  68.369  1.00  0.00    -0.286 NA 
BRANCH   3   4
HETATM    4  C   UNL     1     -10.497  14.537  67.238  1.00  0.00    -0.266 C  
HETATM    5  C   UNL     1      -9.270  13.638  67.405  1.00  0.00    -0.222 C  
ENDBRANCH   3   4
BRANCH   3   6
HETATM    6  C   UNL     1     -12.011  13.228  68.622  1.00  0.00    -0.310 C  
BRANCH   6   7
HETATM    7  C   UNL     1     -11.792  12.663  70.038  1.00  0.00    -0.285 C  
BRANCH   7   8
HETATM    8  N   UNL     1     -11.208  11.341  70.018  1.00  0.00    -0.470 N  
HETATM    9  C   UNL     1     -11.919  10.247  70.443  1.00  0.00    -0.303 C  
HETATM   10  H   UNL     1     -10.252  11.219  69.684  1.00  0.00     0.000 HD 
HETATM   11  O   UNL     1     -13.080  10.335  70.838  1.00  0.00    -0.386 OA 
BRANCH   9  12
HETATM   12  C   UNL     1     -11.218   8.963  70.360  1.00  0.00    -0.259 A  
HETATM   13  C   UNL     1     -11.047   7.997  71.347  1.00  0.00    -0.241 A  
HETATM   14  C   UNL     1     -11.504   7.895  72.760  1.00  0.00    -0.428 C  
HETATM   15  N   UNL     1     -10.348   6.947  70.790  1.00  0.00    -0.202 NA 
HETATM   16  H   UNL     1     -10.058   6.111  71.298  1.00  0.00     0.000 HD 
HETATM   17  C   UNL     1     -10.094   7.176  69.465  1.00  0.00    -0.179 A  
HETATM   18  C   UNL     1     -10.621   8.425  69.161  1.00  0.00    -0.177 A  
HETATM   19  C   UNL     1     -10.596   9.115  67.833  1.00  0.00    -0.272 C  
BRANCH  17  20
HETATM   20  C   UNL     1      -9.421   6.246  68.632  1.00  0.00    -0.121 C  
HETATM   21  C   UNL     1      -8.229   6.322  68.025  1.00  0.00    -0.115 C  
HETATM   22  C   UNL     1      -7.182   7.406  67.991  1.00  0.00    -0.090 C  
HETATM   23  N   UNL     1      -6.166   6.902  67.186  1.00  0.00    -0.038 N  
HETATM   24  O   UNL     1      -7.207   8.489  68.540  1.00  0.00    -0.078 OA 
HETATM   25  C   UNL     1      -6.468   5.627  66.718  1.00  0.00    -0.050 A  
HETATM   26  H   UNL     1      -5.306   7.405  66.965  1.00  0.00     0.000 HD 
HETATM   27  C   UNL     1      -7.714   5.216  67.198  1.00  0.00    -0.092 A  
HETATM   28  C   UNL     1      -8.222   3.972  66.865  1.00  0.00    -0.100 A  
HETATM   29  C   UNL     1      -7.453   3.161  66.038  1.00  0.00    -0.073 A  
HETATM   30  F   UNL     1      -7.919   1.953  65.695  1.00  0.00    -0.069 F  
HETATM   31  C   UNL     1      -6.205   3.575  65.552  1.00  0.00    -0.031 A  
HETATM   32  C   UNL     1      -5.694   4.830  65.895  1.00  0.00    -0.018 A  
ENDBRANCH  17  20
ENDBRANCH   9  12
ENDBRANCH   7   8
ENDBRANCH   6   7
ENDBRANCH   3   6
ENDBRANCH   2   3
TORSDOF 7
ENDMDL
MODEL      189
REMARK 921   NORMALIZED FREE ENERGY PREDICTED BY IDOCK:   -3.93 KCAL/MOL
REMARK 922        TOTAL FREE ENERGY PREDICTED BY IDOCK:   -6.62 KCAL/MOL
REMARK 923 INTER-LIGAND FREE ENERGY PREDICTED BY IDOCK:   -6.21 KCAL/MOL
REMARK 924 INTRA-LIGAND FREE ENERGY PREDICTED BY IDOCK:   -0.41 KCAL/MOL
REMARK 927      BINDING AFFINITY PREDICTED BY RF-SCORE:    0.00 PKD
ROOT
HETATM    1  C   UNL     1     -10.350  10.850  64.355  1.00  0.00    -0.430 C  
HETATM    2  C   UNL     1      -9.942   9.760  65.341  1.00  0.00    -0.232 C  
ENDROOT
BRANCH   2   3
HETATM    3  N   UNL     1      -8.682   9.069  65.018  1.00  0.00    -0.189 NA 
BRANCH   3   4
HETATM    4  C   UNL     1      -7.728   9.897  64.253  1.00  0.00    -0.139 C  
HETATM    5  C   UNL     1      -6.383  10.186  64.921  1.00  0.00    -0.128 C  
ENDBRANCH   3   4
BRANCH   3   6
HETATM    6  C   UNL     1      -8.037   8.520  66.235  1.00  0.00    -0.107 C  
BRANCH   6   7
HETATM    7  C   UNL     1      -8.678   8.924  67.576  1.00  0.00    -0.123 C  
BRANCH   7   8
HETATM    8  N   UNL     1      -8.416  10.303  67.917  1.00  0.00    -0.117 N  
HETATM    9  C   UNL     1      -7.246  10.671  68.532  1.00  0.00    -0.086 C  
HETATM   10  H   UNL     1      -9.112  11.016  67.697  1.00  0.00     0.000 HD 
HETATM   11  O   UNL     1      -6.366   9.856  68.803  1.00  0.00    -0.045 OA 
BRANCH   9  12
HETATM   12  C   UNL     1      -7.098  12.102  68.811  1.00  0.00    -0.110 A  
HETATM   13  C   UNL     1      -6.331  12.724  69.791  1.00  0.00    -0.065 A  
HETATM   14  C   UNL     1      -5.410  12.210  70.843  1.00  0.00    -0.144 C  
HETATM   15  N   UNL     1      -6.484  14.087  69.643  1.00  0.00    -0.135 NA 
HETATM   16  H   UNL     1      -6.055  14.787  70.248  1.00  0.00     0.000 HD 
HETATM   17  C   UNL     1      -7.289  14.374  68.574  1.00  0.00    -0.122 A  
HETATM   18  C   UNL     1      -7.692  13.161  68.031  1.00  0.00    -0.146 A  
HETATM   19  C   UNL     1      -8.580  12.955  66.844  1.00  0.00    -0.132 C  
BRANCH  17  20
HETATM   20  C   UNL     1      -7.591  15.698  68.165  1.00  0.00    -0.124 C  
HETATM   21  C   UNL     1      -8.752  16.366  68.159  1.00  0.00    -0.191 C  
HETATM   22  C   UNL     1     -10.147  15.968  68.568  1.00  0.00    -0.233 C  
HETATM   23  N   UNL     1     -10.931  17.090  68.324  1.00  0.00    -0.335 N  
HETATM   24  O   UNL     1     -10.522  14.901  69.012  1.00  0.00    -0.233 OA 
HETATM   25  C   UNL     1     -10.176  18.140  67.810  1.00  0.00    -0.383 A  
HETATM   26  H   UNL     1     -11.935  17.138  68.500  1.00  0.00     0.000 HD 
HETATM   27  C   UNL     1      -8.836  17.760  67.689  1.00  0.00    -0.248 A  
HETATM   28  C   UNL     1      -7.893  18.649  67.202  1.00  0.00    -0.241 A  
HETATM   29  C   UNL     1      -8.331  19.919  66.836  1.00  0.00    -0.321 A  
HETATM   30  F   UNL     1      -7.443  20.800  66.358  1.00  0.00    -0.262 F  
HETATM   31  C   UNL     1      -9.675  20.297  66.954  1.00  0.00    -0.584 A  
HETATM   32  C   UNL     1     -10.623  19.398  67.451  1.00  0.00    -0.603 A  
ENDBRANCH  17  20
ENDBRANCH   9  12
ENDBRANCH   7   8
ENDBRANCH   6   7
ENDBRANCH   3   6
ENDBRANCH   2   3
TORSDOF 7
ENDMDL
MODEL      190
REMARK 921   NORMALIZED FREE ENERGY PREDICTED BY IDOCK:   -3.92 KCAL/MOL
REMARK 922        TOTAL FREE ENERGY PREDICTED BY IDOCK:   -6.61 KCAL/MOL
REMARK 923 INTER-LIGAND FREE ENERGY PREDICTED BY IDOCK:   -6.92 KCAL/MOL
REMARK 924 INTRA-LIGAND FREE ENERGY PREDICTED BY IDOCK:    0.31 KCAL/MOL
REMARK 927      BINDING AFFINITY PREDICTED BY RF-SCORE:    0.00 PKD
ROOT
HETATM    1  C   UNL     1      -7.539   5.407  63.904  1.00  0.00    -0.073 C  
HETATM    2  C   UNL     1      -6.127   4.965  64.277  1.00  0.00    -0.022 C  
ENDROOT
BRANCH   2   3
HETATM    3  N   UNL     1      -5.230   6.049  64.709  1.00  0.00    -0.013 NA 
BRANCH   3   4
HETATM    4  C   UNL     1      -5.148   7.171  63.752  1.00  0.00    -0.029 C  
HETATM    5  C   UNL     1      -5.676   6.907  62.341  1.00  0.00    -0.036 C  
ENDBRANCH   3   4
BRANCH   3   6
HETATM    6  C   UNL     1      -5.588   6.542  66.061  1.00  0.00    -0.017 C  
BRANCH   6   7
HETATM    7  C   UNL     1      -5.534   8.069  66.256  1.00  0.00    -0.028 C  
BRANCH   7   8
HETATM    8  N   UNL     1      -6.814   8.620  66.637  1.00  0.00    -0.068 N  
HETATM    9  C   UNL     1      -7.573   8.035  67.620  1.00  0.00    -0.102 C  
HETATM   10  H   UNL     1      -7.160   9.457  66.168  1.00  0.00     0.000 HD 
HETATM   11  O   UNL     1      -7.195   7.036  68.229  1.00  0.00    -0.085 OA 
BRANCH   9  12
HETATM   12  C   UNL     1      -8.844   8.699  67.921  1.00  0.00    -0.137 A  
HETATM   13  C   UNL     1     -10.139   8.263  67.660  1.00  0.00    -0.209 A  
HETATM   14  C   UNL     1     -10.691   7.027  67.039  1.00  0.00    -0.423 C  
HETATM   15  N   UNL     1     -11.009   9.210  68.156  1.00  0.00    -0.484 NA 
HETATM   16  H   UNL     1     -12.025   9.161  68.078  1.00  0.00     0.000 HD 
HETATM   17  C   UNL     1     -10.328  10.227  68.769  1.00  0.00    -0.195 A  
HETATM   18  C   UNL     1      -8.974   9.943  68.641  1.00  0.00    -0.128 A  
HETATM   19  C   UNL     1      -7.830  10.760  69.155  1.00  0.00    -0.142 C  
BRANCH  17  20
HETATM   20  C   UNL     1     -10.972  11.321  69.402  1.00  0.00    -0.282 C  
HETATM   21  C   UNL     1     -11.902  11.346  70.365  1.00  0.00    -0.428 C  
HETATM   22  C   UNL     1     -12.609  10.246  71.115  1.00  0.00    -0.400 C  
HETATM   23  N   UNL     1     -13.473  10.899  71.987  1.00  0.00    -0.459 N  
HETATM   24  O   UNL     1     -12.467   9.046  70.993  1.00  0.00    -0.267 OA 
HETATM   25  C   UNL     1     -13.380  12.282  71.861  1.00  0.00    -0.329 A  
HETATM   26  H   UNL     1     -14.098  10.424  72.638  1.00  0.00     0.000 HD 
HETATM   27  C   UNL     1     -12.435  12.618  70.887  1.00  0.00    -0.368 A  
HETATM   28  C   UNL     1     -12.168  13.944  70.592  1.00  0.00    -0.443 A  
HETATM   29  C   UNL     1     -12.875  14.916  71.292  1.00  0.00    -0.348 A  
HETATM   30  F   UNL     1     -12.641  16.208  71.027  1.00  0.00    -0.454 F  
HETATM   31  C   UNL     1     -13.826  14.579  72.265  1.00  0.00    -0.587 A  
HETATM   32  C   UNL     1     -14.089  13.238  72.563  1.00  0.00    -0.368 A  
ENDBRANCH  17  20
ENDBRANCH   9  12
ENDBRANCH   7   8
ENDBRANCH   6   7
ENDBRANCH   3   6
ENDBRANCH   2   3
TORSDOF 7
ENDMDL
MODEL      191
REMARK 921   NORMALIZED FREE ENERGY PREDICTED BY IDOCK:   -3.92 KCAL/MOL
REMARK 922        TOTAL FREE ENERGY PREDICTED BY IDOCK:   -6.61 KCAL/MOL
REMARK 923 INTER-LIGAND FREE ENERGY PREDICTED BY IDOCK:   -5.71 KCAL/MOL
REMARK 924 INTRA-LIGAND FREE ENERGY PREDICTED BY IDOCK:   -0.90 KCAL/MOL
REMARK 927      BINDING AFFINITY PREDICTED BY RF-SCORE:    0.00 PKD
ROOT
HETATM    1  C   UNL     1      -5.226  13.741  72.084  1.00  0.00    -0.196 C  
HETATM    2  C   UNL     1      -5.481  15.132  71.513  1.00  0.00     0.069 C  
ENDROOT
BRANCH   2   3
HETATM    3  N   UNL     1      -6.065  15.152  70.161  1.00  0.00    -0.149 NA 
BRANCH   3   4
HETATM    4  C   UNL     1      -5.760  16.379  69.398  1.00  0.00    -0.149 C  
HETATM    5  C   UNL     1      -6.066  17.708  70.090  1.00  0.00    -0.027 C  
ENDBRANCH   3   4
BRANCH   3   6
HETATM    6  C   UNL     1      -5.681  13.946  69.387  1.00  0.00    -0.089 C  
BRANCH   6   7
HETATM    7  C   UNL     1      -6.746  13.404  68.416  1.00  0.00    -0.096 C  
BRANCH   7   8
HETATM    8  N   UNL     1      -7.525  12.334  68.995  1.00  0.00    -0.310 N  
HETATM    9  C   UNL     1      -8.586  11.785  68.320  1.00  0.00    -0.162 C  
HETATM   10  H   UNL     1      -7.283  11.981  69.922  1.00  0.00     0.000 HD 
HETATM   11  O   UNL     1      -8.909  12.160  67.195  1.00  0.00    -0.177 OA 
BRANCH   9  12
HETATM   12  C   UNL     1      -9.285  10.698  69.012  1.00  0.00    -0.177 A  
HETATM   13  C   UNL     1     -10.562  10.696  69.565  1.00  0.00    -0.230 A  
HETATM   14  C   UNL     1     -11.642  11.718  69.638  1.00  0.00    -0.393 C  
HETATM   15  N   UNL     1     -10.795   9.437  70.078  1.00  0.00    -0.232 NA 
HETATM   16  H   UNL     1     -11.645   9.160  70.568  1.00  0.00     0.000 HD 
HETATM   17  C   UNL     1      -9.732   8.608  69.840  1.00  0.00    -0.173 A  
HETATM   18  C   UNL     1      -8.770   9.360  69.178  1.00  0.00    -0.142 A  
HETATM   19  C   UNL     1      -7.430   8.893  68.702  1.00  0.00    -0.088 C  
BRANCH  17  20
HETATM   20  C   UNL     1      -9.712   7.243  70.225  1.00  0.00    -0.175 C  
HETATM   21  C   UNL     1     -10.180   6.641  71.327  1.00  0.00    -0.222 C  
HETATM   22  C   UNL     1     -10.880   7.177  72.550  1.00  0.00    -0.264 C  
HETATM   23  N   UNL     1     -11.111   6.064  73.351  1.00  0.00    -0.452 N  
HETATM   24  O   UNL     1     -11.180   8.327  72.797  1.00  0.00    -0.371 OA 
HETATM   25  C   UNL     1     -10.633   4.898  72.760  1.00  0.00    -0.217 A  
HETATM   26  H   UNL     1     -11.574   6.098  74.260  1.00  0.00     0.000 HD 
HETATM   27  C   UNL     1     -10.056   5.185  71.520  1.00  0.00    -0.257 A  
HETATM   28  C   UNL     1      -9.515   4.174  70.744  1.00  0.00    -0.242 A  
HETATM   29  C   UNL     1      -9.564   2.877  71.247  1.00  0.00    -0.158 A  
HETATM   30  F   UNL     1      -9.046   1.878  70.521  1.00  0.00    -0.107 F  
HETATM   31  C   UNL     1     -10.139   2.591  72.493  1.00  0.00    -0.232 A  
HETATM   32  C   UNL     1     -10.688   3.615  73.271  1.00  0.00    -0.291 A  
ENDBRANCH  17  20
ENDBRANCH   9  12
ENDBRANCH   7   8
ENDBRANCH   6   7
ENDBRANCH   3   6
ENDBRANCH   2   3
TORSDOF 7
ENDMDL
MODEL      192
REMARK 921   NORMALIZED FREE ENERGY PREDICTED BY IDOCK:   -3.88 KCAL/MOL
REMARK 922        TOTAL FREE ENERGY PREDICTED BY IDOCK:   -6.56 KCAL/MOL
REMARK 923 INTER-LIGAND FREE ENERGY PREDICTED BY IDOCK:   -5.48 KCAL/MOL
REMARK 924 INTRA-LIGAND FREE ENERGY PREDICTED BY IDOCK:   -1.07 KCAL/MOL
REMARK 927      BINDING AFFINITY PREDICTED BY RF-SCORE:    0.00 PKD
ROOT
HETATM    1  C   UNL     1     -10.702  19.025  66.144  1.00  0.00    -0.405 C  
HETATM    2  C   UNL     1      -9.429  18.262  66.499  1.00  0.00    -0.310 C  
ENDROOT
BRANCH   2   3
HETATM    3  N   UNL     1      -9.617  16.824  66.754  1.00  0.00    -0.239 NA 
BRANCH   3   4
HETATM    4  C   UNL     1     -10.875  16.281  66.203  1.00  0.00    -0.105 C  
HETATM    5  C   UNL     1     -10.742  15.152  65.179  1.00  0.00    -0.442 C  
ENDBRANCH   3   4
BRANCH   3   6
HETATM    6  C   UNL     1      -8.455  16.033  66.282  1.00  0.00    -0.302 C  
BRANCH   6   7
HETATM    7  C   UNL     1      -7.466  15.577  67.370  1.00  0.00    -0.204 C  
BRANCH   7   8
HETATM    8  N   UNL     1      -7.263  14.147  67.366  1.00  0.00    -0.276 N  
HETATM    9  C   UNL     1      -8.237  13.292  67.821  1.00  0.00    -0.168 C  
HETATM   10  H   UNL     1      -6.383  13.765  67.020  1.00  0.00     0.000 HD 
HETATM   11  O   UNL     1      -9.322  13.698  68.230  1.00  0.00    -0.200 OA 
BRANCH   9  12
HETATM   12  C   UNL     1      -7.912  11.865  67.750  1.00  0.00    -0.144 A  
HETATM   13  C   UNL     1      -7.182  11.092  68.647  1.00  0.00    -0.098 A  
HETATM   14  C   UNL     1      -6.519  11.394  69.946  1.00  0.00    -0.118 C  
HETATM   15  N   UNL     1      -7.171   9.797  68.174  1.00  0.00    -0.079 NA 
HETATM   16  H   UNL     1      -6.683   9.021  68.621  1.00  0.00     0.000 HD 
HETATM   17  C   UNL     1      -7.903   9.691  67.023  1.00  0.00    -0.098 A  
HETATM   18  C   UNL     1      -8.381  10.962  66.727  1.00  0.00    -0.138 A  
HETATM   19  C   UNL     1      -9.237  11.355  65.564  1.00  0.00    -0.193 C  
BRANCH  17  20
HETATM   20  C   UNL     1      -8.095   8.465  66.336  1.00  0.00    -0.104 C  
HETATM   21  C   UNL     1      -9.073   7.555  66.432  1.00  0.00    -0.210 C  
HETATM   22  C   UNL     1     -10.306   7.487  67.297  1.00  0.00    -0.296 C  
HETATM   23  N   UNL     1     -10.929   6.294  66.947  1.00  0.00    -0.592 N  
HETATM   24  O   UNL     1     -10.685   8.290  68.125  1.00  0.00    -0.151 OA 
HETATM   25  C   UNL     1     -10.218   5.616  65.961  1.00  0.00     0.049 A  
HETATM   26  H   UNL     1     -11.798   5.957  67.361  1.00  0.00     0.000 HD 
HETATM   27  C   UNL     1      -9.076   6.337  65.603  1.00  0.00     0.019 A  
HETATM   28  C   UNL     1      -8.215   5.856  64.631  1.00  0.00    -0.120 A  
HETATM   29  C   UNL     1      -8.527   4.637  64.038  1.00  0.00    -0.125 A  
HETATM   30  F   UNL     1      -7.711   4.143  63.098  1.00  0.00    -0.060 F  
HETATM   31  C   UNL     1      -9.670   3.912  64.401  1.00  0.00    -0.181 A  
HETATM   32  C   UNL     1     -10.539   4.403  65.379  1.00  0.00    -0.192 A  
ENDBRANCH  17  20
ENDBRANCH   9  12
ENDBRANCH   7   8
ENDBRANCH   6   7
ENDBRANCH   3   6
ENDBRANCH   2   3
TORSDOF 7
ENDMDL
MODEL      193
REMARK 921   NORMALIZED FREE ENERGY PREDICTED BY IDOCK:   -3.87 KCAL/MOL
REMARK 922        TOTAL FREE ENERGY PREDICTED BY IDOCK:   -6.54 KCAL/MOL
REMARK 923 INTER-LIGAND FREE ENERGY PREDICTED BY IDOCK:   -6.13 KCAL/MOL
REMARK 924 INTRA-LIGAND FREE ENERGY PREDICTED BY IDOCK:   -0.40 KCAL/MOL
REMARK 927      BINDING AFFINITY PREDICTED BY RF-SCORE:    0.00 PKD
ROOT
HETATM    1  C   UNL     1     -10.028   6.370  70.737  1.00  0.00    -0.212 C  
HETATM    2  C   UNL     1     -10.301   5.261  69.726  1.00  0.00    -0.299 C  
ENDROOT
BRANCH   2   3
HETATM    3  N   UNL     1      -9.431   5.274  68.538  1.00  0.00    -0.122 NA 
BRANCH   3   4
HETATM    4  C   UNL     1      -8.293   4.336  68.623  1.00  0.00    -0.083 C  
HETATM    5  C   UNL     1      -7.331   4.318  67.434  1.00  0.00    -0.069 C  
ENDBRANCH   3   4
BRANCH   3   6
HETATM    6  C   UNL     1     -10.205   5.044  67.294  1.00  0.00    -0.168 C  
BRANCH   6   7
HETATM    7  C   UNL     1      -9.550   5.541  65.993  1.00  0.00    -0.107 C  
BRANCH   7   8
HETATM    8  N   UNL     1      -9.646   6.975  65.842  1.00  0.00    -0.385 N  
HETATM    9  C   UNL     1      -8.572   7.715  65.415  1.00  0.00    -0.053 C  
HETATM   10  H   UNL     1     -10.525   7.445  66.057  1.00  0.00     0.000 HD 
HETATM   11  O   UNL     1      -7.495   7.197  65.125  1.00  0.00    -0.083 OA 
BRANCH   9  12
HETATM   12  C   UNL     1      -8.803   9.157  65.291  1.00  0.00    -0.240 A  
HETATM   13  C   UNL     1      -9.113   9.895  64.153  1.00  0.00    -0.252 A  
HETATM   14  C   UNL     1      -9.336   9.524  62.728  1.00  0.00     0.072 C  
HETATM   15  N   UNL     1      -9.272  11.210  64.536  1.00  0.00    -0.339 NA 
HETATM   16  H   UNL     1      -9.476  11.979  63.897  1.00  0.00     0.000 HD 
HETATM   17  C   UNL     1      -9.119  11.347  65.889  1.00  0.00    -0.198 A  
HETATM   18  C   UNL     1      -8.825  10.087  66.394  1.00  0.00    -0.158 A  
HETATM   19  C   UNL     1      -8.575   9.725  67.825  1.00  0.00    -0.125 C  
BRANCH  17  20
HETATM   20  C   UNL     1      -9.265  12.585  66.565  1.00  0.00    -0.210 C  
HETATM   21  C   UNL     1     -10.366  13.249  66.941  1.00  0.00    -0.255 C  
HETATM   22  C   UNL     1     -11.833  12.941  66.781  1.00  0.00    -0.385 C  
HETATM   23  N   UNL     1     -12.494  14.013  67.371  1.00  0.00    -0.478 N  
HETATM   24  O   UNL     1     -12.343  11.974  66.253  1.00  0.00    -0.432 OA 
HETATM   25  C   UNL     1     -11.600  14.950  67.879  1.00  0.00    -0.344 A  
HETATM   26  H   UNL     1     -13.509  14.101  67.426  1.00  0.00     0.000 HD 
HETATM   27  C   UNL     1     -10.284  14.539  67.649  1.00  0.00    -0.225 A  
HETATM   28  C   UNL     1      -9.219  15.314  68.074  1.00  0.00    -0.188 A  
HETATM   29  C   UNL     1      -9.509  16.509  68.726  1.00  0.00    -0.246 A  
HETATM   30  F   UNL     1      -8.500  17.283  69.145  1.00  0.00    -0.232 F  
HETATM   31  C   UNL     1     -10.829  16.923  68.952  1.00  0.00    -0.274 A  
HETATM   32  C   UNL     1     -11.902  16.134  68.525  1.00  0.00    -0.040 A  
ENDBRANCH  17  20
ENDBRANCH   9  12
ENDBRANCH   7   8
ENDBRANCH   6   7
ENDBRANCH   3   6
ENDBRANCH   2   3
TORSDOF 7
ENDMDL
MODEL      194
REMARK 921   NORMALIZED FREE ENERGY PREDICTED BY IDOCK:   -3.85 KCAL/MOL
REMARK 922        TOTAL FREE ENERGY PREDICTED BY IDOCK:   -6.51 KCAL/MOL
REMARK 923 INTER-LIGAND FREE ENERGY PREDICTED BY IDOCK:   -5.52 KCAL/MOL
REMARK 924 INTRA-LIGAND FREE ENERGY PREDICTED BY IDOCK:   -0.99 KCAL/MOL
REMARK 927      BINDING AFFINITY PREDICTED BY RF-SCORE:    0.00 PKD
ROOT
HETATM    1  C   UNL     1     -11.205  15.767  70.572  1.00  0.00    -0.392 C  
HETATM    2  C   UNL     1     -11.833  15.927  69.191  1.00  0.00    -0.330 C  
ENDROOT
BRANCH   2   3
HETATM    3  N   UNL     1     -11.011  16.663  68.216  1.00  0.00    -0.359 NA 
BRANCH   3   4
HETATM    4  C   UNL     1     -10.143  17.691  68.825  1.00  0.00    -0.377 C  
HETATM    5  C   UNL     1      -8.845  18.017  68.084  1.00  0.00    -0.277 C  
ENDBRANCH   3   4
BRANCH   3   6
HETATM    6  C   UNL     1     -10.213  15.739  67.373  1.00  0.00    -0.270 C  
BRANCH   6   7
HETATM    7  C   UNL     1     -10.935  14.461  66.910  1.00  0.00    -0.308 C  
BRANCH   7   8
HETATM    8  N   UNL     1     -10.108  13.283  67.045  1.00  0.00    -0.239 N  
HETATM    9  C   UNL     1     -10.118  12.540  68.199  1.00  0.00    -0.225 C  
HETATM   10  H   UNL     1      -9.508  12.999  66.271  1.00  0.00     0.000 HD 
HETATM   11  O   UNL     1     -10.836  12.827  69.154  1.00  0.00    -0.185 OA 
BRANCH   9  12
HETATM   12  C   UNL     1      -9.245  11.363  68.203  1.00  0.00    -0.178 A  
HETATM   13  C   UNL     1      -7.919  11.262  68.612  1.00  0.00    -0.145 A  
HETATM   14  C   UNL     1      -6.954  12.240  69.187  1.00  0.00    -0.041 C  
HETATM   15  N   UNL     1      -7.532   9.947  68.462  1.00  0.00    -0.081 NA 
HETATM   16  H   UNL     1      -6.596   9.593  68.661  1.00  0.00     0.000 HD 
HETATM   17  C   UNL     1      -8.571   9.180  68.011  1.00  0.00    -0.125 A  
HETATM   18  C   UNL     1      -9.657  10.029  67.836  1.00  0.00    -0.163 A  
HETATM   19  C   UNL     1     -11.026   9.656  67.360  1.00  0.00    -0.139 C  
BRANCH  17  20
HETATM   20  C   UNL     1      -8.468   7.781  67.800  1.00  0.00    -0.121 C  
HETATM   21  C   UNL     1      -8.952   6.755  68.513  1.00  0.00    -0.121 C  
HETATM   22  C   UNL     1      -9.760   6.701  69.784  1.00  0.00    -0.159 C  
HETATM   23  N   UNL     1      -9.951   5.346  70.034  1.00  0.00    -0.212 N  
HETATM   24  O   UNL     1     -10.162   7.629  70.456  1.00  0.00    -0.199 OA 
HETATM   25  C   UNL     1      -9.351   4.555  69.058  1.00  0.00    -0.148 A  
HETATM   26  H   UNL     1     -10.467   4.978  70.833  1.00  0.00     0.000 HD 
HETATM   27  C   UNL     1      -8.727   5.358  68.100  1.00  0.00    -0.105 A  
HETATM   28  C   UNL     1      -8.066   4.787  67.026  1.00  0.00    -0.106 A  
HETATM   29  C   UNL     1      -8.044   3.398  66.945  1.00  0.00    -0.084 A  
HETATM   30  F   UNL     1      -7.409   2.816  65.919  1.00  0.00    -0.062 F  
HETATM   31  C   UNL     1      -8.666   2.594  67.909  1.00  0.00    -0.138 A  
HETATM   32  C   UNL     1      -9.337   3.175  68.990  1.00  0.00    -0.230 A  
ENDBRANCH  17  20
ENDBRANCH   9  12
ENDBRANCH   7   8
ENDBRANCH   6   7
ENDBRANCH   3   6
ENDBRANCH   2   3
TORSDOF 7
ENDMDL
MODEL      195
REMARK 921   NORMALIZED FREE ENERGY PREDICTED BY IDOCK:   -3.82 KCAL/MOL
REMARK 922        TOTAL FREE ENERGY PREDICTED BY IDOCK:   -6.47 KCAL/MOL
REMARK 923 INTER-LIGAND FREE ENERGY PREDICTED BY IDOCK:   -6.76 KCAL/MOL
REMARK 924 INTRA-LIGAND FREE ENERGY PREDICTED BY IDOCK:    0.29 KCAL/MOL
REMARK 927      BINDING AFFINITY PREDICTED BY RF-SCORE:    0.00 PKD
ROOT
HETATM    1  C   UNL     1     -11.013  14.951  66.176  1.00  0.00    -0.334 C  
HETATM    2  C   UNL     1      -9.668  15.366  66.765  1.00  0.00    -0.240 C  
ENDROOT
BRANCH   2   3
HETATM    3  N   UNL     1      -9.750  16.270  67.925  1.00  0.00    -0.232 NA 
BRANCH   3   4
HETATM    4  C   UNL     1     -10.767  17.331  67.782  1.00  0.00    -0.333 C  
HETATM    5  C   UNL     1     -10.531  18.361  66.676  1.00  0.00    -0.415 C  
ENDBRANCH   3   4
BRANCH   3   6
HETATM    6  C   UNL     1      -9.955  15.517  69.186  1.00  0.00    -0.246 C  
BRANCH   6   7
HETATM    7  C   UNL     1     -11.322  14.824  69.340  1.00  0.00    -0.285 C  
BRANCH   7   8
HETATM    8  N   UNL     1     -11.204  13.386  69.416  1.00  0.00    -0.419 N  
HETATM    9  C   UNL     1     -11.920  12.664  70.337  1.00  0.00    -0.248 C  
HETATM   10  H   UNL     1     -10.578  12.899  68.774  1.00  0.00     0.000 HD 
HETATM   11  O   UNL     1     -12.701  13.199  71.121  1.00  0.00    -0.355 OA 
BRANCH   9  12
HETATM   12  C   UNL     1     -11.721  11.213  70.301  1.00  0.00    -0.431 A  
HETATM   13  C   UNL     1     -12.425  10.219  70.973  1.00  0.00    -0.384 A  
HETATM   14  C   UNL     1     -13.587  10.247  71.903  1.00  0.00    -0.292 C  
HETATM   15  N   UNL     1     -11.896   9.002  70.597  1.00  0.00    -0.448 NA 
HETATM   16  H   UNL     1     -12.205   8.100  70.960  1.00  0.00     0.000 HD 
HETATM   17  C   UNL     1     -10.901   9.166  69.672  1.00  0.00    -0.197 A  
HETATM   18  C   UNL     1     -10.763  10.532  69.463  1.00  0.00    -0.291 A  
HETATM   19  C   UNL     1      -9.803  11.209  68.535  1.00  0.00    -0.199 C  
BRANCH  17  20
HETATM   20  C   UNL     1     -10.204   8.081  69.082  1.00  0.00    -0.221 C  
HETATM   21  C   UNL     1      -9.442   7.129  69.636  1.00  0.00    -0.152 C  
HETATM   22  C   UNL     1      -9.038   6.865  71.064  1.00  0.00    -0.155 C  
HETATM   23  N   UNL     1      -8.230   5.734  71.009  1.00  0.00    -0.120 N  
HETATM   24  O   UNL     1      -9.340   7.495  72.057  1.00  0.00    -0.131 OA 
HETATM   25  C   UNL     1      -8.090   5.268  69.705  1.00  0.00    -0.091 A  
HETATM   26  H   UNL     1      -7.795   5.300  71.822  1.00  0.00     0.000 HD 
HETATM   27  C   UNL     1      -8.810   6.077  68.821  1.00  0.00    -0.116 A  
HETATM   28  C   UNL     1      -8.821   5.801  67.464  1.00  0.00    -0.106 A  
HETATM   29  C   UNL     1      -8.091   4.702  67.022  1.00  0.00    -0.102 A  
HETATM   30  F   UNL     1      -8.081   4.411  65.715  1.00  0.00    -0.098 F  
HETATM   31  C   UNL     1      -7.367   3.894  67.909  1.00  0.00    -0.066 A  
HETATM   32  C   UNL     1      -7.361   4.174  69.279  1.00  0.00    -0.054 A  
ENDBRANCH  17  20
ENDBRANCH   9  12
ENDBRANCH   7   8
ENDBRANCH   6   7
ENDBRANCH   3   6
ENDBRANCH   2   3
TORSDOF 7
ENDMDL
MODEL      196
REMARK 921   NORMALIZED FREE ENERGY PREDICTED BY IDOCK:   -3.81 KCAL/MOL
REMARK 922        TOTAL FREE ENERGY PREDICTED BY IDOCK:   -6.46 KCAL/MOL
REMARK 923 INTER-LIGAND FREE ENERGY PREDICTED BY IDOCK:   -5.52 KCAL/MOL
REMARK 924 INTRA-LIGAND FREE ENERGY PREDICTED BY IDOCK:   -0.93 KCAL/MOL
REMARK 927      BINDING AFFINITY PREDICTED BY RF-SCORE:    0.00 PKD
ROOT
HETATM    1  C   UNL     1      -9.709   6.967  66.802  1.00  0.00    -0.241 C  
HETATM    2  C   UNL     1     -10.267   6.191  67.991  1.00  0.00    -0.175 C  
ENDROOT
BRANCH   2   3
HETATM    3  N   UNL     1      -9.567   4.931  68.294  1.00  0.00    -0.138 NA 
BRANCH   3   4
HETATM    4  C   UNL     1      -9.665   3.923  67.219  1.00  0.00    -0.131 C  
HETATM    5  C   UNL     1      -9.127   2.527  67.539  1.00  0.00    -0.212 C  
ENDBRANCH   3   4
BRANCH   3   6
HETATM    6  C   UNL     1      -8.149   5.171  68.657  1.00  0.00    -0.086 C  
BRANCH   6   7
HETATM    7  C   UNL     1      -7.913   6.069  69.885  1.00  0.00    -0.113 C  
BRANCH   7   8
HETATM    8  N   UNL     1      -7.741   7.458  69.526  1.00  0.00    -0.106 N  
HETATM    9  C   UNL     1      -8.249   8.461  70.314  1.00  0.00    -0.121 C  
HETATM   10  H   UNL     1      -7.235   7.698  68.674  1.00  0.00     0.000 HD 
HETATM   11  O   UNL     1      -8.850   8.228  71.361  1.00  0.00    -0.137 OA 
BRANCH   9  12
HETATM   12  C   UNL     1      -7.995   9.826  69.846  1.00  0.00    -0.184 A  
HETATM   13  C   UNL     1      -6.797  10.534  69.834  1.00  0.00    -0.149 A  
HETATM   14  C   UNL     1      -5.406  10.189  70.239  1.00  0.00    -0.046 C  
HETATM   15  N   UNL     1      -7.045  11.768  69.270  1.00  0.00    -0.274 NA 
HETATM   16  H   UNL     1      -6.348  12.505  69.160  1.00  0.00     0.000 HD 
HETATM   17  C   UNL     1      -8.351  11.872  68.876  1.00  0.00     0.116 A  
HETATM   18  C   UNL     1      -8.976  10.680  69.221  1.00  0.00    -0.098 A  
HETATM   19  C   UNL     1     -10.409  10.313  68.991  1.00  0.00    -0.229 C  
BRANCH  17  20
HETATM   20  C   UNL     1      -8.878  13.020  68.231  1.00  0.00    -0.172 C  
HETATM   21  C   UNL     1      -9.380  13.175  66.999  1.00  0.00    -0.238 C  
HETATM   22  C   UNL     1      -9.561  12.211  65.855  1.00  0.00    -0.214 C  
HETATM   23  N   UNL     1     -10.130  12.964  64.833  1.00  0.00    -0.473 N  
HETATM   24  O   UNL     1      -9.274  11.031  65.817  1.00  0.00    -0.192 OA 
HETATM   25  C   UNL     1     -10.322  14.287  65.218  1.00  0.00    -0.395 A  
HETATM   26  H   UNL     1     -10.376  12.592  63.916  1.00  0.00     0.000 HD 
HETATM   27  C   UNL     1      -9.886  14.479  66.532  1.00  0.00    -0.297 A  
HETATM   28  C   UNL     1      -9.984  15.722  67.133  1.00  0.00    -0.242 A  
HETATM   29  C   UNL     1     -10.522  16.762  66.381  1.00  0.00    -0.269 A  
HETATM   30  F   UNL     1     -10.626  17.977  66.933  1.00  0.00    -0.344 F  
HETATM   31  C   UNL     1     -10.954  16.570  65.062  1.00  0.00    -0.222 A  
HETATM   32  C   UNL     1     -10.858  15.312  64.461  1.00  0.00    -0.143 A  
ENDBRANCH  17  20
ENDBRANCH   9  12
ENDBRANCH   7   8
ENDBRANCH   6   7
ENDBRANCH   3   6
ENDBRANCH   2   3
TORSDOF 7
ENDMDL
MODEL      197
REMARK 921   NORMALIZED FREE ENERGY PREDICTED BY IDOCK:   -3.80 KCAL/MOL
REMARK 922        TOTAL FREE ENERGY PREDICTED BY IDOCK:   -6.45 KCAL/MOL
REMARK 923 INTER-LIGAND FREE ENERGY PREDICTED BY IDOCK:   -5.48 KCAL/MOL
REMARK 924 INTRA-LIGAND FREE ENERGY PREDICTED BY IDOCK:   -0.96 KCAL/MOL
REMARK 927      BINDING AFFINITY PREDICTED BY RF-SCORE:    0.00 PKD
ROOT
HETATM    1  C   UNL     1     -11.848  14.359  69.734  1.00  0.00    -0.375 C  
HETATM    2  C   UNL     1     -12.174  13.405  68.589  1.00  0.00    -0.108 C  
ENDROOT
BRANCH   2   3
HETATM    3  N   UNL     1     -11.326  13.555  67.395  1.00  0.00    -0.298 NA 
BRANCH   3   4
HETATM    4  C   UNL     1     -12.086  13.637  66.131  1.00  0.00    -0.436 C  
HETATM    5  C   UNL     1     -11.700  12.643  65.035  1.00  0.00    -0.401 C  
ENDBRANCH   3   4
BRANCH   3   6
HETATM    6  C   UNL     1     -10.404  14.710  67.526  1.00  0.00    -0.234 C  
BRANCH   6   7
HETATM    7  C   UNL     1      -8.905  14.393  67.379  1.00  0.00    -0.203 C  
BRANCH   7   8
HETATM    8  N   UNL     1      -8.441  13.453  68.373  1.00  0.00    -0.236 N  
HETATM    9  C   UNL     1      -7.989  12.208  68.013  1.00  0.00    -0.152 C  
HETATM   10  H   UNL     1      -8.451  13.717  69.358  1.00  0.00     0.000 HD 
HETATM   11  O   UNL     1      -7.939  11.845  66.840  1.00  0.00    -0.162 OA 
BRANCH   9  12
HETATM   12  C   UNL     1      -7.534  11.355  69.115  1.00  0.00    -0.057 A  
HETATM   13  C   UNL     1      -6.572  11.621  70.084  1.00  0.00     0.156 A  
HETATM   14  C   UNL     1      -5.713  12.804  70.367  1.00  0.00    -0.173 C  
HETATM   15  N   UNL     1      -6.514  10.533  70.928  1.00  0.00    -0.341 NA 
HETATM   16  H   UNL     1      -5.871  10.445  71.716  1.00  0.00     0.000 HD 
HETATM   17  C   UNL     1      -7.434   9.586  70.569  1.00  0.00    -0.148 A  
HETATM   18  C   UNL     1      -8.089  10.063  69.441  1.00  0.00    -0.150 A  
HETATM   19  C   UNL     1      -9.185   9.384  68.680  1.00  0.00    -0.131 C  
BRANCH  17  20
HETATM   20  C   UNL     1      -7.621   8.376  71.285  1.00  0.00    -0.100 C  
HETATM   21  C   UNL     1      -8.688   7.912  71.949  1.00  0.00    -0.168 C  
HETATM   22  C   UNL     1     -10.058   8.492  72.189  1.00  0.00    -0.323 C  
HETATM   23  N   UNL     1     -10.724   7.543  72.957  1.00  0.00    -0.352 N  
HETATM   24  O   UNL     1     -10.498   9.558  71.806  1.00  0.00    -0.182 OA 
HETATM   25  C   UNL     1      -9.919   6.438  73.218  1.00  0.00    -0.183 A  
HETATM   26  H   UNL     1     -11.684   7.644  73.287  1.00  0.00     0.000 HD 
HETATM   27  C   UNL     1      -8.664   6.603  72.626  1.00  0.00    -0.127 A  
HETATM   28  C   UNL     1      -7.694   5.622  72.749  1.00  0.00    -0.098 A  
HETATM   29  C   UNL     1      -8.015   4.484  73.481  1.00  0.00    -0.095 A  
HETATM   30  F   UNL     1      -7.096   3.520  73.621  1.00  0.00    -0.043 F  
HETATM   31  C   UNL     1      -9.273   4.322  74.078  1.00  0.00    -0.103 A  
HETATM   32  C   UNL     1     -10.251   5.312  73.948  1.00  0.00    -0.260 A  
ENDBRANCH  17  20
ENDBRANCH   9  12
ENDBRANCH   7   8
ENDBRANCH   6   7
ENDBRANCH   3   6
ENDBRANCH   2   3
TORSDOF 7
ENDMDL
MODEL      198
REMARK 921   NORMALIZED FREE ENERGY PREDICTED BY IDOCK:   -3.79 KCAL/MOL
REMARK 922        TOTAL FREE ENERGY PREDICTED BY IDOCK:   -6.43 KCAL/MOL
REMARK 923 INTER-LIGAND FREE ENERGY PREDICTED BY IDOCK:   -5.67 KCAL/MOL
REMARK 924 INTRA-LIGAND FREE ENERGY PREDICTED BY IDOCK:   -0.76 KCAL/MOL
REMARK 927      BINDING AFFINITY PREDICTED BY RF-SCORE:    0.00 PKD
ROOT
HETATM    1  C   UNL     1      -5.902  18.077  69.014  1.00  0.00    -0.211 C  
HETATM    2  C   UNL     1      -7.168  17.793  68.212  1.00  0.00    -0.237 C  
ENDROOT
BRANCH   2   3
HETATM    3  N   UNL     1      -8.033  18.962  67.980  1.00  0.00    -0.278 NA 
BRANCH   3   4
HETATM    4  C   UNL     1      -7.881  19.558  66.638  1.00  0.00    -0.283 C  
HETATM    5  C   UNL     1      -6.976  18.811  65.656  1.00  0.00    -0.260 C  
ENDBRANCH   3   4
BRANCH   3   6
HETATM    6  C   UNL     1      -9.456  18.647  68.254  1.00  0.00    -0.336 C  
BRANCH   6   7
HETATM    7  C   UNL     1     -10.195  17.866  67.152  1.00  0.00    -0.353 C  
BRANCH   7   8
HETATM    8  N   UNL     1     -10.439  16.491  67.521  1.00  0.00    -0.306 N  
HETATM    9  C   UNL     1      -9.641  15.479  67.049  1.00  0.00    -0.224 C  
HETATM   10  H   UNL     1     -11.216  16.268  68.143  1.00  0.00     0.000 HD 
HETATM   11  O   UNL     1      -8.680  15.694  66.313  1.00  0.00    -0.307 OA 
BRANCH   9  12
HETATM   12  C   UNL     1      -9.986  14.131  67.510  1.00  0.00    -0.236 A  
HETATM   13  C   UNL     1     -11.206  13.468  67.428  1.00  0.00    -0.295 A  
HETATM   14  C   UNL     1     -12.530  13.839  66.856  1.00  0.00    -0.196 C  
HETATM   15  N   UNL     1     -11.036  12.208  67.964  1.00  0.00    -0.227 NA 
HETATM   16  H   UNL     1     -11.778  11.515  68.058  1.00  0.00     0.000 HD 
HETATM   17  C   UNL     1      -9.739  12.014  68.353  1.00  0.00    -0.199 A  
HETATM   18  C   UNL     1      -9.054  13.192  68.086  1.00  0.00    -0.200 A  
HETATM   19  C   UNL     1      -7.604  13.468  68.336  1.00  0.00    -0.133 C  
BRANCH  17  20
HETATM   20  C   UNL     1      -9.270  10.795  68.906  1.00  0.00    -0.180 C  
HETATM   21  C   UNL     1      -8.788   9.696  68.311  1.00  0.00    -0.120 C  
HETATM   22  C   UNL     1      -8.576   9.345  66.860  1.00  0.00    -0.127 C  
HETATM   23  N   UNL     1      -8.051   8.057  66.873  1.00  0.00    -0.107 N  
HETATM   24  O   UNL     1      -8.811  10.026  65.883  1.00  0.00    -0.137 OA 
HETATM   25  C   UNL     1      -7.914   7.572  68.170  1.00  0.00    -0.123 A  
HETATM   26  H   UNL     1      -7.798   7.533  66.035  1.00  0.00     0.000 HD 
HETATM   27  C   UNL     1      -8.344   8.528  69.093  1.00  0.00    -0.120 A  
HETATM   28  C   UNL     1      -8.295   8.267  70.452  1.00  0.00    -0.120 A  
HETATM   29  C   UNL     1      -7.810   7.026  70.854  1.00  0.00    -0.096 A  
HETATM   30  F   UNL     1      -7.754   6.743  72.162  1.00  0.00    -0.091 F  
HETATM   31  C   UNL     1      -7.383   6.066  69.927  1.00  0.00    -0.075 A  
HETATM   32  C   UNL     1      -7.430   6.336  68.556  1.00  0.00    -0.088 A  
ENDBRANCH  17  20
ENDBRANCH   9  12
ENDBRANCH   7   8
ENDBRANCH   6   7
ENDBRANCH   3   6
ENDBRANCH   2   3
TORSDOF 7
ENDMDL
MODEL      199
REMARK 921   NORMALIZED FREE ENERGY PREDICTED BY IDOCK:   -3.78 KCAL/MOL
REMARK 922        TOTAL FREE ENERGY PREDICTED BY IDOCK:   -6.41 KCAL/MOL
REMARK 923 INTER-LIGAND FREE ENERGY PREDICTED BY IDOCK:   -5.70 KCAL/MOL
REMARK 924 INTRA-LIGAND FREE ENERGY PREDICTED BY IDOCK:   -0.72 KCAL/MOL
REMARK 927      BINDING AFFINITY PREDICTED BY RF-SCORE:    0.00 PKD
ROOT
HETATM    1  C   UNL     1     -12.194  14.585  70.473  1.00  0.00    -0.399 C  
HETATM    2  C   UNL     1     -11.009  14.731  69.523  1.00  0.00    -0.266 C  
ENDROOT
BRANCH   2   3
HETATM    3  N   UNL     1     -11.166  14.052  68.226  1.00  0.00    -0.256 NA 
BRANCH   3   4
HETATM    4  C   UNL     1     -11.495  14.963  67.112  1.00  0.00    -0.335 C  
HETATM    5  C   UNL     1     -10.465  16.046  66.787  1.00  0.00    -0.308 C  
ENDBRANCH   3   4
BRANCH   3   6
HETATM    6  C   UNL     1      -9.975  13.232  67.896  1.00  0.00    -0.233 C  
BRANCH   6   7
HETATM    7  C   UNL     1      -9.387  12.404  69.053  1.00  0.00     0.422 C  
BRANCH   7   8
HETATM    8  N   UNL     1      -9.549  10.982  68.849  1.00  0.00    -0.291 N  
HETATM    9  C   UNL     1     -10.631  10.312  69.363  1.00  0.00    -0.237 C  
HETATM   10  H   UNL     1      -8.848  10.468  68.316  1.00  0.00     0.000 HD 
HETATM   11  O   UNL     1     -11.514  10.886  69.997  1.00  0.00    -0.284 OA 
BRANCH   9  12
HETATM   12  C   UNL     1     -10.684   8.876  69.074  1.00  0.00    -0.148 A  
HETATM   13  C   UNL     1     -11.008   7.827  69.928  1.00  0.00    -0.190 A  
HETATM   14  C   UNL     1     -11.421   7.768  71.357  1.00  0.00    -0.289 C  
HETATM   15  N   UNL     1     -10.954   6.659  69.196  1.00  0.00    -0.358 NA 
HETATM   16  H   UNL     1     -11.120   5.728  69.579  1.00  0.00     0.000 HD 
HETATM   17  C   UNL     1     -10.649   6.915  67.888  1.00  0.00    -0.231 A  
HETATM   18  C   UNL     1     -10.472   8.288  67.773  1.00  0.00    -0.280 A  
HETATM   19  C   UNL     1     -10.129   9.053  66.533  1.00  0.00    -0.354 C  
BRANCH  17  20
HETATM   20  C   UNL     1     -10.563   5.902  66.898  1.00  0.00    -0.384 C  
HETATM   21  C   UNL     1      -9.506   5.218  66.440  1.00  0.00    -0.161 C  
HETATM   22  C   UNL     1      -8.040   5.274  66.788  1.00  0.00    -0.105 C  
HETATM   23  N   UNL     1      -7.437   4.326  65.969  1.00  0.00    -0.084 N  
HETATM   24  O   UNL     1      -7.490   5.989  67.602  1.00  0.00    -0.076 OA 
HETATM   25  C   UNL     1      -8.367   3.688  65.153  1.00  0.00    -0.097 A  
HETATM   26  H   UNL     1      -6.438   4.122  65.967  1.00  0.00     0.000 HD 
HETATM   27  C   UNL     1      -9.649   4.188  65.396  1.00  0.00    -0.187 A  
HETATM   28  C   UNL     1     -10.741   3.697  64.700  1.00  0.00     0.006 A  
HETATM   29  C   UNL     1     -10.510   2.701  63.756  1.00  0.00    -0.133 A  
HETATM   30  F   UNL     1     -11.545   2.208  63.065  1.00  0.00    -0.263 F  
HETATM   31  C   UNL     1      -9.223   2.203  63.510  1.00  0.00    -0.096 A  
HETATM   32  C   UNL     1      -8.124   2.699  64.218  1.00  0.00    -0.082 A  
ENDBRANCH  17  20
ENDBRANCH   9  12
ENDBRANCH   7   8
ENDBRANCH   6   7
ENDBRANCH   3   6
ENDBRANCH   2   3
TORSDOF 7
ENDMDL
MODEL      200
REMARK 921   NORMALIZED FREE ENERGY PREDICTED BY IDOCK:   -3.78 KCAL/MOL
REMARK 922        TOTAL FREE ENERGY PREDICTED BY IDOCK:   -6.41 KCAL/MOL
REMARK 923 INTER-LIGAND FREE ENERGY PREDICTED BY IDOCK:   -6.12 KCAL/MOL
REMARK 924 INTRA-LIGAND FREE ENERGY PREDICTED BY IDOCK:   -0.28 KCAL/MOL
REMARK 927      BINDING AFFINITY PREDICTED BY RF-SCORE:    0.00 PKD
ROOT
HETATM    1  C   UNL     1     -10.677   5.576  71.202  1.00  0.00    -0.280 C  
HETATM    2  C   UNL     1      -9.694   4.808  70.324  1.00  0.00    -0.225 C  
ENDROOT
BRANCH   2   3
HETATM    3  N   UNL     1      -9.891   4.979  68.874  1.00  0.00    -0.167 NA 
BRANCH   3   4
HETATM    4  C   UNL     1     -10.775   6.108  68.522  1.00  0.00    -0.300 C  
HETATM    5  C   UNL     1     -11.002   6.361  67.031  1.00  0.00    -0.463 C  
ENDBRANCH   3   4
BRANCH   3   6
HETATM    6  C   UNL     1      -8.596   5.086  68.160  1.00  0.00    -0.102 C  
BRANCH   6   7
HETATM    7  C   UNL     1      -7.536   5.985  68.822  1.00  0.00    -0.086 C  
BRANCH   7   8
HETATM    8  N   UNL     1      -7.436   7.279  68.187  1.00  0.00    -0.100 N  
HETATM    9  C   UNL     1      -8.140   8.357  68.662  1.00  0.00    -0.122 C  
HETATM   10  H   UNL     1      -6.834   7.393  67.372  1.00  0.00     0.000 HD 
HETATM   11  O   UNL     1      -8.866   8.279  69.651  1.00  0.00    -0.137 OA 
BRANCH   9  12
HETATM   12  C   UNL     1      -7.941   9.615  67.937  1.00  0.00    -0.098 A  
HETATM   13  C   UNL     1      -6.975   9.928  66.985  1.00  0.00    -0.088 A  
HETATM   14  C   UNL     1      -5.867   9.151  66.364  1.00  0.00    -0.058 C  
HETATM   15  N   UNL     1      -7.208  11.220  66.561  1.00  0.00    -0.258 NA 
HETATM   16  H   UNL     1      -6.632  11.719  65.883  1.00  0.00     0.000 HD 
HETATM   17  C   UNL     1      -8.316  11.742  67.171  1.00  0.00    -0.168 A  
HETATM   18  C   UNL     1      -8.799  10.770  68.037  1.00  0.00    -0.132 A  
HETATM   19  C   UNL     1     -10.000  10.871  68.926  1.00  0.00    -0.208 C  
BRANCH  17  20
HETATM   20  C   UNL     1      -8.811  13.043  66.896  1.00  0.00    -0.184 C  
HETATM   21  C   UNL     1      -9.666  13.469  65.957  1.00  0.00    -0.233 C  
HETATM   22  C   UNL     1     -10.399  12.746  64.856  1.00  0.00    -0.309 C  
HETATM   23  N   UNL     1     -11.134  13.730  64.204  1.00  0.00    -0.587 N  
HETATM   24  O   UNL     1     -10.363  11.563  64.584  1.00  0.00    -0.261 OA 
HETATM   25  C   UNL     1     -10.939  14.982  64.779  1.00  0.00    -0.373 A  
HETATM   26  H   UNL     1     -11.742  13.556  63.403  1.00  0.00     0.000 HD 
HETATM   27  C   UNL     1     -10.054  14.888  65.856  1.00  0.00    -0.348 A  
HETATM   28  C   UNL     1      -9.712  16.013  66.588  1.00  0.00    -0.261 A  
HETATM   29  C   UNL     1     -10.275  17.227  66.206  1.00  0.00    -0.342 A  
HETATM   30  F   UNL     1      -9.961  18.333  66.892  1.00  0.00    -0.293 F  
HETATM   31  C   UNL     1     -11.158  17.321  65.122  1.00  0.00     0.256 A  
HETATM   32  C   UNL     1     -11.504  16.182  64.389  1.00  0.00    -0.197 A  
ENDBRANCH  17  20
ENDBRANCH   9  12
ENDBRANCH   7   8
ENDBRANCH   6   7
ENDBRANCH   3   6
ENDBRANCH   2   3
TORSDOF 7
ENDMDL
MODEL      201
REMARK 921   NORMALIZED FREE ENERGY PREDICTED BY IDOCK:   -3.77 KCAL/MOL
REMARK 922        TOTAL FREE ENERGY PREDICTED BY IDOCK:   -6.40 KCAL/MOL
REMARK 923 INTER-LIGAND FREE ENERGY PREDICTED BY IDOCK:   -5.35 KCAL/MOL
REMARK 924 INTRA-LIGAND FREE ENERGY PREDICTED BY IDOCK:   -1.04 KCAL/MOL
REMARK 927      BINDING AFFINITY PREDICTED BY RF-SCORE:    0.00 PKD
ROOT
HETATM    1  C   UNL     1     -12.913  13.767  65.323  1.00  0.00    -0.328 C  
HETATM    2  C   UNL     1     -11.927  13.843  66.485  1.00  0.00    -0.439 C  
ENDROOT
BRANCH   2   3
HETATM    3  N   UNL     1     -11.361  15.179  66.733  1.00  0.00    -0.296 NA 
BRANCH   3   4
HETATM    4  C   UNL     1     -11.106  15.463  68.160  1.00  0.00    -0.309 C  
HETATM    5  C   UNL     1     -11.850  14.592  69.174  1.00  0.00    -0.347 C  
ENDBRANCH   3   4
BRANCH   3   6
HETATM    6  C   UNL     1     -10.135  15.407  65.929  1.00  0.00    -0.345 C  
BRANCH   6   7
HETATM    7  C   UNL     1      -8.800  15.164  66.656  1.00  0.00    -0.286 C  
BRANCH   7   8
HETATM    8  N   UNL     1      -8.499  13.758  66.798  1.00  0.00    -0.439 N  
HETATM    9  C   UNL     1      -7.855  13.280  67.912  1.00  0.00    -0.152 C  
HETATM   10  H   UNL     1      -8.770  13.109  66.058  1.00  0.00     0.000 HD 
HETATM   11  O   UNL     1      -7.523  14.015  68.839  1.00  0.00    -0.120 OA 
BRANCH   9  12
HETATM   12  C   UNL     1      -7.621  11.834  67.939  1.00  0.00    -0.121 A  
HETATM   13  C   UNL     1      -6.538  11.116  67.442  1.00  0.00    -0.076 A  
HETATM   14  C   UNL     1      -5.275  11.519  66.763  1.00  0.00    -0.122 C  
HETATM   15  N   UNL     1      -6.748   9.784  67.731  1.00  0.00    -0.068 NA 
HETATM   16  H   UNL     1      -6.123   9.027  67.457  1.00  0.00     0.000 HD 
HETATM   17  C   UNL     1      -7.909   9.615  68.435  1.00  0.00    -0.085 A  
HETATM   18  C   UNL     1      -8.482  10.871  68.583  1.00  0.00    -0.152 A  
HETATM   19  C   UNL     1      -9.762  11.202  69.286  1.00  0.00     0.031 C  
BRANCH  17  20
HETATM   20  C   UNL     1      -8.358   8.351  68.898  1.00  0.00    -0.119 C  
HETATM   21  C   UNL     1      -8.212   7.128  68.371  1.00  0.00    -0.125 C  
HETATM   22  C   UNL     1      -7.541   6.645  67.111  1.00  0.00    -0.096 C  
HETATM   23  N   UNL     1      -7.729   5.267  67.105  1.00  0.00    -0.095 N  
HETATM   24  O   UNL     1      -6.961   7.304  66.272  1.00  0.00    -0.063 OA 
HETATM   25  C   UNL     1      -8.442   4.843  68.223  1.00  0.00    -0.098 A  
HETATM   26  H   UNL     1      -7.386   4.645  66.373  1.00  0.00     0.000 HD 
HETATM   27  C   UNL     1      -8.763   5.933  69.035  1.00  0.00    -0.114 A  
HETATM   28  C   UNL     1      -9.471   5.750  70.212  1.00  0.00    -0.196 A  
HETATM   29  C   UNL     1      -9.848   4.453  70.543  1.00  0.00    -0.215 A  
HETATM   30  F   UNL     1     -10.537   4.244  71.673  1.00  0.00    -0.189 F  
HETATM   31  C   UNL     1      -9.529   3.361  69.725  1.00  0.00    -0.229 A  
HETATM   32  C   UNL     1      -8.811   3.549  68.540  1.00  0.00    -0.160 A  
ENDBRANCH  17  20
ENDBRANCH   9  12
ENDBRANCH   7   8
ENDBRANCH   6   7
ENDBRANCH   3   6
ENDBRANCH   2   3
TORSDOF 7
ENDMDL
MODEL      202
REMARK 921   NORMALIZED FREE ENERGY PREDICTED BY IDOCK:   -3.74 KCAL/MOL
REMARK 922        TOTAL FREE ENERGY PREDICTED BY IDOCK:   -6.36 KCAL/MOL
REMARK 923 INTER-LIGAND FREE ENERGY PREDICTED BY IDOCK:   -5.43 KCAL/MOL
REMARK 924 INTRA-LIGAND FREE ENERGY PREDICTED BY IDOCK:   -0.92 KCAL/MOL
REMARK 927      BINDING AFFINITY PREDICTED BY RF-SCORE:    0.00 PKD
ROOT
HETATM    1  C   UNL     1     -10.047  10.755  64.061  1.00  0.00    -0.410 C  
HETATM    2  C   UNL     1     -10.390  12.159  63.571  1.00  0.00    -0.441 C  
ENDROOT
BRANCH   2   3
HETATM    3  N   UNL     1     -10.785  13.106  64.628  1.00  0.00    -0.358 NA 
BRANCH   3   4
HETATM    4  C   UNL     1     -12.038  12.739  65.318  1.00  0.00    -0.457 C  
HETATM    5  C   UNL     1     -13.174  13.762  65.262  1.00  0.00    -0.007 C  
ENDBRANCH   3   4
BRANCH   3   6
HETATM    6  C   UNL     1      -9.691  13.313  65.607  1.00  0.00    -0.083 C  
BRANCH   6   7
HETATM    7  C   UNL     1     -10.049  13.047  67.081  1.00  0.00    -0.244 C  
BRANCH   7   8
HETATM    8  N   UNL     1      -9.708  11.706  67.497  1.00  0.00    -0.176 N  
HETATM    9  C   UNL     1      -8.598  11.464  68.267  1.00  0.00    -0.156 C  
HETATM   10  H   UNL     1     -10.301  10.926  67.213  1.00  0.00     0.000 HD 
HETATM   11  O   UNL     1      -7.860  12.369  68.651  1.00  0.00    -0.117 OA 
BRANCH   9  12
HETATM   12  C   UNL     1      -8.372  10.063  68.632  1.00  0.00    -0.116 A  
HETATM   13  C   UNL     1      -7.343   9.214  68.236  1.00  0.00    -0.079 A  
HETATM   14  C   UNL     1      -6.146   9.401  67.369  1.00  0.00    -0.050 C  
HETATM   15  N   UNL     1      -7.534   8.002  68.864  1.00  0.00    -0.091 NA 
HETATM   16  H   UNL     1      -6.940   7.182  68.732  1.00  0.00     0.000 HD 
HETATM   17  C   UNL     1      -8.625   8.044  69.687  1.00  0.00    -0.135 A  
HETATM   18  C   UNL     1      -9.175   9.314  69.568  1.00  0.00    -0.168 A  
HETATM   19  C   UNL     1     -10.382   9.845  70.277  1.00  0.00    -0.339 C  
BRANCH  17  20
HETATM   20  C   UNL     1      -9.037   6.947  70.487  1.00  0.00    -0.156 C  
HETATM   21  C   UNL     1      -9.092   5.638  70.209  1.00  0.00    -0.163 C  
HETATM   22  C   UNL     1      -8.754   4.855  68.966  1.00  0.00    -0.088 C  
HETATM   23  N   UNL     1      -9.025   3.530  69.288  1.00  0.00    -0.105 N  
HETATM   24  O   UNL     1      -8.339   5.276  67.905  1.00  0.00    -0.099 OA 
HETATM   25  C   UNL     1      -9.492   3.404  70.593  1.00  0.00    -0.173 A  
HETATM   26  H   UNL     1      -8.897   2.746  68.647  1.00  0.00     0.000 HD 
HETATM   27  C   UNL     1      -9.552   4.657  71.209  1.00  0.00    -0.238 A  
HETATM   28  C   UNL     1      -9.985   4.779  72.518  1.00  0.00    -0.216 A  
HETATM   29  C   UNL     1     -10.359   3.616  73.185  1.00  0.00    -0.165 A  
HETATM   30  F   UNL     1     -10.786   3.701  74.451  1.00  0.00    -0.248 F  
HETATM   31  C   UNL     1     -10.303   2.360  72.565  1.00  0.00    -0.214 A  
HETATM   32  C   UNL     1      -9.861   2.242  71.244  1.00  0.00    -0.143 A  
ENDBRANCH  17  20
ENDBRANCH   9  12
ENDBRANCH   7   8
ENDBRANCH   6   7
ENDBRANCH   3   6
ENDBRANCH   2   3
TORSDOF 7
ENDMDL
MODEL      203
REMARK 921   NORMALIZED FREE ENERGY PREDICTED BY IDOCK:   -3.73 KCAL/MOL
REMARK 922        TOTAL FREE ENERGY PREDICTED BY IDOCK:   -6.34 KCAL/MOL
REMARK 923 INTER-LIGAND FREE ENERGY PREDICTED BY IDOCK:   -5.29 KCAL/MOL
REMARK 924 INTRA-LIGAND FREE ENERGY PREDICTED BY IDOCK:   -1.05 KCAL/MOL
REMARK 927      BINDING AFFINITY PREDICTED BY RF-SCORE:    0.00 PKD
ROOT
HETATM    1  C   UNL     1      -5.585   6.436  70.561  1.00  0.00    -0.018 C  
HETATM    2  C   UNL     1      -6.420   5.174  70.365  1.00  0.00    -0.034 C  
ENDROOT
BRANCH   2   3
HETATM    3  N   UNL     1      -6.193   4.470  69.092  1.00  0.00    -0.030 NA 
BRANCH   3   4
HETATM    4  C   UNL     1      -5.950   3.022  69.247  1.00  0.00    -0.024 C  
HETATM    5  C   UNL     1      -6.747   2.092  68.332  1.00  0.00    -0.029 C  
ENDBRANCH   3   4
BRANCH   3   6
HETATM    6  C   UNL     1      -7.298   4.714  68.133  1.00  0.00    -0.066 C  
BRANCH   6   7
HETATM    7  C   UNL     1      -7.050   5.816  67.087  1.00  0.00    -0.070 C  
BRANCH   7   8
HETATM    8  N   UNL     1      -7.679   7.066  67.446  1.00  0.00    -0.108 N  
HETATM    9  C   UNL     1      -8.839   7.475  66.837  1.00  0.00    -0.135 C  
HETATM   10  H   UNL     1      -7.255   7.655  68.163  1.00  0.00     0.000 HD 
HETATM   11  O   UNL     1      -9.402   6.796  65.981  1.00  0.00    -0.109 OA 
BRANCH   9  12
HETATM   12  C   UNL     1      -9.383   8.755  67.301  1.00  0.00    -0.181 A  
HETATM   13  C   UNL     1     -10.244   9.002  68.365  1.00  0.00    -0.201 A  
HETATM   14  C   UNL     1     -10.879   8.123  69.386  1.00  0.00    -0.096 C  
HETATM   15  N   UNL     1     -10.447  10.364  68.433  1.00  0.00    -0.178 NA 
HETATM   16  H   UNL     1     -11.061  10.825  69.106  1.00  0.00     0.000 HD 
HETATM   17  C   UNL     1      -9.716  11.016  67.478  1.00  0.00    -0.172 A  
HETATM   18  C   UNL     1      -9.039  10.044  66.751  1.00  0.00    -0.159 A  
HETATM   19  C   UNL     1      -8.108  10.265  65.601  1.00  0.00    -0.155 C  
BRANCH  17  20
HETATM   20  C   UNL     1      -9.704  12.427  67.339  1.00  0.00    -0.193 C  
HETATM   21  C   UNL     1     -10.163  13.211  66.354  1.00  0.00    -0.286 C  
HETATM   22  C   UNL     1     -10.841  12.893  65.046  1.00  0.00    -0.299 C  
HETATM   23  N   UNL     1     -11.072  14.128  64.449  1.00  0.00    -0.589 N  
HETATM   24  O   UNL     1     -11.126  11.802  64.595  1.00  0.00    -0.307 OA 
HETATM   25  C   UNL     1     -10.614  15.175  65.243  1.00  0.00    -0.411 A  
HETATM   26  H   UNL     1     -11.522  14.251  63.542  1.00  0.00     0.000 HD 
HETATM   27  C   UNL     1     -10.051  14.679  66.422  1.00  0.00    -0.288 A  
HETATM   28  C   UNL     1      -9.531  15.541  67.372  1.00  0.00    -0.213 A  
HETATM   29  C   UNL     1      -9.586  16.906  67.104  1.00  0.00    -0.244 A  
HETATM   30  F   UNL     1      -9.088  17.765  68.002  1.00  0.00    -0.246 F  
HETATM   31  C   UNL     1     -10.146  17.402  65.919  1.00  0.00    -0.219 A  
HETATM   32  C   UNL     1     -10.675  16.527  64.965  1.00  0.00    -0.228 A  
ENDBRANCH  17  20
ENDBRANCH   9  12
ENDBRANCH   7   8
ENDBRANCH   6   7
ENDBRANCH   3   6
ENDBRANCH   2   3
TORSDOF 7
ENDMDL
MODEL      204
REMARK 921   NORMALIZED FREE ENERGY PREDICTED BY IDOCK:   -3.71 KCAL/MOL
REMARK 922        TOTAL FREE ENERGY PREDICTED BY IDOCK:   -6.32 KCAL/MOL
REMARK 923 INTER-LIGAND FREE ENERGY PREDICTED BY IDOCK:   -6.14 KCAL/MOL
REMARK 924 INTRA-LIGAND FREE ENERGY PREDICTED BY IDOCK:   -0.18 KCAL/MOL
REMARK 927      BINDING AFFINITY PREDICTED BY RF-SCORE:    0.00 PKD
ROOT
HETATM    1  C   UNL     1     -12.044  15.243  71.782  1.00  0.00    -0.439 C  
HETATM    2  C   UNL     1     -11.051  15.290  70.624  1.00  0.00    -0.308 C  
ENDROOT
BRANCH   2   3
HETATM    3  N   UNL     1     -11.459  16.135  69.490  1.00  0.00    -0.316 NA 
BRANCH   3   4
HETATM    4  C   UNL     1     -10.604  17.323  69.294  1.00  0.00    -0.156 C  
HETATM    5  C   UNL     1     -10.006  17.513  67.899  1.00  0.00    -0.312 C  
ENDBRANCH   3   4
BRANCH   3   6
HETATM    6  C   UNL     1     -11.557  15.350  68.235  1.00  0.00    -0.348 C  
BRANCH   6   7
HETATM    7  C   UNL     1     -11.975  13.877  68.396  1.00  0.00    -0.356 C  
BRANCH   7   8
HETATM    8  N   UNL     1     -11.195  12.990  67.563  1.00  0.00    -0.271 N  
HETATM    9  C   UNL     1     -11.410  11.635  67.576  1.00  0.00    -0.298 C  
HETATM   10  H   UNL     1     -10.472  13.378  66.956  1.00  0.00     0.000 HD 
HETATM   11  O   UNL     1     -12.280  11.118  68.274  1.00  0.00    -0.613 OA 
BRANCH   9  12
HETATM   12  C   UNL     1     -10.562  10.849  66.675  1.00  0.00    -0.305 A  
HETATM   13  C   UNL     1     -10.086  11.185  65.412  1.00  0.00    -0.264 A  
HETATM   14  C   UNL     1     -10.226  12.399  64.561  1.00  0.00    -0.325 C  
HETATM   15  N   UNL     1      -9.300  10.142  64.969  1.00  0.00    -0.220 NA 
HETATM   16  H   UNL     1      -8.844  10.109  64.057  1.00  0.00     0.000 HD 
HETATM   17  C   UNL     1      -9.213   9.159  65.916  1.00  0.00    -0.227 A  
HETATM   18  C   UNL     1      -9.989   9.564  66.995  1.00  0.00    -0.273 A  
HETATM   19  C   UNL     1     -10.206   8.823  68.277  1.00  0.00    -0.240 C  
BRANCH  17  20
HETATM   20  C   UNL     1      -8.439   7.982  65.743  1.00  0.00    -0.159 C  
HETATM   21  C   UNL     1      -7.880   7.460  64.644  1.00  0.00    -0.123 C  
HETATM   22  C   UNL     1      -7.871   7.909  63.205  1.00  0.00    -0.141 C  
HETATM   23  N   UNL     1      -7.128   6.948  62.530  1.00  0.00    -0.051 N  
HETATM   24  O   UNL     1      -8.397   8.893  62.725  1.00  0.00    -0.184 OA 
HETATM   25  C   UNL     1      -6.675   5.953  63.391  1.00  0.00    -0.036 A  
HETATM   26  H   UNL     1      -6.939   6.969  61.528  1.00  0.00     0.000 HD 
HETATM   27  C   UNL     1      -7.099   6.211  64.697  1.00  0.00    -0.057 A  
HETATM   28  C   UNL     1      -6.760   5.354  65.730  1.00  0.00    -0.053 A  
HETATM   29  C   UNL     1      -5.995   4.235  65.416  1.00  0.00    -0.023 A  
HETATM   30  F   UNL     1      -5.654   3.385  66.394  1.00  0.00    -0.015 F  
HETATM   31  C   UNL     1      -5.574   3.974  64.105  1.00  0.00    -0.014 A  
HETATM   32  C   UNL     1      -5.914   4.845  63.066  1.00  0.00    -0.017 A  
ENDBRANCH  17  20
ENDBRANCH   9  12
ENDBRANCH   7   8
ENDBRANCH   6   7
ENDBRANCH   3   6
ENDBRANCH   2   3
TORSDOF 7
ENDMDL
MODEL      205
REMARK 921   NORMALIZED FREE ENERGY PREDICTED BY IDOCK:   -3.71 KCAL/MOL
REMARK 922        TOTAL FREE ENERGY PREDICTED BY IDOCK:   -6.31 KCAL/MOL
REMARK 923 INTER-LIGAND FREE ENERGY PREDICTED BY IDOCK:   -5.36 KCAL/MOL
REMARK 924 INTRA-LIGAND FREE ENERGY PREDICTED BY IDOCK:   -0.95 KCAL/MOL
REMARK 927      BINDING AFFINITY PREDICTED BY RF-SCORE:    0.00 PKD
ROOT
HETATM    1  C   UNL     1      -9.792   4.769  68.275  1.00  0.00    -0.181 C  
HETATM    2  C   UNL     1      -8.761   4.681  69.396  1.00  0.00    -0.082 C  
ENDROOT
BRANCH   2   3
HETATM    3  N   UNL     1      -8.567   5.925  70.160  1.00  0.00    -0.132 NA 
BRANCH   3   4
HETATM    4  C   UNL     1      -7.193   6.100  70.672  1.00  0.00    -0.077 C  
HETATM    5  C   UNL     1      -6.198   4.982  70.360  1.00  0.00    -0.019 C  
ENDBRANCH   3   4
BRANCH   3   6
HETATM    6  C   UNL     1      -8.989   7.113  69.379  1.00  0.00    -0.136 C  
BRANCH   6   7
HETATM    7  C   UNL     1      -7.885   8.141  69.072  1.00  0.00    -0.108 C  
BRANCH   7   8
HETATM    8  N   UNL     1      -8.403   9.484  68.950  1.00  0.00    -0.118 N  
HETATM    9  C   UNL     1      -8.663  10.034  67.719  1.00  0.00    -0.125 C  
HETATM   10  H   UNL     1      -8.579  10.034  69.791  1.00  0.00     0.000 HD 
HETATM   11  O   UNL     1      -8.486   9.410  66.675  1.00  0.00    -0.124 OA 
BRANCH   9  12
HETATM   12  C   UNL     1      -9.198  11.398  67.733  1.00  0.00    -0.159 A  
HETATM   13  C   UNL     1     -10.479  11.828  68.064  1.00  0.00    -0.199 A  
HETATM   14  C   UNL     1     -11.705  11.117  68.523  1.00  0.00    -0.368 C  
HETATM   15  N   UNL     1     -10.500  13.203  67.963  1.00  0.00    -0.232 NA 
HETATM   16  H   UNL     1     -11.324  13.783  68.122  1.00  0.00     0.000 HD 
HETATM   17  C   UNL     1      -9.267  13.687  67.620  1.00  0.00    -0.213 A  
HETATM   18  C   UNL     1      -8.429  12.590  67.467  1.00  0.00    -0.177 A  
HETATM   19  C   UNL     1      -6.978  12.608  67.098  1.00  0.00    -0.031 C  
BRANCH  17  20
HETATM   20  C   UNL     1      -8.988  15.071  67.481  1.00  0.00    -0.189 C  
HETATM   21  C   UNL     1      -8.154  15.865  68.165  1.00  0.00    -0.145 C  
HETATM   22  C   UNL     1      -7.226  15.595  69.322  1.00  0.00    -0.198 C  
HETATM   23  N   UNL     1      -6.628  16.819  69.600  1.00  0.00    -0.209 N  
HETATM   24  O   UNL     1      -7.034  14.544  69.899  1.00  0.00    -0.145 OA 
HETATM   25  C   UNL     1      -7.082  17.817  68.743  1.00  0.00    -0.263 A  
HETATM   26  H   UNL     1      -5.942  16.968  70.340  1.00  0.00     0.000 HD 
HETATM   27  C   UNL     1      -8.014  17.296  67.841  1.00  0.00    -0.205 A  
HETATM   28  C   UNL     1      -8.600  18.107  66.885  1.00  0.00    -0.268 A  
HETATM   29  C   UNL     1      -8.232  19.449  66.864  1.00  0.00    -0.281 A  
HETATM   30  F   UNL     1      -8.785  20.260  65.953  1.00  0.00    -0.320 F  
HETATM   31  C   UNL     1      -7.301  19.973  67.771  1.00  0.00    -0.329 A  
HETATM   32  C   UNL     1      -6.708  19.148  68.732  1.00  0.00    -0.330 A  
ENDBRANCH  17  20
ENDBRANCH   9  12
ENDBRANCH   7   8
ENDBRANCH   6   7
ENDBRANCH   3   6
ENDBRANCH   2   3
TORSDOF 7
ENDMDL
MODEL      206
REMARK 921   NORMALIZED FREE ENERGY PREDICTED BY IDOCK:   -3.71 KCAL/MOL
REMARK 922        TOTAL FREE ENERGY PREDICTED BY IDOCK:   -6.31 KCAL/MOL
REMARK 923 INTER-LIGAND FREE ENERGY PREDICTED BY IDOCK:   -5.17 KCAL/MOL
REMARK 924 INTRA-LIGAND FREE ENERGY PREDICTED BY IDOCK:   -1.14 KCAL/MOL
REMARK 927      BINDING AFFINITY PREDICTED BY RF-SCORE:    0.00 PKD
ROOT
HETATM    1  C   UNL     1     -10.675  17.217  65.381  1.00  0.00    -0.097 C  
HETATM    2  C   UNL     1     -11.307  15.935  64.848  1.00  0.00    -0.256 C  
ENDROOT
BRANCH   2   3
HETATM    3  N   UNL     1     -11.061  14.735  65.666  1.00  0.00    -0.332 NA 
BRANCH   3   4
HETATM    4  C   UNL     1     -10.635  15.033  67.048  1.00  0.00    -0.293 C  
HETATM    5  C   UNL     1     -11.602  14.632  68.164  1.00  0.00    -0.362 C  
ENDBRANCH   3   4
BRANCH   3   6
HETATM    6  C   UNL     1     -12.235  13.828  65.666  1.00  0.00    -0.454 C  
BRANCH   6   7
HETATM    7  C   UNL     1     -11.962  12.375  65.238  1.00  0.00    -0.404 C  
BRANCH   7   8
HETATM    8  N   UNL     1     -10.969  11.734  66.069  1.00  0.00    -0.301 N  
HETATM    9  C   UNL     1      -9.759  11.342  65.553  1.00  0.00    -0.230 C  
HETATM   10  H   UNL     1     -11.170  11.570  67.056  1.00  0.00     0.000 HD 
HETATM   11  O   UNL     1      -9.458  11.533  64.377  1.00  0.00    -0.184 OA 
BRANCH   9  12
HETATM   12  C   UNL     1      -8.836  10.717  66.504  1.00  0.00    -0.162 A  
HETATM   13  C   UNL     1      -7.769  11.291  67.189  1.00  0.00    -0.147 A  
HETATM   14  C   UNL     1      -7.213  12.671  67.234  1.00  0.00    -0.106 C  
HETATM   15  N   UNL     1      -7.217  10.318  67.996  1.00  0.00    -0.084 NA 
HETATM   16  H   UNL     1      -6.399  10.455  68.591  1.00  0.00     0.000 HD 
HETATM   17  C   UNL     1      -7.912   9.144  67.892  1.00  0.00    -0.101 A  
HETATM   18  C   UNL     1      -8.929   9.354  66.970  1.00  0.00    -0.146 A  
HETATM   19  C   UNL     1      -9.958   8.364  66.522  1.00  0.00    -0.335 C  
BRANCH  17  20
HETATM   20  C   UNL     1      -7.587   7.982  68.639  1.00  0.00    -0.100 C  
HETATM   21  C   UNL     1      -8.099   7.509  69.783  1.00  0.00    -0.126 C  
HETATM   22  C   UNL     1      -9.183   8.028  70.693  1.00  0.00    -0.154 C  
HETATM   23  N   UNL     1      -9.260   7.102  71.728  1.00  0.00    -0.140 N  
HETATM   24  O   UNL     1      -9.850   9.035  70.566  1.00  0.00    -0.185 OA 
HETATM   25  C   UNL     1      -8.344   6.068  71.559  1.00  0.00    -0.127 A  
HETATM   26  H   UNL     1      -9.907   7.173  72.514  1.00  0.00     0.000 HD 
HETATM   27  C   UNL     1      -7.608   6.258  70.387  1.00  0.00    -0.096 A  
HETATM   28  C   UNL     1      -6.637   5.347  70.009  1.00  0.00    -0.046 A  
HETATM   29  C   UNL     1      -6.423   4.250  70.838  1.00  0.00    -0.030 A  
HETATM   30  F   UNL     1      -5.488   3.353  70.501  1.00  0.00    -0.010 F  
HETATM   31  C   UNL     1      -7.159   4.062  72.016  1.00  0.00    -0.050 A  
HETATM   32  C   UNL     1      -8.142   4.983  72.391  1.00  0.00    -0.109 A  
ENDBRANCH  17  20
ENDBRANCH   9  12
ENDBRANCH   7   8
ENDBRANCH   6   7
ENDBRANCH   3   6
ENDBRANCH   2   3
TORSDOF 7
ENDMDL
MODEL      207
REMARK 921   NORMALIZED FREE ENERGY PREDICTED BY IDOCK:   -3.70 KCAL/MOL
REMARK 922        TOTAL FREE ENERGY PREDICTED BY IDOCK:   -6.30 KCAL/MOL
REMARK 923 INTER-LIGAND FREE ENERGY PREDICTED BY IDOCK:   -5.03 KCAL/MOL
REMARK 924 INTRA-LIGAND FREE ENERGY PREDICTED BY IDOCK:   -1.28 KCAL/MOL
REMARK 927      BINDING AFFINITY PREDICTED BY RF-SCORE:    0.00 PKD
ROOT
HETATM    1  C   UNL     1     -12.022  13.961  68.594  1.00  0.00    -0.401 C  
HETATM    2  C   UNL     1     -11.800  12.572  68.003  1.00  0.00    -0.325 C  
ENDROOT
BRANCH   2   3
HETATM    3  N   UNL     1     -10.577  12.429  67.194  1.00  0.00    -0.223 NA 
BRANCH   3   4
HETATM    4  C   UNL     1     -10.831  12.033  65.795  1.00  0.00    -0.287 C  
HETATM    5  C   UNL     1      -9.837  11.053  65.170  1.00  0.00    -0.319 C  
ENDBRANCH   3   4
BRANCH   3   6
HETATM    6  C   UNL     1      -9.746  13.657  67.246  1.00  0.00    -0.243 C  
BRANCH   6   7
HETATM    7  C   UNL     1      -8.283  13.460  67.682  1.00  0.00    -0.177 C  
BRANCH   7   8
HETATM    8  N   UNL     1      -8.127  12.358  68.604  1.00  0.00    -0.310 N  
HETATM    9  C   UNL     1      -7.521  11.190  68.215  1.00  0.00    -0.094 C  
HETATM   10  H   UNL     1      -8.473  12.450  69.559  1.00  0.00     0.000 HD 
HETATM   11  O   UNL     1      -7.070  11.033  67.083  1.00  0.00    -0.091 OA 
BRANCH   9  12
HETATM   12  C   UNL     1      -7.413  10.157  69.249  1.00  0.00    -0.111 A  
HETATM   13  C   UNL     1      -6.552  10.102  70.341  1.00  0.00    -0.132 A  
HETATM   14  C   UNL     1      -5.500  11.023  70.855  1.00  0.00    -0.106 C  
HETATM   15  N   UNL     1      -6.845   8.956  71.050  1.00  0.00    -0.073 NA 
HETATM   16  H   UNL     1      -6.347   8.650  71.885  1.00  0.00     0.000 HD 
HETATM   17  C   UNL     1      -7.894   8.285  70.482  1.00  0.00    -0.087 A  
HETATM   18  C   UNL     1      -8.274   9.004  69.356  1.00  0.00    -0.117 A  
HETATM   19  C   UNL     1      -9.381   8.670  68.405  1.00  0.00    -0.141 C  
BRANCH  17  20
HETATM   20  C   UNL     1      -8.433   7.090  71.023  1.00  0.00    -0.133 C  
HETATM   21  C   UNL     1      -8.460   5.844  70.531  1.00  0.00    -0.128 C  
HETATM   22  C   UNL     1      -7.946   5.258  69.241  1.00  0.00    -0.088 C  
HETATM   23  N   UNL     1      -8.277   3.909  69.299  1.00  0.00    -0.061 N  
HETATM   24  O   UNL     1      -7.371   5.828  68.336  1.00  0.00    -0.077 OA 
HETATM   25  C   UNL     1      -8.938   3.594  70.482  1.00  0.00    -0.094 A  
HETATM   26  H   UNL     1      -8.062   3.234  68.565  1.00  0.00     0.000 HD 
HETATM   27  C   UNL     1      -9.077   4.734  71.278  1.00  0.00    -0.179 A  
HETATM   28  C   UNL     1      -9.702   4.660  72.512  1.00  0.00    -0.199 A  
HETATM   29  C   UNL     1     -10.185   3.420  72.918  1.00  0.00    -0.164 A  
HETATM   30  F   UNL     1     -10.797   3.318  74.104  1.00  0.00    -0.231 F  
HETATM   31  C   UNL     1     -10.049   2.278  72.117  1.00  0.00    -0.223 A  
HETATM   32  C   UNL     1      -9.413   2.356  70.874  1.00  0.00    -0.214 A  
ENDBRANCH  17  20
ENDBRANCH   9  12
ENDBRANCH   7   8
ENDBRANCH   6   7
ENDBRANCH   3   6
ENDBRANCH   2   3
TORSDOF 7
ENDMDL
MODEL      208
REMARK 921   NORMALIZED FREE ENERGY PREDICTED BY IDOCK:   -3.69 KCAL/MOL
REMARK 922        TOTAL FREE ENERGY PREDICTED BY IDOCK:   -6.29 KCAL/MOL
REMARK 923 INTER-LIGAND FREE ENERGY PREDICTED BY IDOCK:   -5.02 KCAL/MOL
REMARK 924 INTRA-LIGAND FREE ENERGY PREDICTED BY IDOCK:   -1.28 KCAL/MOL
REMARK 927      BINDING AFFINITY PREDICTED BY RF-SCORE:    0.00 PKD
ROOT
HETATM    1  C   UNL     1      -7.219   2.860  63.612  1.00  0.00    -0.049 C  
HETATM    2  C   UNL     1      -7.085   4.107  64.482  1.00  0.00    -0.051 C  
ENDROOT
BRANCH   2   3
HETATM    3  N   UNL     1      -7.151   3.863  65.932  1.00  0.00    -0.065 NA 
BRANCH   3   4
HETATM    4  C   UNL     1      -6.086   4.541  66.699  1.00  0.00    -0.031 C  
HETATM    5  C   UNL     1      -6.420   4.924  68.142  1.00  0.00    -0.041 C  
ENDBRANCH   3   4
BRANCH   3   6
HETATM    6  C   UNL     1      -8.487   4.204  66.480  1.00  0.00    -0.104 C  
BRANCH   6   7
HETATM    7  C   UNL     1      -9.245   5.327  65.749  1.00  0.00    -0.151 C  
BRANCH   7   8
HETATM    8  N   UNL     1      -8.959   6.632  66.299  1.00  0.00    -0.152 N  
HETATM    9  C   UNL     1      -8.316   7.589  65.553  1.00  0.00    -0.133 C  
HETATM   10  H   UNL     1      -9.238   6.846  67.256  1.00  0.00     0.000 HD 
HETATM   11  O   UNL     1      -7.974   7.389  64.389  1.00  0.00    -0.132 OA 
BRANCH   9  12
HETATM   12  C   UNL     1      -8.098   8.874  66.222  1.00  0.00    -0.110 A  
HETATM   13  C   UNL     1      -7.079   9.239  67.097  1.00  0.00    -0.086 A  
HETATM   14  C   UNL     1      -5.890   8.520  67.632  1.00  0.00    -0.043 C  
HETATM   15  N   UNL     1      -7.274  10.561  67.440  1.00  0.00    -0.090 NA 
HETATM   16  H   UNL     1      -6.689  11.081  68.094  1.00  0.00     0.000 HD 
HETATM   17  C   UNL     1      -8.358  11.080  66.786  1.00  0.00    -0.147 A  
HETATM   18  C   UNL     1      -8.898  10.057  66.017  1.00  0.00    -0.164 A  
HETATM   19  C   UNL     1     -10.094  10.138  65.121  1.00  0.00    -0.329 C  
BRANCH  17  20
HETATM   20  C   UNL     1      -8.770  12.431  66.921  1.00  0.00    -0.191 C  
HETATM   21  C   UNL     1      -9.662  12.992  67.748  1.00  0.00    -0.218 C  
HETATM   22  C   UNL     1     -10.551  12.410  68.818  1.00  0.00    -0.183 C  
HETATM   23  N   UNL     1     -11.259  13.493  69.328  1.00  0.00    -0.361 N  
HETATM   24  O   UNL     1     -10.642  11.251  69.167  1.00  0.00    -0.218 OA 
HETATM   25  C   UNL     1     -10.907  14.680  68.694  1.00  0.00    -0.255 A  
HETATM   26  H   UNL     1     -11.951  13.425  70.074  1.00  0.00     0.000 HD 
HETATM   27  C   UNL     1      -9.933  14.440  67.720  1.00  0.00    -0.226 A  
HETATM   28  C   UNL     1      -9.425  15.480  66.961  1.00  0.00    -0.238 A  
HETATM   29  C   UNL     1      -9.922  16.758  67.201  1.00  0.00    -0.274 A  
HETATM   30  F   UNL     1      -9.452  17.784  66.480  1.00  0.00    -0.260 F  
HETATM   31  C   UNL     1     -10.902  16.997  68.173  1.00  0.00    -0.338 A  
HETATM   32  C   UNL     1     -11.409  15.944  68.941  1.00  0.00    -0.377 A  
ENDBRANCH  17  20
ENDBRANCH   9  12
ENDBRANCH   7   8
ENDBRANCH   6   7
ENDBRANCH   3   6
ENDBRANCH   2   3
TORSDOF 7
ENDMDL
MODEL      209
REMARK 921   NORMALIZED FREE ENERGY PREDICTED BY IDOCK:   -3.68 KCAL/MOL
REMARK 922        TOTAL FREE ENERGY PREDICTED BY IDOCK:   -6.27 KCAL/MOL
REMARK 923 INTER-LIGAND FREE ENERGY PREDICTED BY IDOCK:   -5.72 KCAL/MOL
REMARK 924 INTRA-LIGAND FREE ENERGY PREDICTED BY IDOCK:   -0.56 KCAL/MOL
REMARK 927      BINDING AFFINITY PREDICTED BY RF-SCORE:    0.00 PKD
ROOT
HETATM    1  C   UNL     1      -5.671  17.448  70.321  1.00  0.00    -0.192 C  
HETATM    2  C   UNL     1      -5.520  17.303  68.810  1.00  0.00    -0.148 C  
ENDROOT
BRANCH   2   3
HETATM    3  N   UNL     1      -6.785  17.283  68.058  1.00  0.00    -0.170 NA 
BRANCH   3   4
HETATM    4  C   UNL     1      -6.958  18.437  67.153  1.00  0.00    -0.198 C  
HETATM    5  C   UNL     1      -8.216  19.284  67.356  1.00  0.00    -0.311 C  
ENDBRANCH   3   4
BRANCH   3   6
HETATM    6  C   UNL     1      -6.956  16.009  67.317  1.00  0.00    -0.205 C  
BRANCH   6   7
HETATM    7  C   UNL     1      -8.409  15.574  67.055  1.00  0.00    -0.232 C  
BRANCH   7   8
HETATM    8  N   UNL     1      -8.727  14.311  67.679  1.00  0.00    -0.180 N  
HETATM    9  C   UNL     1      -9.842  13.600  67.312  1.00  0.00    -0.241 C  
HETATM   10  H   UNL     1      -8.114  13.941  68.406  1.00  0.00     0.000 HD 
HETATM   11  O   UNL     1     -10.604  13.990  66.430  1.00  0.00    -0.276 OA 
BRANCH   9  12
HETATM   12  C   UNL     1     -10.043  12.328  68.012  1.00  0.00    -0.206 A  
HETATM   13  C   UNL     1     -10.966  12.016  69.005  1.00  0.00    -0.210 A  
HETATM   14  C   UNL     1     -12.046  12.795  69.672  1.00  0.00    -0.286 C  
HETATM   15  N   UNL     1     -10.798  10.687  69.332  1.00  0.00    -0.230 NA 
HETATM   16  H   UNL     1     -11.326  10.197  70.054  1.00  0.00     0.000 HD 
HETATM   17  C   UNL     1      -9.828  10.112  68.557  1.00  0.00    -0.154 A  
HETATM   18  C   UNL     1      -9.333  11.106  67.722  1.00  0.00    -0.166 A  
HETATM   19  C   UNL     1      -8.258  10.963  66.690  1.00  0.00    -0.145 C  
BRANCH  17  20
HETATM   20  C   UNL     1      -9.470   8.743  68.652  1.00  0.00    -0.143 C  
HETATM   21  C   UNL     1      -9.992   7.754  69.390  1.00  0.00    -0.188 C  
HETATM   22  C   UNL     1     -11.126   7.727  70.383  1.00  0.00    -0.251 C  
HETATM   23  N   UNL     1     -11.189   6.410  70.825  1.00  0.00    -0.306 N  
HETATM   24  O   UNL     1     -11.837   8.647  70.733  1.00  0.00    -0.265 OA 
HETATM   25  C   UNL     1     -10.220   5.618  70.216  1.00  0.00    -0.243 A  
HETATM   26  H   UNL     1     -11.861   6.067  71.511  1.00  0.00     0.000 HD 
HETATM   27  C   UNL     1      -9.459   6.381  69.326  1.00  0.00    -0.140 A  
HETATM   28  C   UNL     1      -8.434   5.801  68.598  1.00  0.00    -0.107 A  
HETATM   29  C   UNL     1      -8.193   4.444  68.791  1.00  0.00    -0.080 A  
HETATM   30  F   UNL     1      -7.206   3.855  68.104  1.00  0.00    -0.055 F  
HETATM   31  C   UNL     1      -8.953   3.681  69.687  1.00  0.00    -0.175 A  
HETATM   32  C   UNL     1      -9.990   4.270  70.417  1.00  0.00    -0.213 A  
ENDBRANCH  17  20
ENDBRANCH   9  12
ENDBRANCH   7   8
ENDBRANCH   6   7
ENDBRANCH   3   6
ENDBRANCH   2   3
TORSDOF 7
ENDMDL
MODEL      210
REMARK 921   NORMALIZED FREE ENERGY PREDICTED BY IDOCK:   -3.66 KCAL/MOL
REMARK 922        TOTAL FREE ENERGY PREDICTED BY IDOCK:   -6.25 KCAL/MOL
REMARK 923 INTER-LIGAND FREE ENERGY PREDICTED BY IDOCK:   -5.19 KCAL/MOL
REMARK 924 INTRA-LIGAND FREE ENERGY PREDICTED BY IDOCK:   -1.06 KCAL/MOL
REMARK 927      BINDING AFFINITY PREDICTED BY RF-SCORE:    0.00 PKD
ROOT
HETATM    1  C   UNL     1     -10.901   4.625  65.437  1.00  0.00    -0.093 C  
HETATM    2  C   UNL     1      -9.625   4.135  66.117  1.00  0.00    -0.196 C  
ENDROOT
BRANCH   2   3
HETATM    3  N   UNL     1      -8.862   3.131  65.356  1.00  0.00    -0.130 NA 
BRANCH   3   4
HETATM    4  C   UNL     1      -9.378   2.900  63.992  1.00  0.00    -0.118 C  
HETATM    5  C   UNL     1      -9.266   1.473  63.451  1.00  0.00    -0.089 C  
ENDBRANCH   3   4
BRANCH   3   6
HETATM    6  C   UNL     1      -7.417   3.463  65.319  1.00  0.00    -0.076 C  
BRANCH   6   7
HETATM    7  C   UNL     1      -6.919   4.155  64.037  1.00  0.00    -0.046 C  
BRANCH   7   8
HETATM    8  N   UNL     1      -7.287   5.552  63.987  1.00  0.00    -0.055 N  
HETATM    9  C   UNL     1      -6.612   6.489  64.729  1.00  0.00    -0.038 C  
HETATM   10  H   UNL     1      -8.062   5.846  63.393  1.00  0.00     0.000 HD 
HETATM   11  O   UNL     1      -5.660   6.191  65.447  1.00  0.00    -0.016 OA 
BRANCH   9  12
HETATM   12  C   UNL     1      -7.075   7.871  64.578  1.00  0.00    -0.073 A  
HETATM   13  C   UNL     1      -6.669   8.831  63.657  1.00  0.00    -0.088 A  
HETATM   14  C   UNL     1      -5.694   8.814  62.531  1.00  0.00    -0.083 C  
HETATM   15  N   UNL     1      -7.412   9.971  63.883  1.00  0.00    -0.135 NA 
HETATM   16  H   UNL     1      -7.303  10.844  63.368  1.00  0.00     0.000 HD 
HETATM   17  C   UNL     1      -8.316   9.773  64.891  1.00  0.00    -0.148 A  
HETATM   18  C   UNL     1      -8.135   8.474  65.350  1.00  0.00    -0.127 A  
HETATM   19  C   UNL     1      -8.893   7.791  66.445  1.00  0.00    -0.180 C  
BRANCH  17  20
HETATM   20  C   UNL     1      -9.237  10.766  65.312  1.00  0.00    -0.233 C  
HETATM   21  C   UNL     1      -9.273  11.505  66.429  1.00  0.00    -0.218 C  
HETATM   22  C   UNL     1      -8.372  11.551  67.637  1.00  0.00    -0.135 C  
HETATM   23  N   UNL     1      -8.930  12.516  68.468  1.00  0.00    -0.363 N  
HETATM   24  O   UNL     1      -7.375  10.893  67.854  1.00  0.00    -0.085 OA 
HETATM   25  C   UNL     1     -10.076  13.074  67.908  1.00  0.00    -0.235 A  
HETATM   26  H   UNL     1      -8.547  12.783  69.375  1.00  0.00     0.000 HD 
HETATM   27  C   UNL     1     -10.336  12.499  66.661  1.00  0.00    -0.244 A  
HETATM   28  C   UNL     1     -11.428  12.903  65.913  1.00  0.00    -0.387 A  
HETATM   29  C   UNL     1     -12.250  13.888  66.450  1.00  0.00    -0.449 A  
HETATM   30  F   UNL     1     -13.317  14.298  65.752  1.00  0.00    -0.505 F  
HETATM   31  C   UNL     1     -11.992  14.461  67.703  1.00  0.00    -0.378 A  
HETATM   32  C   UNL     1     -10.885  14.054  68.453  1.00  0.00    -0.263 A  
ENDBRANCH  17  20
ENDBRANCH   9  12
ENDBRANCH   7   8
ENDBRANCH   6   7
ENDBRANCH   3   6
ENDBRANCH   2   3
TORSDOF 7
ENDMDL
MODEL      211
REMARK 921   NORMALIZED FREE ENERGY PREDICTED BY IDOCK:   -3.66 KCAL/MOL
REMARK 922        TOTAL FREE ENERGY PREDICTED BY IDOCK:   -6.25 KCAL/MOL
REMARK 923 INTER-LIGAND FREE ENERGY PREDICTED BY IDOCK:   -5.07 KCAL/MOL
REMARK 924 INTRA-LIGAND FREE ENERGY PREDICTED BY IDOCK:   -1.18 KCAL/MOL
REMARK 927      BINDING AFFINITY PREDICTED BY RF-SCORE:    0.00 PKD
ROOT
HETATM    1  C   UNL     1      -9.841   5.286  69.564  1.00  0.00    -0.270 C  
HETATM    2  C   UNL     1      -9.678   4.649  68.187  1.00  0.00    -0.138 C  
ENDROOT
BRANCH   2   3
HETATM    3  N   UNL     1      -8.289   4.347  67.803  1.00  0.00    -0.098 NA 
BRANCH   3   4
HETATM    4  C   UNL     1      -8.098   2.977  67.285  1.00  0.00    -0.078 C  
HETATM    5  C   UNL     1      -9.348   2.100  67.193  1.00  0.00    -0.034 C  
ENDBRANCH   3   4
BRANCH   3   6
HETATM    6  C   UNL     1      -7.763   5.347  66.841  1.00  0.00    -0.100 C  
BRANCH   6   7
HETATM    7  C   UNL     1      -8.797   6.328  66.260  1.00  0.00    -0.147 C  
BRANCH   7   8
HETATM    8  N   UNL     1      -8.702   7.642  66.853  1.00  0.00    -0.125 N  
HETATM    9  C   UNL     1      -9.827   8.380  67.124  1.00  0.00    -0.215 C  
HETATM   10  H   UNL     1      -7.784   8.029  67.074  1.00  0.00     0.000 HD 
HETATM   11  O   UNL     1     -10.957   7.955  66.894  1.00  0.00    -0.188 OA 
BRANCH   9  12
HETATM   12  C   UNL     1      -9.595   9.690  67.738  1.00  0.00    -0.161 A  
HETATM   13  C   UNL     1      -9.364   9.997  69.075  1.00  0.00    -0.181 A  
HETATM   14  C   UNL     1      -9.248   9.166  70.305  1.00  0.00    -0.249 C  
HETATM   15  N   UNL     1      -9.168  11.359  69.165  1.00  0.00    -0.404 NA 
HETATM   16  H   UNL     1      -9.005  11.864  70.036  1.00  0.00     0.000 HD 
HETATM   17  C   UNL     1      -9.221  11.943  67.929  1.00  0.00    -0.187 A  
HETATM   18  C   UNL     1      -9.486  10.933  67.013  1.00  0.00    -0.184 A  
HETATM   19  C   UNL     1      -9.633  11.077  65.530  1.00  0.00    -0.263 C  
BRANCH  17  20
HETATM   20  C   UNL     1      -9.017  13.331  67.718  1.00  0.00    -0.196 C  
HETATM   21  C   UNL     1      -7.925  14.088  67.888  1.00  0.00    -0.158 C  
HETATM   22  C   UNL     1      -6.534  13.759  68.368  1.00  0.00    -0.099 C  
HETATM   23  N   UNL     1      -5.845  14.966  68.336  1.00  0.00    -0.098 N  
HETATM   24  O   UNL     1      -6.097  12.680  68.715  1.00  0.00    -0.063 OA 
HETATM   25  C   UNL     1      -6.654  16.006  67.888  1.00  0.00    -0.144 A  
HETATM   26  H   UNL     1      -4.867  15.076  68.606  1.00  0.00     0.000 HD 
HETATM   27  C   UNL     1      -7.935  15.533  67.596  1.00  0.00    -0.168 A  
HETATM   28  C   UNL     1      -8.914  16.392  67.127  1.00  0.00    -0.218 A  
HETATM   29  C   UNL     1      -8.574  17.732  66.966  1.00  0.00    -0.236 A  
HETATM   30  F   UNL     1      -9.501  18.589  66.518  1.00  0.00    -0.283 F  
HETATM   31  C   UNL     1      -7.290  18.207  67.264  1.00  0.00    -0.219 A  
HETATM   32  C   UNL     1      -6.303  17.335  67.733  1.00  0.00    -0.161 A  
ENDBRANCH  17  20
ENDBRANCH   9  12
ENDBRANCH   7   8
ENDBRANCH   6   7
ENDBRANCH   3   6
ENDBRANCH   2   3
TORSDOF 7
ENDMDL
MODEL      212
REMARK 921   NORMALIZED FREE ENERGY PREDICTED BY IDOCK:   -3.66 KCAL/MOL
REMARK 922        TOTAL FREE ENERGY PREDICTED BY IDOCK:   -6.24 KCAL/MOL
REMARK 923 INTER-LIGAND FREE ENERGY PREDICTED BY IDOCK:   -7.06 KCAL/MOL
REMARK 924 INTRA-LIGAND FREE ENERGY PREDICTED BY IDOCK:    0.81 KCAL/MOL
REMARK 927      BINDING AFFINITY PREDICTED BY RF-SCORE:    0.00 PKD
ROOT
HETATM    1  C   UNL     1      -9.864  20.958  66.967  1.00  0.00    -0.194 C  
HETATM    2  C   UNL     1      -9.537  19.817  66.009  1.00  0.00    -0.345 C  
ENDROOT
BRANCH   2   3
HETATM    3  N   UNL     1      -9.885  18.473  66.502  1.00  0.00    -0.346 NA 
BRANCH   3   4
HETATM    4  C   UNL     1     -10.136  18.419  67.956  1.00  0.00    -0.368 C  
HETATM    5  C   UNL     1      -8.948  18.045  68.842  1.00  0.00    -0.139 C  
ENDBRANCH   3   4
BRANCH   3   6
HETATM    6  C   UNL     1     -11.030  17.900  65.753  1.00  0.00     0.242 C  
BRANCH   6   7
HETATM    7  C   UNL     1     -10.819  16.486  65.181  1.00  0.00    -0.233 C  
BRANCH   7   8
HETATM    8  N   UNL     1     -10.692  15.487  66.217  1.00  0.00    -0.310 N  
HETATM    9  C   UNL     1     -11.695  14.580  66.452  1.00  0.00    -0.363 C  
HETATM   10  H   UNL     1      -9.844  15.456  66.784  1.00  0.00     0.000 HD 
HETATM   11  O   UNL     1     -12.728  14.562  65.788  1.00  0.00    -0.306 OA 
BRANCH   9  12
HETATM   12  C   UNL     1     -11.436  13.611  67.522  1.00  0.00    -0.360 A  
HETATM   13  C   UNL     1     -11.238  13.844  68.879  1.00  0.00    -0.271 A  
HETATM   14  C   UNL     1     -11.240  15.079  69.711  1.00  0.00    -0.301 C  
HETATM   15  N   UNL     1     -11.065  12.621  69.493  1.00  0.00    -0.460 NA 
HETATM   16  H   UNL     1     -10.874  12.495  70.487  1.00  0.00     0.000 HD 
HETATM   17  C   UNL     1     -11.185  11.600  68.591  1.00  0.00    -0.250 A  
HETATM   18  C   UNL     1     -11.416  12.179  67.350  1.00  0.00    -0.415 A  
HETATM   19  C   UNL     1     -11.618  11.469  66.048  1.00  0.00     0.024 C  
BRANCH  17  20
HETATM   20  C   UNL     1     -11.090  10.231  68.952  1.00  0.00    -0.278 C  
HETATM   21  C   UNL     1     -10.506   9.202  68.323  1.00  0.00    -0.254 C  
HETATM   22  C   UNL     1      -9.757   9.111  67.018  1.00  0.00    -0.188 C  
HETATM   23  N   UNL     1      -9.398   7.773  66.900  1.00  0.00    -0.159 N  
HETATM   24  O   UNL     1      -9.515  10.003  66.230  1.00  0.00    -0.172 OA 
HETATM   25  C   UNL     1      -9.840   7.025  67.987  1.00  0.00    -0.138 A  
HETATM   26  H   UNL     1      -8.874   7.387  66.114  1.00  0.00     0.000 HD 
HETATM   27  C   UNL     1     -10.522   7.843  68.892  1.00  0.00    -0.205 A  
HETATM   28  C   UNL     1     -11.051   7.315  70.058  1.00  0.00    -0.262 A  
HETATM   29  C   UNL     1     -10.882   5.953  70.285  1.00  0.00    -0.320 A  
HETATM   30  F   UNL     1     -11.385   5.412  71.402  1.00  0.00    -0.240 F  
HETATM   31  C   UNL     1     -10.202   5.133  69.374  1.00  0.00    -0.293 A  
HETATM   32  C   UNL     1      -9.666   5.671  68.200  1.00  0.00    -0.153 A  
ENDBRANCH  17  20
ENDBRANCH   9  12
ENDBRANCH   7   8
ENDBRANCH   6   7
ENDBRANCH   3   6
ENDBRANCH   2   3
TORSDOF 7
ENDMDL
MODEL      213
REMARK 921   NORMALIZED FREE ENERGY PREDICTED BY IDOCK:   -3.64 KCAL/MOL
REMARK 922        TOTAL FREE ENERGY PREDICTED BY IDOCK:   -6.22 KCAL/MOL
REMARK 923 INTER-LIGAND FREE ENERGY PREDICTED BY IDOCK:   -6.39 KCAL/MOL
REMARK 924 INTRA-LIGAND FREE ENERGY PREDICTED BY IDOCK:    0.17 KCAL/MOL
REMARK 927      BINDING AFFINITY PREDICTED BY RF-SCORE:    0.00 PKD
ROOT
HETATM    1  C   UNL     1     -11.368  16.295  64.398  1.00  0.00    -0.137 C  
HETATM    2  C   UNL     1     -10.804  15.140  65.221  1.00  0.00    -0.400 C  
ENDROOT
BRANCH   2   3
HETATM    3  N   UNL     1     -11.518  14.868  66.480  1.00  0.00    -0.324 NA 
BRANCH   3   4
HETATM    4  C   UNL     1     -12.460  13.732  66.396  1.00  0.00    -0.355 C  
HETATM    5  C   UNL     1     -12.534  13.003  65.054  1.00  0.00    -0.534 C  
ENDBRANCH   3   4
BRANCH   3   6
HETATM    6  C   UNL     1     -10.576  14.682  67.609  1.00  0.00    -0.256 C  
BRANCH   6   7
HETATM    7  C   UNL     1      -9.205  14.079  67.249  1.00  0.00    -0.230 C  
BRANCH   7   8
HETATM    8  N   UNL     1      -9.282  12.662  66.977  1.00  0.00    -0.206 N  
HETATM    9  C   UNL     1      -9.906  11.806  67.849  1.00  0.00    -0.183 C  
HETATM   10  H   UNL     1      -8.865  12.292  66.122  1.00  0.00     0.000 HD 
HETATM   11  O   UNL     1     -10.440  12.202  68.883  1.00  0.00    -0.199 OA 
BRANCH   9  12
HETATM   12  C   UNL     1      -9.926  10.396  67.450  1.00  0.00    -0.226 A  
HETATM   13  C   UNL     1     -10.009   9.854  66.171  1.00  0.00    -0.263 A  
HETATM   14  C   UNL     1     -10.078  10.458  64.812  1.00  0.00    -0.387 C  
HETATM   15  N   UNL     1      -9.960   8.481  66.293  1.00  0.00    -0.432 NA 
HETATM   16  H   UNL     1     -10.029   7.828  65.513  1.00  0.00     0.000 HD 
HETATM   17  C   UNL     1      -9.806   8.113  67.602  1.00  0.00    -0.169 A  
HETATM   18  C   UNL     1      -9.782   9.281  68.353  1.00  0.00    -0.168 A  
HETATM   19  C   UNL     1      -9.628   9.395  69.838  1.00  0.00    -0.234 C  
BRANCH  17  20
HETATM   20  C   UNL     1      -9.689   6.761  68.018  1.00  0.00    -0.130 C  
HETATM   21  C   UNL     1      -9.256   5.680  67.357  1.00  0.00    -0.109 C  
HETATM   22  C   UNL     1      -8.752   5.493  65.948  1.00  0.00    -0.145 C  
HETATM   23  N   UNL     1      -8.460   4.137  65.845  1.00  0.00    -0.109 N  
HETATM   24  O   UNL     1      -8.627   6.332  65.080  1.00  0.00    -0.121 OA 
HETATM   25  C   UNL     1      -8.726   3.464  67.034  1.00  0.00    -0.122 A  
HETATM   26  H   UNL     1      -8.095   3.691  65.003  1.00  0.00     0.000 HD 
HETATM   27  C   UNL     1      -9.212   4.353  67.997  1.00  0.00    -0.174 A  
HETATM   28  C   UNL     1      -9.542   3.906  69.265  1.00  0.00    -0.232 A  
HETATM   29  C   UNL     1      -9.376   2.552  69.536  1.00  0.00    -0.102 A  
HETATM   30  F   UNL     1      -9.690   2.089  70.753  1.00  0.00    -0.198 F  
HETATM   31  C   UNL     1      -8.893   1.660  68.569  1.00  0.00    -0.128 A  
HETATM   32  C   UNL     1      -8.557   2.116  67.291  1.00  0.00    -0.119 A  
ENDBRANCH  17  20
ENDBRANCH   9  12
ENDBRANCH   7   8
ENDBRANCH   6   7
ENDBRANCH   3   6
ENDBRANCH   2   3
TORSDOF 7
ENDMDL
MODEL      214
REMARK 921   NORMALIZED FREE ENERGY PREDICTED BY IDOCK:   -3.63 KCAL/MOL
REMARK 922        TOTAL FREE ENERGY PREDICTED BY IDOCK:   -6.21 KCAL/MOL
REMARK 923 INTER-LIGAND FREE ENERGY PREDICTED BY IDOCK:   -5.55 KCAL/MOL
REMARK 924 INTRA-LIGAND FREE ENERGY PREDICTED BY IDOCK:   -0.65 KCAL/MOL
REMARK 927      BINDING AFFINITY PREDICTED BY RF-SCORE:    0.00 PKD
ROOT
HETATM    1  C   UNL     1      -5.215  13.752  72.025  1.00  0.00    -0.196 C  
HETATM    2  C   UNL     1      -5.331  15.161  71.451  1.00  0.00    -0.035 C  
ENDROOT
BRANCH   2   3
HETATM    3  N   UNL     1      -5.861  15.230  70.078  1.00  0.00    -0.131 NA 
BRANCH   3   4
HETATM    4  C   UNL     1      -5.407  16.416  69.324  1.00  0.00    -0.122 C  
HETATM    5  C   UNL     1      -5.571  17.771  70.016  1.00  0.00    -0.246 C  
ENDBRANCH   3   4
BRANCH   3   6
HETATM    6  C   UNL     1      -5.571  13.988  69.321  1.00  0.00    -0.083 C  
BRANCH   6   7
HETATM    7  C   UNL     1      -6.648  13.549  68.313  1.00  0.00    -0.107 C  
BRANCH   7   8
HETATM    8  N   UNL     1      -7.588  12.613  68.885  1.00  0.00    -0.305 N  
HETATM    9  C   UNL     1      -8.524  11.982  68.104  1.00  0.00    -0.171 C  
HETATM   10  H   UNL     1      -7.556  12.417  69.886  1.00  0.00     0.000 HD 
HETATM   11  O   UNL     1      -8.595  12.168  66.891  1.00  0.00    -0.191 OA 
BRANCH   9  12
HETATM   12  C   UNL     1      -9.408  11.046  68.804  1.00  0.00    -0.185 A  
HETATM   13  C   UNL     1     -10.795  11.075  68.915  1.00  0.00    -0.217 A  
HETATM   14  C   UNL     1     -11.841  11.990  68.380  1.00  0.00    -0.360 C  
HETATM   15  N   UNL     1     -11.181   9.967  69.640  1.00  0.00    -0.333 NA 
HETATM   16  H   UNL     1     -12.144   9.750  69.897  1.00  0.00     0.000 HD 
HETATM   17  C   UNL     1     -10.099   9.196  69.968  1.00  0.00    -0.206 A  
HETATM   18  C   UNL     1      -8.975   9.838  69.464  1.00  0.00    -0.215 A  
HETATM   19  C   UNL     1      -7.553   9.381  69.566  1.00  0.00    -0.086 C  
BRANCH  17  20
HETATM   20  C   UNL     1     -10.204   7.975  70.682  1.00  0.00    -0.205 C  
HETATM   21  C   UNL     1      -9.849   6.730  70.338  1.00  0.00    -0.186 C  
HETATM   22  C   UNL     1      -9.226   6.169  69.086  1.00  0.00    -0.127 C  
HETATM   23  N   UNL     1      -9.104   4.804  69.323  1.00  0.00    -0.099 N  
HETATM   24  O   UNL     1      -8.900   6.765  68.079  1.00  0.00    -0.121 OA 
HETATM   25  C   UNL     1      -9.580   4.458  70.584  1.00  0.00    -0.192 A  
HETATM   26  H   UNL     1      -8.712   4.138  68.656  1.00  0.00     0.000 HD 
HETATM   27  C   UNL     1     -10.047   5.592  71.254  1.00  0.00    -0.261 A  
HETATM   28  C   UNL     1     -10.565   5.491  72.533  1.00  0.00    -0.272 A  
HETATM   29  C   UNL     1     -10.608   4.228  73.115  1.00  0.00    -0.195 A  
HETATM   30  F   UNL     1     -11.108   4.097  74.350  1.00  0.00    -0.247 F  
HETATM   31  C   UNL     1     -10.145   3.090  72.440  1.00  0.00    -0.229 A  
HETATM   32  C   UNL     1      -9.617   3.198  71.150  1.00  0.00    -0.230 A  
ENDBRANCH  17  20
ENDBRANCH   9  12
ENDBRANCH   7   8
ENDBRANCH   6   7
ENDBRANCH   3   6
ENDBRANCH   2   3
TORSDOF 7
ENDMDL
MODEL      215
REMARK 921   NORMALIZED FREE ENERGY PREDICTED BY IDOCK:   -3.61 KCAL/MOL
REMARK 922        TOTAL FREE ENERGY PREDICTED BY IDOCK:   -6.17 KCAL/MOL
REMARK 923 INTER-LIGAND FREE ENERGY PREDICTED BY IDOCK:   -5.01 KCAL/MOL
REMARK 924 INTRA-LIGAND FREE ENERGY PREDICTED BY IDOCK:   -1.16 KCAL/MOL
REMARK 927      BINDING AFFINITY PREDICTED BY RF-SCORE:    0.00 PKD
ROOT
HETATM    1  C   UNL     1      -7.636   2.706  64.658  1.00  0.00    -0.075 C  
HETATM    2  C   UNL     1      -7.597   3.682  65.830  1.00  0.00    -0.078 C  
ENDROOT
BRANCH   2   3
HETATM    3  N   UNL     1      -7.888   3.086  67.145  1.00  0.00    -0.074 NA 
BRANCH   3   4
HETATM    4  C   UNL     1      -7.064   3.634  68.242  1.00  0.00    -0.051 C  
HETATM    5  C   UNL     1      -7.591   3.426  69.663  1.00  0.00    -0.044 C  
ENDBRANCH   3   4
BRANCH   3   6
HETATM    6  C   UNL     1      -9.330   3.182  67.477  1.00  0.00    -0.198 C  
BRANCH   6   7
HETATM    7  C   UNL     1     -10.104   4.322  66.789  1.00  0.00    -0.079 C  
BRANCH   7   8
HETATM    8  N   UNL     1     -10.413   5.403  67.696  1.00  0.00    -0.181 N  
HETATM    9  C   UNL     1      -9.633   6.531  67.746  1.00  0.00    -0.122 C  
HETATM   10  H   UNL     1     -11.225   5.327  68.309  1.00  0.00     0.000 HD 
HETATM   11  O   UNL     1      -8.655   6.681  67.016  1.00  0.00    -0.112 OA 
BRANCH   9  12
HETATM   12  C   UNL     1     -10.062   7.558  68.698  1.00  0.00    -0.194 A  
HETATM   13  C   UNL     1     -10.092   7.501  70.088  1.00  0.00    -0.195 A  
HETATM   14  C   UNL     1      -9.702   6.453  71.072  1.00  0.00    -0.192 C  
HETATM   15  N   UNL     1     -10.540   8.721  70.549  1.00  0.00    -0.207 NA 
HETATM   16  H   UNL     1     -10.687   8.949  71.532  1.00  0.00     0.000 HD 
HETATM   17  C   UNL     1     -10.762   9.584  69.511  1.00  0.00    -0.228 A  
HETATM   18  C   UNL     1     -10.476   8.894  68.340  1.00  0.00    -0.230 A  
HETATM   19  C   UNL     1     -10.564   9.417  66.940  1.00  0.00    -0.238 C  
BRANCH  17  20
HETATM   20  C   UNL     1     -11.193  10.923  69.695  1.00  0.00    -0.348 C  
HETATM   21  C   UNL     1     -10.582  12.082  69.415  1.00  0.00     0.108 C  
HETATM   22  C   UNL     1      -9.231  12.392  68.823  1.00  0.00     0.137 C  
HETATM   23  N   UNL     1      -9.162  13.781  68.786  1.00  0.00    -0.391 N  
HETATM   24  O   UNL     1      -8.376  11.612  68.456  1.00  0.00    -0.152 OA 
HETATM   25  C   UNL     1     -10.321  14.365  69.289  1.00  0.00    -0.102 A  
HETATM   26  H   UNL     1      -8.362  14.307  68.433  1.00  0.00     0.000 HD 
HETATM   27  C   UNL     1     -11.228  13.378  69.687  1.00  0.00    -0.115 A  
HETATM   28  C   UNL     1     -12.459  13.725  70.216  1.00  0.00    -0.357 A  
HETATM   29  C   UNL     1     -12.750  15.080  70.340  1.00  0.00    -0.325 A  
HETATM   30  F   UNL     1     -13.932  15.448  70.852  1.00  0.00    -0.480 F  
HETATM   31  C   UNL     1     -11.839  16.069  69.944  1.00  0.00    -0.237 A  
HETATM   32  C   UNL     1     -10.598  15.714  69.406  1.00  0.00    -0.253 A  
ENDBRANCH  17  20
ENDBRANCH   9  12
ENDBRANCH   7   8
ENDBRANCH   6   7
ENDBRANCH   3   6
ENDBRANCH   2   3
TORSDOF 7
ENDMDL
MODEL      216
REMARK 921   NORMALIZED FREE ENERGY PREDICTED BY IDOCK:   -3.60 KCAL/MOL
REMARK 922        TOTAL FREE ENERGY PREDICTED BY IDOCK:   -6.16 KCAL/MOL
REMARK 923 INTER-LIGAND FREE ENERGY PREDICTED BY IDOCK:   -5.59 KCAL/MOL
REMARK 924 INTRA-LIGAND FREE ENERGY PREDICTED BY IDOCK:   -0.57 KCAL/MOL
REMARK 927      BINDING AFFINITY PREDICTED BY RF-SCORE:    0.00 PKD
ROOT
HETATM    1  C   UNL     1     -12.436  14.926  73.829  1.00  0.00    -0.579 C  
HETATM    2  C   UNL     1     -11.389  14.995  72.721  1.00  0.00     0.118 C  
ENDROOT
BRANCH   2   3
HETATM    3  N   UNL     1     -11.884  14.652  71.377  1.00  0.00    -0.331 NA 
BRANCH   3   4
HETATM    4  C   UNL     1     -13.323  14.323  71.339  1.00  0.00    -0.340 C  
HETATM    5  C   UNL     1     -13.726  12.949  71.877  1.00  0.00    -0.257 C  
ENDBRANCH   3   4
BRANCH   3   6
HETATM    6  C   UNL     1     -11.565  15.715  70.394  1.00  0.00    -0.349 C  
BRANCH   6   7
HETATM    7  C   UNL     1     -11.486  15.268  68.923  1.00  0.00    -0.332 C  
BRANCH   7   8
HETATM    8  N   UNL     1     -10.612  14.132  68.739  1.00  0.00    -0.250 N  
HETATM    9  C   UNL     1      -9.998  13.899  67.534  1.00  0.00    -0.240 C  
HETATM   10  H   UNL     1     -10.449  13.493  69.517  1.00  0.00     0.000 HD 
HETATM   11  O   UNL     1     -10.145  14.647  66.570  1.00  0.00    -0.263 OA 
BRANCH   9  12
HETATM   12  C   UNL     1      -9.126  12.722  67.484  1.00  0.00    -0.193 A  
HETATM   13  C   UNL     1      -7.834  12.572  67.978  1.00  0.00    -0.147 A  
HETATM   14  C   UNL     1      -6.916  13.481  68.719  1.00  0.00    -0.102 C  
HETATM   15  N   UNL     1      -7.435  11.277  67.725  1.00  0.00    -0.092 NA 
HETATM   16  H   UNL     1      -6.516  10.898  67.956  1.00  0.00     0.000 HD 
HETATM   17  C   UNL     1      -8.437  10.566  67.122  1.00  0.00    -0.127 A  
HETATM   18  C   UNL     1      -9.508  11.435  66.955  1.00  0.00    -0.193 A  
HETATM   19  C   UNL     1     -10.837  11.120  66.343  1.00  0.00    -0.284 C  
BRANCH  17  20
HETATM   20  C   UNL     1      -8.317   9.194  66.780  1.00  0.00    -0.123 C  
HETATM   21  C   UNL     1      -8.970   8.120  67.241  1.00  0.00    -0.149 C  
HETATM   22  C   UNL     1     -10.048   7.966  68.284  1.00  0.00    -0.194 C  
HETATM   23  N   UNL     1     -10.318   6.602  68.326  1.00  0.00    -0.174 N  
HETATM   24  O   UNL     1     -10.574   8.833  68.951  1.00  0.00    -0.215 OA 
HETATM   25  C   UNL     1      -9.527   5.895  67.425  1.00  0.00    -0.111 A  
HETATM   26  H   UNL     1     -11.010   6.173  68.941  1.00  0.00     0.000 HD 
HETATM   27  C   UNL     1      -8.685   6.767  66.730  1.00  0.00    -0.122 A  
HETATM   28  C   UNL     1      -7.808   6.287  65.773  1.00  0.00    -0.103 A  
HETATM   29  C   UNL     1      -7.796   4.915  65.539  1.00  0.00    -0.095 A  
HETATM   30  F   UNL     1      -6.956   4.419  64.621  1.00  0.00    -0.046 F  
HETATM   31  C   UNL     1      -8.638   4.040  66.239  1.00  0.00    -0.110 A  
HETATM   32  C   UNL     1      -9.525   4.531  67.202  1.00  0.00    -0.182 A  
ENDBRANCH  17  20
ENDBRANCH   9  12
ENDBRANCH   7   8
ENDBRANCH   6   7
ENDBRANCH   3   6
ENDBRANCH   2   3
TORSDOF 7
ENDMDL
MODEL      217
REMARK 921   NORMALIZED FREE ENERGY PREDICTED BY IDOCK:   -3.59 KCAL/MOL
REMARK 922        TOTAL FREE ENERGY PREDICTED BY IDOCK:   -6.15 KCAL/MOL
REMARK 923 INTER-LIGAND FREE ENERGY PREDICTED BY IDOCK:   -7.03 KCAL/MOL
REMARK 924 INTRA-LIGAND FREE ENERGY PREDICTED BY IDOCK:    0.88 KCAL/MOL
REMARK 927      BINDING AFFINITY PREDICTED BY RF-SCORE:    0.00 PKD
ROOT
HETATM    1  C   UNL     1      -6.485   7.478  72.000  1.00  0.00    -0.042 C  
HETATM    2  C   UNL     1      -6.709   5.994  72.276  1.00  0.00    -0.072 C  
ENDROOT
BRANCH   2   3
HETATM    3  N   UNL     1      -8.083   5.636  72.667  1.00  0.00    -0.103 NA 
BRANCH   3   4
HETATM    4  C   UNL     1      -8.604   6.424  73.801  1.00  0.00    -0.123 C  
HETATM    5  C   UNL     1      -8.551   7.946  73.658  1.00  0.00    -0.316 C  
ENDBRANCH   3   4
BRANCH   3   6
HETATM    6  C   UNL     1      -9.011   5.705  71.512  1.00  0.00    -0.140 C  
BRANCH   6   7
HETATM    7  C   UNL     1     -10.479   6.022  71.849  1.00  0.00    -0.218 C  
BRANCH   7   8
HETATM    8  N   UNL     1     -10.833   7.388  71.538  1.00  0.00    -0.224 N  
HETATM    9  C   UNL     1     -11.286   7.736  70.290  1.00  0.00    -0.163 C  
HETATM   10  H   UNL     1     -10.743   8.106  72.258  1.00  0.00     0.000 HD 
HETATM   11  O   UNL     1     -11.430   6.908  69.394  1.00  0.00    -0.173 OA 
BRANCH   9  12
HETATM   12  C   UNL     1     -11.623   9.151  70.109  1.00  0.00    -0.041 A  
HETATM   13  C   UNL     1     -12.477   9.947  70.865  1.00  0.00    -0.307 A  
HETATM   14  C   UNL     1     -13.301   9.690  72.079  1.00  0.00    -0.547 C  
HETATM   15  N   UNL     1     -12.448  11.219  70.332  1.00  0.00    -0.290 NA 
HETATM   16  H   UNL     1     -13.004  12.002  70.674  1.00  0.00     0.000 HD 
HETATM   17  C   UNL     1     -11.572  11.288  69.283  1.00  0.00    -0.322 A  
HETATM   18  C   UNL     1     -11.039  10.017  69.114  1.00  0.00    -0.232 A  
HETATM   19  C   UNL     1     -10.031   9.591  68.092  1.00  0.00    -0.191 C  
BRANCH  17  20
HETATM   20  C   UNL     1     -11.312  12.486  68.568  1.00  0.00    -0.337 C  
HETATM   21  C   UNL     1     -11.370  13.765  68.960  1.00  0.00    -0.333 C  
HETATM   22  C   UNL     1     -11.735  14.401  70.277  1.00  0.00    -0.288 C  
HETATM   23  N   UNL     1     -11.615  15.770  70.063  1.00  0.00    -0.335 N  
HETATM   24  O   UNL     1     -12.067  13.852  71.308  1.00  0.00    -0.319 OA 
HETATM   25  C   UNL     1     -11.215  16.052  68.760  1.00  0.00    -0.360 A  
HETATM   26  H   UNL     1     -11.797  16.480  70.773  1.00  0.00     0.000 HD 
HETATM   27  C   UNL     1     -11.047  14.868  68.037  1.00  0.00    -0.301 A  
HETATM   28  C   UNL     1     -10.645  14.902  66.713  1.00  0.00    -0.305 A  
HETATM   29  C   UNL     1     -10.425  16.150  66.137  1.00  0.00    -0.325 A  
HETATM   30  F   UNL     1     -10.039  16.216  64.856  1.00  0.00    -0.223 F  
HETATM   31  C   UNL     1     -10.599  17.337  66.861  1.00  0.00    -0.213 A  
HETATM   32  C   UNL     1     -11.000  17.298  68.200  1.00  0.00    -0.193 A  
ENDBRANCH  17  20
ENDBRANCH   9  12
ENDBRANCH   7   8
ENDBRANCH   6   7
ENDBRANCH   3   6
ENDBRANCH   2   3
TORSDOF 7
ENDMDL
MODEL      218
REMARK 921   NORMALIZED FREE ENERGY PREDICTED BY IDOCK:   -3.57 KCAL/MOL
REMARK 922        TOTAL FREE ENERGY PREDICTED BY IDOCK:   -6.12 KCAL/MOL
REMARK 923 INTER-LIGAND FREE ENERGY PREDICTED BY IDOCK:   -6.26 KCAL/MOL
REMARK 924 INTRA-LIGAND FREE ENERGY PREDICTED BY IDOCK:    0.14 KCAL/MOL
REMARK 927      BINDING AFFINITY PREDICTED BY RF-SCORE:    0.00 PKD
ROOT
HETATM    1  C   UNL     1      -6.248   7.032  63.923  1.00  0.00    -0.043 C  
HETATM    2  C   UNL     1      -7.574   6.345  64.236  1.00  0.00    -0.099 C  
ENDROOT
BRANCH   2   3
HETATM    3  N   UNL     1      -8.160   6.691  65.542  1.00  0.00    -0.119 NA 
BRANCH   3   4
HETATM    4  C   UNL     1      -8.029   5.623  66.554  1.00  0.00    -0.101 C  
HETATM    5  C   UNL     1      -6.667   5.493  67.239  1.00  0.00    -0.059 C  
ENDBRANCH   3   4
BRANCH   3   6
HETATM    6  C   UNL     1      -7.615   7.970  66.059  1.00  0.00    -0.085 C  
BRANCH   6   7
HETATM    7  C   UNL     1      -8.468   8.681  67.125  1.00  0.00    -0.114 C  
BRANCH   7   8
HETATM    8  N   UNL     1      -8.439  10.119  66.985  1.00  0.00    -0.129 N  
HETATM    9  C   UNL     1      -9.482  10.795  66.404  1.00  0.00    -0.171 C  
HETATM   10  H   UNL     1      -7.629  10.640  67.322  1.00  0.00     0.000 HD 
HETATM   11  O   UNL     1     -10.489  10.219  65.997  1.00  0.00    -0.200 OA 
BRANCH   9  12
HETATM   12  C   UNL     1      -9.334  12.252  66.334  1.00  0.00    -0.219 A  
HETATM   13  C   UNL     1      -9.969  13.153  65.486  1.00  0.00    -0.207 A  
HETATM   14  C   UNL     1     -10.992  12.995  64.414  1.00  0.00    -0.400 C  
HETATM   15  N   UNL     1      -9.535  14.419  65.817  1.00  0.00    -0.533 NA 
HETATM   16  H   UNL     1      -9.818  15.272  65.335  1.00  0.00     0.000 HD 
HETATM   17  C   UNL     1      -8.672  14.378  66.878  1.00  0.00    -0.193 A  
HETATM   18  C   UNL     1      -8.522  13.042  67.228  1.00  0.00    -0.199 A  
HETATM   19  C   UNL     1      -7.678  12.489  68.334  1.00  0.00    -0.136 C  
BRANCH  17  20
HETATM   20  C   UNL     1      -8.096  15.539  67.455  1.00  0.00    -0.201 C  
HETATM   21  C   UNL     1      -8.332  16.837  67.222  1.00  0.00    -0.197 C  
HETATM   22  C   UNL     1      -9.270  17.537  66.272  1.00  0.00    -0.203 C  
HETATM   23  N   UNL     1      -9.055  18.894  66.487  1.00  0.00    -0.320 N  
HETATM   24  O   UNL     1     -10.047  17.039  65.483  1.00  0.00    -0.577 OA 
HETATM   25  C   UNL     1      -8.089  19.112  67.464  1.00  0.00    -0.273 A  
HETATM   26  H   UNL     1      -9.545  19.638  65.989  1.00  0.00     0.000 HD 
HETATM   27  C   UNL     1      -7.611  17.894  67.954  1.00  0.00    -0.221 A  
HETATM   28  C   UNL     1      -6.642  17.863  68.943  1.00  0.00    -0.241 A  
HETATM   29  C   UNL     1      -6.166  19.081  69.418  1.00  0.00    -0.266 A  
HETATM   30  F   UNL     1      -5.226  19.083  70.372  1.00  0.00    -0.180 F  
HETATM   31  C   UNL     1      -6.642  20.302  68.923  1.00  0.00    -0.295 A  
HETATM   32  C   UNL     1      -7.624  20.329  67.928  1.00  0.00    -0.279 A  
ENDBRANCH  17  20
ENDBRANCH   9  12
ENDBRANCH   7   8
ENDBRANCH   6   7
ENDBRANCH   3   6
ENDBRANCH   2   3
TORSDOF 7
ENDMDL
MODEL      219
REMARK 921   NORMALIZED FREE ENERGY PREDICTED BY IDOCK:   -3.56 KCAL/MOL
REMARK 922        TOTAL FREE ENERGY PREDICTED BY IDOCK:   -6.11 KCAL/MOL
REMARK 923 INTER-LIGAND FREE ENERGY PREDICTED BY IDOCK:   -4.91 KCAL/MOL
REMARK 924 INTRA-LIGAND FREE ENERGY PREDICTED BY IDOCK:   -1.20 KCAL/MOL
REMARK 927      BINDING AFFINITY PREDICTED BY RF-SCORE:    0.00 PKD
ROOT
HETATM    1  C   UNL     1     -11.712  13.768  68.496  1.00  0.00    -0.391 C  
HETATM    2  C   UNL     1     -11.578  14.787  67.369  1.00  0.00    -0.360 C  
ENDROOT
BRANCH   2   3
HETATM    3  N   UNL     1     -10.387  15.649  67.448  1.00  0.00    -0.269 NA 
BRANCH   3   4
HETATM    4  C   UNL     1     -10.679  17.030  67.883  1.00  0.00    -0.348 C  
HETATM    5  C   UNL     1      -9.565  17.761  68.633  1.00  0.00    -0.322 C  
ENDBRANCH   3   4
BRANCH   3   6
HETATM    6  C   UNL     1      -9.336  15.044  68.302  1.00  0.00    -0.192 C  
BRANCH   6   7
HETATM    7  C   UNL     1      -8.214  14.296  67.559  1.00  0.00    -0.189 C  
BRANCH   7   8
HETATM    8  N   UNL     1      -7.948  12.996  68.131  1.00  0.00    -0.144 N  
HETATM    9  C   UNL     1      -8.551  11.867  67.635  1.00  0.00    -0.156 C  
HETATM   10  H   UNL     1      -7.302  12.915  68.916  1.00  0.00     0.000 HD 
HETATM   11  O   UNL     1      -9.323  11.905  66.679  1.00  0.00    -0.194 OA 
BRANCH   9  12
HETATM   12  C   UNL     1      -8.185  10.610  68.294  1.00  0.00    -0.120 A  
HETATM   13  C   UNL     1      -6.931  10.020  68.412  1.00  0.00    -0.067 A  
HETATM   14  C   UNL     1      -5.569  10.426  67.964  1.00  0.00    -0.040 C  
HETATM   15  N   UNL     1      -7.078   8.863  69.146  1.00  0.00    -0.062 NA 
HETATM   16  H   UNL     1      -6.321   8.214  69.362  1.00  0.00     0.000 HD 
HETATM   17  C   UNL     1      -8.376   8.700  69.547  1.00  0.00    -0.117 A  
HETATM   18  C   UNL     1      -9.097   9.771  69.034  1.00  0.00    -0.157 A  
HETATM   19  C   UNL     1     -10.560  10.038  69.205  1.00  0.00    -0.240 C  
BRANCH  17  20
HETATM   20  C   UNL     1      -8.811   7.613  70.349  1.00  0.00    -0.144 C  
HETATM   21  C   UNL     1      -8.519   7.294  71.616  1.00  0.00    -0.114 C  
HETATM   22  C   UNL     1      -7.630   7.948  72.643  1.00  0.00    -0.111 C  
HETATM   23  N   UNL     1      -7.730   7.145  73.773  1.00  0.00    -0.103 N  
HETATM   24  O   UNL     1      -6.964   8.956  72.523  1.00  0.00    -0.312 OA 
HETATM   25  C   UNL     1      -8.582   6.065  73.561  1.00  0.00    -0.119 A  
HETATM   26  H   UNL     1      -7.240   7.324  74.650  1.00  0.00     0.000 HD 
HETATM   27  C   UNL     1      -9.098   6.102  72.263  1.00  0.00    -0.137 A  
HETATM   28  C   UNL     1      -9.977   5.126  71.826  1.00  0.00    -0.244 A  
HETATM   29  C   UNL     1     -10.317   4.116  72.720  1.00  0.00    -0.175 A  
HETATM   30  F   UNL     1     -11.163   3.156  72.326  1.00  0.00     0.187 F  
HETATM   31  C   UNL     1      -9.796   4.077  74.021  1.00  0.00    -0.160 A  
HETATM   32  C   UNL     1      -8.912   5.068  74.459  1.00  0.00    -0.110 A  
ENDBRANCH  17  20
ENDBRANCH   9  12
ENDBRANCH   7   8
ENDBRANCH   6   7
ENDBRANCH   3   6
ENDBRANCH   2   3
TORSDOF 7
ENDMDL
MODEL      220
REMARK 921   NORMALIZED FREE ENERGY PREDICTED BY IDOCK:   -3.56 KCAL/MOL
REMARK 922        TOTAL FREE ENERGY PREDICTED BY IDOCK:   -6.10 KCAL/MOL
REMARK 923 INTER-LIGAND FREE ENERGY PREDICTED BY IDOCK:   -5.69 KCAL/MOL
REMARK 924 INTRA-LIGAND FREE ENERGY PREDICTED BY IDOCK:   -0.41 KCAL/MOL
REMARK 927      BINDING AFFINITY PREDICTED BY RF-SCORE:    0.00 PKD
ROOT
HETATM    1  C   UNL     1     -11.666  15.967  64.342  1.00  0.00    -0.134 C  
HETATM    2  C   UNL     1     -11.237  14.537  64.658  1.00  0.00    -0.353 C  
ENDROOT
BRANCH   2   3
HETATM    3  N   UNL     1     -12.320  13.651  65.117  1.00  0.00    -0.430 NA 
BRANCH   3   4
HETATM    4  C   UNL     1     -12.234  12.278  64.579  1.00  0.00    -0.388 C  
HETATM    5  C   UNL     1     -10.855  11.811  64.113  1.00  0.00    -0.418 C  
ENDBRANCH   3   4
BRANCH   3   6
HETATM    6  C   UNL     1     -12.411  13.627  66.598  1.00  0.00    -0.331 C  
BRANCH   6   7
HETATM    7  C   UNL     1     -11.090  13.854  67.355  1.00  0.00    -0.298 C  
BRANCH   7   8
HETATM    8  N   UNL     1     -10.404  12.616  67.648  1.00  0.00    -0.217 N  
HETATM    9  C   UNL     1      -9.052  12.594  67.886  1.00  0.00    -0.200 C  
HETATM   10  H   UNL     1     -10.932  11.744  67.677  1.00  0.00     0.000 HD 
HETATM   11  O   UNL     1      -8.372  13.618  67.881  1.00  0.00    -0.148 OA 
BRANCH   9  12
HETATM   12  C   UNL     1      -8.482  11.278  68.184  1.00  0.00    -0.145 A  
HETATM   13  C   UNL     1      -7.226  10.968  68.698  1.00  0.00    -0.091 A  
HETATM   14  C   UNL     1      -6.072  11.800  69.136  1.00  0.00    -0.076 C  
HETATM   15  N   UNL     1      -7.156   9.598  68.838  1.00  0.00    -0.066 NA 
HETATM   16  H   UNL     1      -6.335   9.091  69.168  1.00  0.00     0.000 HD 
HETATM   17  C   UNL     1      -8.336   9.009  68.473  1.00  0.00    -0.124 A  
HETATM   18  C   UNL     1      -9.187  10.025  68.058  1.00  0.00    -0.139 A  
HETATM   19  C   UNL     1     -10.594   9.879  67.569  1.00  0.00    -0.333 C  
BRANCH  17  20
HETATM   20  C   UNL     1      -8.561   7.610  68.550  1.00  0.00    -0.129 C  
HETATM   21  C   UNL     1      -8.610   6.680  67.587  1.00  0.00    -0.120 C  
HETATM   22  C   UNL     1      -8.460   6.770  66.089  1.00  0.00    -0.135 C  
HETATM   23  N   UNL     1      -8.619   5.467  65.631  1.00  0.00    -0.140 N  
HETATM   24  O   UNL     1      -8.249   7.758  65.416  1.00  0.00    -0.128 OA 
HETATM   25  C   UNL     1      -8.851   4.580  66.678  1.00  0.00    -0.112 A  
HETATM   26  H   UNL     1      -8.572   5.195  64.649  1.00  0.00     0.000 HD 
HETATM   27  C   UNL     1      -8.854   5.261  67.898  1.00  0.00    -0.105 A  
HETATM   28  C   UNL     1      -9.061   4.578  69.085  1.00  0.00    -0.173 A  
HETATM   29  C   UNL     1      -9.269   3.204  69.012  1.00  0.00    -0.159 A  
HETATM   30  F   UNL     1      -9.475   2.517  70.143  1.00  0.00    -0.182 F  
HETATM   31  C   UNL     1      -9.270   2.523  67.787  1.00  0.00    -0.240 A  
HETATM   32  C   UNL     1      -9.056   3.216  66.592  1.00  0.00    -0.177 A  
ENDBRANCH  17  20
ENDBRANCH   9  12
ENDBRANCH   7   8
ENDBRANCH   6   7
ENDBRANCH   3   6
ENDBRANCH   2   3
TORSDOF 7
ENDMDL
MODEL      221
REMARK 921   NORMALIZED FREE ENERGY PREDICTED BY IDOCK:   -3.55 KCAL/MOL
REMARK 922        TOTAL FREE ENERGY PREDICTED BY IDOCK:   -6.09 KCAL/MOL
REMARK 923 INTER-LIGAND FREE ENERGY PREDICTED BY IDOCK:   -5.07 KCAL/MOL
REMARK 924 INTRA-LIGAND FREE ENERGY PREDICTED BY IDOCK:   -1.03 KCAL/MOL
REMARK 927      BINDING AFFINITY PREDICTED BY RF-SCORE:    0.00 PKD
ROOT
HETATM    1  C   UNL     1      -7.247   6.425  72.083  1.00  0.00    -0.087 C  
HETATM    2  C   UNL     1      -8.577   6.238  72.808  1.00  0.00    -0.122 C  
ENDROOT
BRANCH   2   3
HETATM    3  N   UNL     1      -9.362   5.071  72.373  1.00  0.00    -0.136 NA 
BRANCH   3   4
HETATM    4  C   UNL     1      -9.738   4.161  73.474  1.00  0.00    -0.116 C  
HETATM    5  C   UNL     1     -11.194   3.696  73.511  1.00  0.00    -0.285 C  
ENDBRANCH   3   4
BRANCH   3   6
HETATM    6  C   UNL     1     -10.561   5.480  71.602  1.00  0.00    -0.231 C  
BRANCH   6   7
HETATM    7  C   UNL     1     -10.481   5.280  70.078  1.00  0.00    -0.281 C  
BRANCH   7   8
HETATM    8  N   UNL     1     -10.356   6.530  69.364  1.00  0.00    -0.192 N  
HETATM    9  C   UNL     1      -9.149   6.935  68.852  1.00  0.00    -0.134 C  
HETATM   10  H   UNL     1     -11.178   7.121  69.239  1.00  0.00     0.000 HD 
HETATM   11  O   UNL     1      -8.132   6.253  68.959  1.00  0.00    -0.108 OA 
BRANCH   9  12
HETATM   12  C   UNL     1      -9.161   8.215  68.139  1.00  0.00    -0.134 A  
HETATM   13  C   UNL     1      -9.043   8.453  66.773  1.00  0.00    -0.157 A  
HETATM   14  C   UNL     1      -8.897   7.557  65.592  1.00  0.00    -0.072 C  
HETATM   15  N   UNL     1      -9.144   9.814  66.573  1.00  0.00    -0.149 NA 
HETATM   16  H   UNL     1      -9.065  10.273  65.666  1.00  0.00     0.000 HD 
HETATM   17  C   UNL     1      -9.366  10.466  67.755  1.00  0.00    -0.145 A  
HETATM   18  C   UNL     1      -9.381   9.502  68.755  1.00  0.00    -0.146 A  
HETATM   19  C   UNL     1      -9.593   9.725  70.220  1.00  0.00    -0.264 C  
BRANCH  17  20
HETATM   20  C   UNL     1      -9.547  11.870  67.844  1.00  0.00    -0.193 C  
HETATM   21  C   UNL     1      -8.652  12.867  67.834  1.00  0.00    -0.185 C  
HETATM   22  C   UNL     1      -7.148  12.871  67.736  1.00  0.00    -0.137 C  
HETATM   23  N   UNL     1      -6.786  14.213  67.784  1.00  0.00    -0.167 N  
HETATM   24  O   UNL     1      -6.401  11.919  67.639  1.00  0.00    -0.065 OA 
HETATM   25  C   UNL     1      -7.899  15.040  67.900  1.00  0.00    -0.138 A  
HETATM   26  H   UNL     1      -5.824  14.550  67.740  1.00  0.00     0.000 HD 
HETATM   27  C   UNL     1      -9.069  14.277  67.933  1.00  0.00    -0.190 A  
HETATM   28  C   UNL     1     -10.306  14.889  68.040  1.00  0.00    -0.244 A  
HETATM   29  C   UNL     1     -10.336  16.278  68.119  1.00  0.00    -0.277 A  
HETATM   30  F   UNL     1     -11.517  16.898  68.227  1.00  0.00    -0.307 F  
HETATM   31  C   UNL     1      -9.161  17.042  68.091  1.00  0.00    -0.244 A  
HETATM   32  C   UNL     1      -7.914  16.420  67.978  1.00  0.00    -0.159 A  
ENDBRANCH  17  20
ENDBRANCH   9  12
ENDBRANCH   7   8
ENDBRANCH   6   7
ENDBRANCH   3   6
ENDBRANCH   2   3
TORSDOF 7
ENDMDL
MODEL      222
REMARK 921   NORMALIZED FREE ENERGY PREDICTED BY IDOCK:   -3.53 KCAL/MOL
REMARK 922        TOTAL FREE ENERGY PREDICTED BY IDOCK:   -6.07 KCAL/MOL
REMARK 923 INTER-LIGAND FREE ENERGY PREDICTED BY IDOCK:   -5.43 KCAL/MOL
REMARK 924 INTRA-LIGAND FREE ENERGY PREDICTED BY IDOCK:   -0.64 KCAL/MOL
REMARK 927      BINDING AFFINITY PREDICTED BY RF-SCORE:    0.00 PKD
ROOT
HETATM    1  C   UNL     1      -6.985  17.569  68.509  1.00  0.00    -0.214 C  
HETATM    2  C   UNL     1      -6.561  16.188  69.001  1.00  0.00    -0.160 C  
ENDROOT
BRANCH   2   3
HETATM    3  N   UNL     1      -6.551  15.138  67.969  1.00  0.00    -0.130 NA 
BRANCH   3   4
HETATM    4  C   UNL     1      -6.150  13.810  68.475  1.00  0.00    -0.092 C  
HETATM    5  C   UNL     1      -5.972  12.705  67.433  1.00  0.00    -0.132 C  
ENDBRANCH   3   4
BRANCH   3   6
HETATM    6  C   UNL     1      -7.855  15.056  67.265  1.00  0.00    -0.211 C  
BRANCH   6   7
HETATM    7  C   UNL     1      -9.106  15.202  68.150  1.00  0.00    -0.176 C  
BRANCH   7   8
HETATM    8  N   UNL     1      -9.472  13.961  68.794  1.00  0.00    -0.385 N  
HETATM    9  C   UNL     1     -10.357  13.092  68.207  1.00  0.00    -0.252 C  
HETATM   10  H   UNL     1      -9.066  13.728  69.701  1.00  0.00     0.000 HD 
HETATM   11  O   UNL     1     -10.861  13.317  67.109  1.00  0.00    -0.255 OA 
BRANCH   9  12
HETATM   12  C   UNL     1     -10.633  11.864  68.957  1.00  0.00    -0.152 A  
HETATM   13  C   UNL     1     -11.613  11.630  69.916  1.00  0.00    -0.288 A  
HETATM   14  C   UNL     1     -12.699  12.474  70.489  1.00  0.00    -0.059 C  
HETATM   15  N   UNL     1     -11.505  10.315  70.316  1.00  0.00    -0.294 NA 
HETATM   16  H   UNL     1     -12.084   9.878  71.034  1.00  0.00     0.000 HD 
HETATM   17  C   UNL     1     -10.517   9.673  69.620  1.00  0.00    -0.229 A  
HETATM   18  C   UNL     1      -9.950  10.608  68.764  1.00  0.00    -0.201 A  
HETATM   19  C   UNL     1      -8.831  10.382  67.795  1.00  0.00    -0.128 C  
BRANCH  17  20
HETATM   20  C   UNL     1     -10.209   8.300  69.800  1.00  0.00    -0.204 C  
HETATM   21  C   UNL     1     -10.250   7.277  68.936  1.00  0.00    -0.196 C  
HETATM   22  C   UNL     1     -10.641   7.199  67.482  1.00  0.00    -0.278 C  
HETATM   23  N   UNL     1     -10.484   5.861  67.136  1.00  0.00    -0.239 N  
HETATM   24  O   UNL     1     -11.016   8.099  66.758  1.00  0.00    -0.063 OA 
HETATM   25  C   UNL     1     -10.038   5.102  68.214  1.00  0.00    -0.134 A  
HETATM   26  H   UNL     1     -10.672   5.483  66.207  1.00  0.00     0.000 HD 
HETATM   27  C   UNL     1      -9.874   5.911  69.342  1.00  0.00    -0.207 A  
HETATM   28  C   UNL     1      -9.431   5.371  70.537  1.00  0.00    -0.215 A  
HETATM   29  C   UNL     1      -9.166   4.005  70.570  1.00  0.00    -0.128 A  
HETATM   30  F   UNL     1      -8.740   3.453  71.713  1.00  0.00    -0.084 F  
HETATM   31  C   UNL     1      -9.336   3.194  69.440  1.00  0.00    -0.225 A  
HETATM   32  C   UNL     1      -9.778   3.745  68.233  1.00  0.00    -0.099 A  
ENDBRANCH  17  20
ENDBRANCH   9  12
ENDBRANCH   7   8
ENDBRANCH   6   7
ENDBRANCH   3   6
ENDBRANCH   2   3
TORSDOF 7
ENDMDL
MODEL      223
REMARK 921   NORMALIZED FREE ENERGY PREDICTED BY IDOCK:   -3.50 KCAL/MOL
REMARK 922        TOTAL FREE ENERGY PREDICTED BY IDOCK:   -6.02 KCAL/MOL
REMARK 923 INTER-LIGAND FREE ENERGY PREDICTED BY IDOCK:   -5.05 KCAL/MOL
REMARK 924 INTRA-LIGAND FREE ENERGY PREDICTED BY IDOCK:   -0.97 KCAL/MOL
REMARK 927      BINDING AFFINITY PREDICTED BY RF-SCORE:    0.00 PKD
ROOT
HETATM    1  C   UNL     1     -10.721   4.509  65.638  1.00  0.00    -0.160 C  
HETATM    2  C   UNL     1      -9.428   4.314  66.424  1.00  0.00    -0.183 C  
ENDROOT
BRANCH   2   3
HETATM    3  N   UNL     1      -8.470   3.372  65.820  1.00  0.00    -0.106 NA 
BRANCH   3   4
HETATM    4  C   UNL     1      -8.814   2.975  64.440  1.00  0.00    -0.109 C  
HETATM    5  C   UNL     1      -8.157   1.700  63.911  1.00  0.00    -0.065 C  
ENDBRANCH   3   4
BRANCH   3   6
HETATM    6  C   UNL     1      -7.083   3.895  65.882  1.00  0.00    -0.067 C  
BRANCH   6   7
HETATM    7  C   UNL     1      -6.573   4.600  64.612  1.00  0.00    -0.043 C  
BRANCH   7   8
HETATM    8  N   UNL     1      -6.983   5.983  64.548  1.00  0.00    -0.050 N  
HETATM    9  C   UNL     1      -6.210   6.977  65.094  1.00  0.00    -0.037 C  
HETATM   10  H   UNL     1      -7.862   6.226  64.090  1.00  0.00     0.000 HD 
HETATM   11  O   UNL     1      -5.135   6.742  65.641  1.00  0.00    -0.020 OA 
BRANCH   9  12
HETATM   12  C   UNL     1      -6.732   8.339  64.950  1.00  0.00    -0.067 A  
HETATM   13  C   UNL     1      -6.276   9.365  64.129  1.00  0.00    -0.092 A  
HETATM   14  C   UNL     1      -5.173   9.457  63.133  1.00  0.00    -0.067 C  
HETATM   15  N   UNL     1      -7.106  10.451  64.313  1.00  0.00    -0.325 NA 
HETATM   16  H   UNL     1      -6.987  11.355  63.855  1.00  0.00     0.000 HD 
HETATM   17  C   UNL     1      -8.111  10.154  65.192  1.00  0.00    -0.148 A  
HETATM   18  C   UNL     1      -7.911   8.845  65.612  1.00  0.00    -0.096 A  
HETATM   19  C   UNL     1      -8.754   8.068  66.574  1.00  0.00    -0.161 C  
BRANCH  17  20
HETATM   20  C   UNL     1      -9.133  11.074  65.541  1.00  0.00    -0.225 C  
HETATM   21  C   UNL     1     -10.002  11.744  64.772  1.00  0.00    -0.275 C  
HETATM   22  C   UNL     1     -10.210  11.780  63.280  1.00  0.00    -0.416 C  
HETATM   23  N   UNL     1     -11.261  12.670  63.082  1.00  0.00    -0.738 N  
HETATM   24  O   UNL     1      -9.599  11.173  62.424  1.00  0.00    -0.201 OA 
HETATM   25  C   UNL     1     -11.727  13.188  64.287  1.00  0.00    -0.395 A  
HETATM   26  H   UNL     1     -11.643  12.912  62.168  1.00  0.00     0.000 HD 
HETATM   27  C   UNL     1     -11.000  12.658  65.356  1.00  0.00    -0.320 A  
HETATM   28  C   UNL     1     -11.292  13.028  66.658  1.00  0.00    -0.366 A  
HETATM   29  C   UNL     1     -12.323  13.942  66.854  1.00  0.00    -0.292 A  
HETATM   30  F   UNL     1     -12.627  14.321  68.102  1.00  0.00    -0.216 F  
HETATM   31  C   UNL     1     -13.049  14.476  65.781  1.00  0.00     0.277 A  
HETATM   32  C   UNL     1     -12.753  14.096  64.468  1.00  0.00    -0.089 A  
ENDBRANCH  17  20
ENDBRANCH   9  12
ENDBRANCH   7   8
ENDBRANCH   6   7
ENDBRANCH   3   6
ENDBRANCH   2   3
TORSDOF 7
ENDMDL
MODEL      224
REMARK 921   NORMALIZED FREE ENERGY PREDICTED BY IDOCK:   -3.48 KCAL/MOL
REMARK 922        TOTAL FREE ENERGY PREDICTED BY IDOCK:   -5.99 KCAL/MOL
REMARK 923 INTER-LIGAND FREE ENERGY PREDICTED BY IDOCK:   -5.00 KCAL/MOL
REMARK 924 INTRA-LIGAND FREE ENERGY PREDICTED BY IDOCK:   -0.99 KCAL/MOL
REMARK 927      BINDING AFFINITY PREDICTED BY RF-SCORE:    0.00 PKD
ROOT
HETATM    1  C   UNL     1     -12.320  15.653  70.807  1.00  0.00    -0.466 C  
HETATM    2  C   UNL     1     -11.118  15.590  69.870  1.00  0.00    -0.310 C  
ENDROOT
BRANCH   2   3
HETATM    3  N   UNL     1     -11.393  15.987  68.479  1.00  0.00    -0.378 NA 
BRANCH   3   4
HETATM    4  C   UNL     1     -10.702  17.225  68.066  1.00  0.00    -0.367 C  
HETATM    5  C   UNL     1      -9.173  17.206  68.119  1.00  0.00    -0.261 C  
ENDBRANCH   3   4
BRANCH   3   6
HETATM    6  C   UNL     1     -11.099  14.884  67.532  1.00  0.00    -0.317 C  
BRANCH   6   7
HETATM    7  C   UNL     1     -11.693  13.511  67.895  1.00  0.00    -0.357 C  
BRANCH   7   8
HETATM    8  N   UNL     1     -10.685  12.480  67.980  1.00  0.00    -0.214 N  
HETATM    9  C   UNL     1     -10.344  11.730  66.881  1.00  0.00    -0.217 C  
HETATM   10  H   UNL     1     -10.218  12.306  68.870  1.00  0.00     0.000 HD 
HETATM   11  O   UNL     1     -10.862  11.911  65.781  1.00  0.00    -0.277 OA 
BRANCH   9  12
HETATM   12  C   UNL     1      -9.298  10.727  67.097  1.00  0.00    -0.171 A  
HETATM   13  C   UNL     1      -7.925  10.913  67.222  1.00  0.00    -0.123 A  
HETATM   14  C   UNL     1      -7.056  12.123  67.210  1.00  0.00    -0.144 C  
HETATM   15  N   UNL     1      -7.353   9.679  67.447  1.00  0.00    -0.087 NA 
HETATM   16  H   UNL     1      -6.351   9.515  67.549  1.00  0.00     0.000 HD 
HETATM   17  C   UNL     1      -8.309   8.703  67.516  1.00  0.00    -0.120 A  
HETATM   18  C   UNL     1      -9.535   9.319  67.302  1.00  0.00    -0.181 A  
HETATM   19  C   UNL     1     -10.882   8.665  67.285  1.00  0.00    -0.077 C  
BRANCH  17  20
HETATM   20  C   UNL     1      -8.009   7.340  67.776  1.00  0.00    -0.115 C  
HETATM   21  C   UNL     1      -7.901   6.297  66.943  1.00  0.00    -0.104 C  
HETATM   22  C   UNL     1      -8.063   6.178  65.449  1.00  0.00    -0.133 C  
HETATM   23  N   UNL     1      -7.833   4.836  65.166  1.00  0.00    -0.089 N  
HETATM   24  O   UNL     1      -8.339   7.053  64.654  1.00  0.00    -0.068 OA 
HETATM   25  C   UNL     1      -7.545   4.111  66.318  1.00  0.00    -0.089 A  
HETATM   26  H   UNL     1      -7.871   4.433  64.229  1.00  0.00     0.000 HD 
HETATM   27  C   UNL     1      -7.569   4.949  67.437  1.00  0.00    -0.090 A  
HETATM   28  C   UNL     1      -7.305   4.446  68.699  1.00  0.00    -0.060 A  
HETATM   29  C   UNL     1      -7.026   3.087  68.808  1.00  0.00    -0.048 A  
HETATM   30  F   UNL     1      -6.770   2.570  70.016  1.00  0.00    -0.031 F  
HETATM   31  C   UNL     1      -7.007   2.247  67.686  1.00  0.00    -0.044 A  
HETATM   32  C   UNL     1      -7.269   2.760  66.412  1.00  0.00    -0.065 A  
ENDBRANCH  17  20
ENDBRANCH   9  12
ENDBRANCH   7   8
ENDBRANCH   6   7
ENDBRANCH   3   6
ENDBRANCH   2   3
TORSDOF 7
ENDMDL
MODEL      225
REMARK 921   NORMALIZED FREE ENERGY PREDICTED BY IDOCK:   -3.45 KCAL/MOL
REMARK 922        TOTAL FREE ENERGY PREDICTED BY IDOCK:   -5.96 KCAL/MOL
REMARK 923 INTER-LIGAND FREE ENERGY PREDICTED BY IDOCK:   -4.73 KCAL/MOL
REMARK 924 INTRA-LIGAND FREE ENERGY PREDICTED BY IDOCK:   -1.23 KCAL/MOL
REMARK 927      BINDING AFFINITY PREDICTED BY RF-SCORE:    0.00 PKD
ROOT
HETATM    1  C   UNL     1     -11.999  12.580  69.372  1.00  0.00    -0.315 C  
HETATM    2  C   UNL     1     -10.958  13.515  68.762  1.00  0.00    -0.261 C  
ENDROOT
BRANCH   2   3
HETATM    3  N   UNL     1     -10.483  13.127  67.424  1.00  0.00    -0.241 NA 
BRANCH   3   4
HETATM    4  C   UNL     1     -11.182  13.816  66.320  1.00  0.00    -0.306 C  
HETATM    5  C   UNL     1     -12.191  12.985  65.525  1.00  0.00    -0.521 C  
ENDBRANCH   3   4
BRANCH   3   6
HETATM    6  C   UNL     1      -9.015  13.298  67.299  1.00  0.00    -0.217 C  
BRANCH   6   7
HETATM    7  C   UNL     1      -8.160  12.542  68.333  1.00  0.00    -0.136 C  
BRANCH   7   8
HETATM    8  N   UNL     1      -7.980  11.151  67.987  1.00  0.00    -0.112 N  
HETATM    9  C   UNL     1      -8.611  10.158  68.693  1.00  0.00    -0.123 C  
HETATM   10  H   UNL     1      -7.373  10.903  67.205  1.00  0.00     0.000 HD 
HETATM   11  O   UNL     1      -9.366  10.403  69.631  1.00  0.00    -0.174 OA 
BRANCH   9  12
HETATM   12  C   UNL     1      -8.355   8.791  68.232  1.00  0.00    -0.126 A  
HETATM   13  C   UNL     1      -7.467   7.850  68.744  1.00  0.00    -0.095 A  
HETATM   14  C   UNL     1      -6.520   7.864  69.893  1.00  0.00    -0.037 C  
HETATM   15  N   UNL     1      -7.603   6.696  68.002  1.00  0.00    -0.105 NA 
HETATM   16  H   UNL     1      -7.052   5.849  68.141  1.00  0.00     0.000 HD 
HETATM   17  C   UNL     1      -8.579   6.838  67.053  1.00  0.00    -0.114 A  
HETATM   18  C   UNL     1      -9.070   8.132  67.165  1.00  0.00    -0.163 A  
HETATM   19  C   UNL     1     -10.153   8.760  66.345  1.00  0.00    -0.313 C  
BRANCH  17  20
HETATM   20  C   UNL     1      -8.958   5.795  66.169  1.00  0.00    -0.154 C  
HETATM   21  C   UNL     1      -8.212   4.934  65.464  1.00  0.00    -0.116 C  
HETATM   22  C   UNL     1      -6.720   4.760  65.340  1.00  0.00    -0.049 C  
HETATM   23  N   UNL     1      -6.552   3.702  64.454  1.00  0.00    -0.041 N  
HETATM   24  O   UNL     1      -5.843   5.399  65.886  1.00  0.00    -0.017 OA 
HETATM   25  C   UNL     1      -7.774   3.201  64.016  1.00  0.00    -0.076 A  
HETATM   26  H   UNL     1      -5.645   3.337  64.161  1.00  0.00     0.000 HD 
HETATM   27  C   UNL     1      -8.827   3.911  64.600  1.00  0.00    -0.123 A  
HETATM   28  C   UNL     1     -10.141   3.584  64.315  1.00  0.00    -0.196 A  
HETATM   29  C   UNL     1     -10.368   2.536  63.428  1.00  0.00    -0.173 A  
HETATM   30  F   UNL     1     -11.629   2.198  63.129  1.00  0.00    -0.269 F  
HETATM   31  C   UNL     1      -9.312   1.827  62.839  1.00  0.00    -0.090 A  
HETATM   32  C   UNL     1      -7.986   2.158  63.134  1.00  0.00    -0.064 A  
ENDBRANCH  17  20
ENDBRANCH   9  12
ENDBRANCH   7   8
ENDBRANCH   6   7
ENDBRANCH   3   6
ENDBRANCH   2   3
TORSDOF 7
ENDMDL
MODEL      226
REMARK 921   NORMALIZED FREE ENERGY PREDICTED BY IDOCK:   -3.45 KCAL/MOL
REMARK 922        TOTAL FREE ENERGY PREDICTED BY IDOCK:   -5.95 KCAL/MOL
REMARK 923 INTER-LIGAND FREE ENERGY PREDICTED BY IDOCK:   -4.95 KCAL/MOL
REMARK 924 INTRA-LIGAND FREE ENERGY PREDICTED BY IDOCK:   -1.00 KCAL/MOL
REMARK 927      BINDING AFFINITY PREDICTED BY RF-SCORE:    0.00 PKD
ROOT
HETATM    1  C   UNL     1     -10.537  19.456  66.147  1.00  0.00    -0.571 C  
HETATM    2  C   UNL     1      -9.224  18.772  66.518  1.00  0.00    -0.331 C  
ENDROOT
BRANCH   2   3
HETATM    3  N   UNL     1      -9.353  17.365  66.932  1.00  0.00    -0.255 NA 
BRANCH   3   4
HETATM    4  C   UNL     1     -10.718  16.822  66.783  1.00  0.00    -0.117 C  
HETATM    5  C   UNL     1     -11.217  15.907  67.902  1.00  0.00    -0.297 C  
ENDBRANCH   3   4
BRANCH   3   6
HETATM    6  C   UNL     1      -8.369  16.502  66.234  1.00  0.00    -0.329 C  
BRANCH   6   7
HETATM    7  C   UNL     1      -7.104  16.142  67.035  1.00  0.00    -0.213 C  
BRANCH   7   8
HETATM    8  N   UNL     1      -6.968  14.718  67.238  1.00  0.00    -0.181 N  
HETATM    9  C   UNL     1      -7.486  14.109  68.354  1.00  0.00    -0.124 C  
HETATM   10  H   UNL     1      -6.480  14.156  66.541  1.00  0.00     0.000 HD 
HETATM   11  O   UNL     1      -8.099  14.737  69.215  1.00  0.00    -0.153 OA 
BRANCH   9  12
HETATM   12  C   UNL     1      -7.292  12.659  68.433  1.00  0.00    -0.118 A  
HETATM   13  C   UNL     1      -6.526  11.930  69.336  1.00  0.00    -0.119 A  
HETATM   14  C   UNL     1      -5.686  12.317  70.504  1.00  0.00    -0.161 C  
HETATM   15  N   UNL     1      -6.681  10.593  69.036  1.00  0.00    -0.061 NA 
HETATM   16  H   UNL     1      -6.208   9.831  69.523  1.00  0.00     0.000 HD 
HETATM   17  C   UNL     1      -7.554  10.424  67.996  1.00  0.00    -0.091 A  
HETATM   18  C   UNL     1      -7.956  11.691  67.593  1.00  0.00    -0.136 A  
HETATM   19  C   UNL     1      -8.911  12.025  66.490  1.00  0.00    -0.193 C  
BRANCH  17  20
HETATM   20  C   UNL     1      -7.930   9.150  67.498  1.00  0.00    -0.100 C  
HETATM   21  C   UNL     1      -7.736   8.592  66.296  1.00  0.00    -0.094 C  
HETATM   22  C   UNL     1      -7.069   9.100  65.043  1.00  0.00    -0.092 C  
HETATM   23  N   UNL     1      -7.189   8.064  64.123  1.00  0.00    -0.082 N  
HETATM   24  O   UNL     1      -6.541  10.178  64.861  1.00  0.00    -0.121 OA 
HETATM   25  C   UNL     1      -7.855   6.970  64.667  1.00  0.00    -0.123 A  
HETATM   26  H   UNL     1      -6.833   8.102  63.168  1.00  0.00     0.000 HD 
HETATM   27  C   UNL     1      -8.212   7.230  65.993  1.00  0.00    -0.138 A  
HETATM   28  C   UNL     1      -8.883   6.278  66.742  1.00  0.00    -0.126 A  
HETATM   29  C   UNL     1      -9.189   5.069  66.124  1.00  0.00    -0.149 A  
HETATM   30  F   UNL     1      -9.841   4.130  66.821  1.00  0.00    -0.204 F  
HETATM   31  C   UNL     1      -8.835   4.811  64.793  1.00  0.00    -0.153 A  
HETATM   32  C   UNL     1      -8.153   5.774  64.043  1.00  0.00    -0.116 A  
ENDBRANCH  17  20
ENDBRANCH   9  12
ENDBRANCH   7   8
ENDBRANCH   6   7
ENDBRANCH   3   6
ENDBRANCH   2   3
TORSDOF 7
ENDMDL
MODEL      227
REMARK 921   NORMALIZED FREE ENERGY PREDICTED BY IDOCK:   -3.43 KCAL/MOL
REMARK 922        TOTAL FREE ENERGY PREDICTED BY IDOCK:   -5.91 KCAL/MOL
REMARK 923 INTER-LIGAND FREE ENERGY PREDICTED BY IDOCK:   -6.14 KCAL/MOL
REMARK 924 INTRA-LIGAND FREE ENERGY PREDICTED BY IDOCK:    0.22 KCAL/MOL
REMARK 927      BINDING AFFINITY PREDICTED BY RF-SCORE:    0.00 PKD
ROOT
HETATM    1  C   UNL     1      -9.945  11.005  63.926  1.00  0.00    -0.396 C  
HETATM    2  C   UNL     1     -10.589  11.625  65.162  1.00  0.00    -0.290 C  
ENDROOT
BRANCH   2   3
HETATM    3  N   UNL     1     -10.405  13.080  65.296  1.00  0.00    -0.300 NA 
BRANCH   3   4
HETATM    4  C   UNL     1     -11.075  13.864  64.239  1.00  0.00    -0.233 C  
HETATM    5  C   UNL     1     -12.484  14.371  64.553  1.00  0.00    -0.362 C  
ENDBRANCH   3   4
BRANCH   3   6
HETATM    6  C   UNL     1     -10.814  13.557  66.639  1.00  0.00    -0.283 C  
BRANCH   6   7
HETATM    7  C   UNL     1      -9.751  13.437  67.747  1.00  0.00    -0.216 C  
BRANCH   7   8
HETATM    8  N   UNL     1      -9.711  12.116  68.330  1.00  0.00    -0.251 N  
HETATM    9  C   UNL     1     -10.859  11.492  68.749  1.00  0.00    -0.216 C  
HETATM   10  H   UNL     1      -8.815  11.640  68.433  1.00  0.00     0.000 HD 
HETATM   11  O   UNL     1     -11.966  12.013  68.632  1.00  0.00    -0.316 OA 
BRANCH   9  12
HETATM   12  C   UNL     1     -10.683  10.149  69.310  1.00  0.00    -0.259 A  
HETATM   13  C   UNL     1     -11.082   9.664  70.551  1.00  0.00    -0.308 A  
HETATM   14  C   UNL     1     -11.813  10.275  71.696  1.00  0.00    -0.151 C  
HETATM   15  N   UNL     1     -10.728   8.333  70.615  1.00  0.00    -0.216 NA 
HETATM   16  H   UNL     1     -10.876   7.733  71.427  1.00  0.00     0.000 HD 
HETATM   17  C   UNL     1     -10.151   7.924  69.444  1.00  0.00    -0.196 A  
HETATM   18  C   UNL     1     -10.105   9.030  68.605  1.00  0.00    -0.207 A  
HETATM   19  C   UNL     1      -9.564   9.082  67.211  1.00  0.00    -0.206 C  
BRANCH  17  20
HETATM   20  C   UNL     1      -9.722   6.591  69.215  1.00  0.00    -0.152 C  
HETATM   21  C   UNL     1      -9.868   5.488  69.960  1.00  0.00    -0.262 C  
HETATM   22  C   UNL     1     -10.521   5.253  71.299  1.00  0.00    -0.204 C  
HETATM   23  N   UNL     1     -10.345   3.898  71.555  1.00  0.00     0.027 N  
HETATM   24  O   UNL     1     -11.080   6.063  72.011  1.00  0.00    -0.250 OA 
HETATM   25  C   UNL     1      -9.656   3.267  70.524  1.00  0.00    -0.148 A  
HETATM   26  H   UNL     1     -10.679   3.425  72.395  1.00  0.00     0.000 HD 
HETATM   27  C   UNL     1      -9.339   4.185  69.519  1.00  0.00    -0.238 A  
HETATM   28  C   UNL     1      -8.655   3.780  68.385  1.00  0.00    -0.117 A  
HETATM   29  C   UNL     1      -8.295   2.439  68.292  1.00  0.00    -0.059 A  
HETATM   30  F   UNL     1      -7.629   2.018  67.210  1.00  0.00    -0.057 F  
HETATM   31  C   UNL     1      -8.608   1.520  69.303  1.00  0.00    -0.092 A  
HETATM   32  C   UNL     1      -9.304   1.932  70.444  1.00  0.00    -0.177 A  
ENDBRANCH  17  20
ENDBRANCH   9  12
ENDBRANCH   7   8
ENDBRANCH   6   7
ENDBRANCH   3   6
ENDBRANCH   2   3
TORSDOF 7
ENDMDL
MODEL      228
REMARK 921   NORMALIZED FREE ENERGY PREDICTED BY IDOCK:   -3.42 KCAL/MOL
REMARK 922        TOTAL FREE ENERGY PREDICTED BY IDOCK:   -5.90 KCAL/MOL
REMARK 923 INTER-LIGAND FREE ENERGY PREDICTED BY IDOCK:   -6.18 KCAL/MOL
REMARK 924 INTRA-LIGAND FREE ENERGY PREDICTED BY IDOCK:    0.28 KCAL/MOL
REMARK 927      BINDING AFFINITY PREDICTED BY RF-SCORE:    0.00 PKD
ROOT
HETATM    1  C   UNL     1      -8.826   3.760  64.356  1.00  0.00    -0.120 C  
HETATM    2  C   UNL     1      -9.303   4.694  65.465  1.00  0.00    -0.158 C  
ENDROOT
BRANCH   2   3
HETATM    3  N   UNL     1      -8.229   5.302  66.269  1.00  0.00    -0.109 NA 
BRANCH   3   4
HETATM    4  C   UNL     1      -6.976   5.523  65.520  1.00  0.00    -0.065 C  
HETATM    5  C   UNL     1      -6.791   6.904  64.889  1.00  0.00    -0.050 C  
ENDBRANCH   3   4
BRANCH   3   6
HETATM    6  C   UNL     1      -8.681   6.558  66.915  1.00  0.00    -0.115 C  
BRANCH   6   7
HETATM    7  C   UNL     1     -10.023   7.124  66.418  1.00  0.00    -0.011 C  
BRANCH   7   8
HETATM    8  N   UNL     1      -9.935   8.524  66.068  1.00  0.00    -0.465 N  
HETATM    9  C   UNL     1      -9.410   9.440  66.945  1.00  0.00    -0.147 C  
HETATM   10  H   UNL     1     -10.268   8.836  65.156  1.00  0.00     0.000 HD 
HETATM   11  O   UNL     1      -8.978   9.115  68.049  1.00  0.00    -0.129 OA 
BRANCH   9  12
HETATM   12  C   UNL     1      -9.365  10.824  66.464  1.00  0.00    -0.192 A  
HETATM   13  C   UNL     1      -9.656  11.316  65.196  1.00  0.00    -0.235 A  
HETATM   14  C   UNL     1     -10.119  10.672  63.935  1.00  0.00    -0.356 C  
HETATM   15  N   UNL     1      -9.504  12.686  65.232  1.00  0.00    -0.450 NA 
HETATM   16  H   UNL     1      -9.628  13.304  64.429  1.00  0.00     0.000 HD 
HETATM   17  C   UNL     1      -9.166  13.107  66.489  1.00  0.00    -0.177 A  
HETATM   18  C   UNL     1      -9.068  11.973  67.285  1.00  0.00    -0.178 A  
HETATM   19  C   UNL     1      -8.725  11.921  68.741  1.00  0.00     0.056 C  
BRANCH  17  20
HETATM   20  C   UNL     1      -8.981  14.473  66.826  1.00  0.00    -0.270 C  
HETATM   21  C   UNL     1      -9.775  15.322  67.491  1.00  0.00    -0.204 C  
HETATM   22  C   UNL     1     -11.139  15.153  68.109  1.00  0.00    -0.304 C  
HETATM   23  N   UNL     1     -11.447  16.396  68.652  1.00  0.00    -0.305 N  
HETATM   24  O   UNL     1     -11.832  14.156  68.134  1.00  0.00    -0.331 OA 
HETATM   25  C   UNL     1     -10.425  17.316  68.439  1.00  0.00    -0.381 A  
HETATM   26  H   UNL     1     -12.315  16.607  69.146  1.00  0.00     0.000 HD 
HETATM   27  C   UNL     1      -9.374  16.719  67.737  1.00  0.00    -0.233 A  
HETATM   28  C   UNL     1      -8.240  17.445  67.415  1.00  0.00    -0.212 A  
HETATM   29  C   UNL     1      -8.194  18.779  67.809  1.00  0.00    -0.263 A  
HETATM   30  F   UNL     1      -7.112  19.508  67.508  1.00  0.00    -0.225 F  
HETATM   31  C   UNL     1      -9.250  19.377  68.509  1.00  0.00    -0.429 A  
HETATM   32  C   UNL     1     -10.391  18.639  68.837  1.00  0.00    -0.127 A  
ENDBRANCH  17  20
ENDBRANCH   9  12
ENDBRANCH   7   8
ENDBRANCH   6   7
ENDBRANCH   3   6
ENDBRANCH   2   3
TORSDOF 7
ENDMDL
MODEL      229
REMARK 921   NORMALIZED FREE ENERGY PREDICTED BY IDOCK:   -3.37 KCAL/MOL
REMARK 922        TOTAL FREE ENERGY PREDICTED BY IDOCK:   -5.84 KCAL/MOL
REMARK 923 INTER-LIGAND FREE ENERGY PREDICTED BY IDOCK:   -5.30 KCAL/MOL
REMARK 924 INTRA-LIGAND FREE ENERGY PREDICTED BY IDOCK:   -0.54 KCAL/MOL
REMARK 927      BINDING AFFINITY PREDICTED BY RF-SCORE:    0.00 PKD
ROOT
HETATM    1  C   UNL     1      -8.843   5.748  71.093  1.00  0.00    -0.139 C  
HETATM    2  C   UNL     1      -8.217   5.208  69.811  1.00  0.00    -0.089 C  
ENDROOT
BRANCH   2   3
HETATM    3  N   UNL     1      -9.149   5.056  68.681  1.00  0.00    -0.106 NA 
BRANCH   3   4
HETATM    4  C   UNL     1     -10.320   5.953  68.750  1.00  0.00    -0.219 C  
HETATM    5  C   UNL     1     -10.874   6.458  67.416  1.00  0.00    -0.457 C  
ENDBRANCH   3   4
BRANCH   3   6
HETATM    6  C   UNL     1      -8.453   5.205  67.380  1.00  0.00    -0.105 C  
BRANCH   6   7
HETATM    7  C   UNL     1      -7.196   6.094  67.388  1.00  0.00    -0.076 C  
BRANCH   7   8
HETATM    8  N   UNL     1      -7.451   7.412  66.853  1.00  0.00    -0.095 N  
HETATM    9  C   UNL     1      -7.619   8.492  67.683  1.00  0.00    -0.098 C  
HETATM   10  H   UNL     1      -7.509   7.542  65.843  1.00  0.00     0.000 HD 
HETATM   11  O   UNL     1      -7.541   8.395  68.906  1.00  0.00    -0.092 OA 
BRANCH   9  12
HETATM   12  C   UNL     1      -7.858   9.775  67.015  1.00  0.00    -0.102 A  
HETATM   13  C   UNL     1      -8.128  10.021  65.673  1.00  0.00    -0.138 A  
HETATM   14  C   UNL     1      -8.290   9.134  64.487  1.00  0.00    -0.175 C  
HETATM   15  N   UNL     1      -8.314  11.379  65.524  1.00  0.00    -0.370 NA 
HETATM   16  H   UNL     1      -8.499  11.844  64.635  1.00  0.00     0.000 HD 
HETATM   17  C   UNL     1      -8.217  12.020  66.729  1.00  0.00    -0.110 A  
HETATM   18  C   UNL     1      -7.932  11.052  67.683  1.00  0.00    -0.115 A  
HETATM   19  C   UNL     1      -7.737  11.263  69.152  1.00  0.00    -0.047 C  
BRANCH  17  20
HETATM   20  C   UNL     1      -8.401  13.419  66.880  1.00  0.00    -0.013 C  
HETATM   21  C   UNL     1      -9.498  14.126  67.180  1.00  0.00    -0.237 C  
HETATM   22  C   UNL     1     -10.921  13.713  67.454  1.00  0.00    -0.276 C  
HETATM   23  N   UNL     1     -11.603  14.900  67.698  1.00  0.00    -0.346 N  
HETATM   24  O   UNL     1     -11.388  12.591  67.461  1.00  0.00    -0.273 OA 
HETATM   25  C   UNL     1     -10.759  16.003  67.606  1.00  0.00    -0.320 A  
HETATM   26  H   UNL     1     -12.598  14.956  67.917  1.00  0.00     0.000 HD 
HETATM   27  C   UNL     1      -9.460  15.595  67.295  1.00  0.00    -0.221 A  
HETATM   28  C   UNL     1      -8.443  16.525  67.158  1.00  0.00    -0.205 A  
HETATM   29  C   UNL     1      -8.767  17.867  67.334  1.00  0.00    -0.237 A  
HETATM   30  F   UNL     1      -7.806  18.790  67.204  1.00  0.00    -0.229 F  
HETATM   31  C   UNL     1     -10.072  18.275  67.641  1.00  0.00    -0.368 A  
HETATM   32  C   UNL     1     -11.094  17.333  67.784  1.00  0.00    -0.037 A  
ENDBRANCH  17  20
ENDBRANCH   9  12
ENDBRANCH   7   8
ENDBRANCH   6   7
ENDBRANCH   3   6
ENDBRANCH   2   3
TORSDOF 7
ENDMDL
MODEL      230
REMARK 921   NORMALIZED FREE ENERGY PREDICTED BY IDOCK:   -3.29 KCAL/MOL
REMARK 922        TOTAL FREE ENERGY PREDICTED BY IDOCK:   -5.72 KCAL/MOL
REMARK 923 INTER-LIGAND FREE ENERGY PREDICTED BY IDOCK:   -4.54 KCAL/MOL
REMARK 924 INTRA-LIGAND FREE ENERGY PREDICTED BY IDOCK:   -1.18 KCAL/MOL
REMARK 927      BINDING AFFINITY PREDICTED BY RF-SCORE:    0.00 PKD
ROOT
HETATM    1  C   UNL     1      -7.959   4.300  64.365  1.00  0.00    -0.087 C  
HETATM    2  C   UNL     1      -9.055   4.889  65.249  1.00  0.00    -0.153 C  
ENDROOT
BRANCH   2   3
HETATM    3  N   UNL     1      -8.713   4.991  66.678  1.00  0.00    -0.109 NA 
BRANCH   3   4
HETATM    4  C   UNL     1      -9.566   4.164  67.555  1.00  0.00    -0.171 C  
HETATM    5  C   UNL     1      -9.455   4.423  69.058  1.00  0.00    -0.237 C  
ENDBRANCH   3   4
BRANCH   3   6
HETATM    6  C   UNL     1      -7.279   4.696  66.915  1.00  0.00    -0.076 C  
BRANCH   6   7
HETATM    7  C   UNL     1      -6.392   5.906  67.259  1.00  0.00    -0.042 C  
BRANCH   7   8
HETATM    8  N   UNL     1      -7.143   7.139  67.322  1.00  0.00    -0.081 N  
HETATM    9  C   UNL     1      -7.283   7.940  66.216  1.00  0.00    -0.074 C  
HETATM   10  H   UNL     1      -7.576   7.419  68.202  1.00  0.00     0.000 HD 
HETATM   11  O   UNL     1      -6.798   7.641  65.127  1.00  0.00    -0.047 OA 
BRANCH   9  12
HETATM   12  C   UNL     1      -8.080   9.155  66.410  1.00  0.00    -0.107 A  
HETATM   13  C   UNL     1      -9.432   9.270  66.717  1.00  0.00    -0.175 A  
HETATM   14  C   UNL     1     -10.507   8.272  66.974  1.00  0.00    -0.384 C  
HETATM   15  N   UNL     1      -9.723  10.613  66.833  1.00  0.00    -0.175 NA 
HETATM   16  H   UNL     1     -10.651  10.990  67.027  1.00  0.00     0.000 HD 
HETATM   17  C   UNL     1      -8.600  11.374  66.655  1.00  0.00    -0.170 A  
HETATM   18  C   UNL     1      -7.555  10.498  66.388  1.00  0.00    -0.132 A  
HETATM   19  C   UNL     1      -6.125  10.855  66.125  1.00  0.00    -0.135 C  
BRANCH  17  20
HETATM   20  C   UNL     1      -8.597  12.789  66.756  1.00  0.00    -0.084 C  
HETATM   21  C   UNL     1      -8.035  13.597  67.664  1.00  0.00    -0.180 C  
HETATM   22  C   UNL     1      -7.220  13.313  68.900  1.00  0.00    -0.054 C  
HETATM   23  N   UNL     1      -6.926  14.563  69.434  1.00  0.00    -0.148 N  
HETATM   24  O   UNL     1      -6.887  12.234  69.346  1.00  0.00    -0.082 OA 
HETATM   25  C   UNL     1      -7.468  15.589  68.666  1.00  0.00    -0.131 A  
HETATM   26  H   UNL     1      -6.380  14.710  70.284  1.00  0.00     0.000 HD 
HETATM   27  C   UNL     1      -8.155  15.063  67.569  1.00  0.00    -0.200 A  
HETATM   28  C   UNL     1      -8.775  15.901  66.658  1.00  0.00    -0.324 A  
HETATM   29  C   UNL     1      -8.692  17.272  66.881  1.00  0.00    -0.240 A  
HETATM   30  F   UNL     1      -9.285  18.108  66.019  1.00  0.00    -0.268 F  
HETATM   31  C   UNL     1      -8.007  17.799  67.984  1.00  0.00    -0.244 A  
HETATM   32  C   UNL     1      -7.378  16.949  68.899  1.00  0.00    -0.236 A  
ENDBRANCH  17  20
ENDBRANCH   9  12
ENDBRANCH   7   8
ENDBRANCH   6   7
ENDBRANCH   3   6
ENDBRANCH   2   3
TORSDOF 7
ENDMDL
MODEL      231
REMARK 921   NORMALIZED FREE ENERGY PREDICTED BY IDOCK:   -3.29 KCAL/MOL
REMARK 922        TOTAL FREE ENERGY PREDICTED BY IDOCK:   -5.72 KCAL/MOL
REMARK 923 INTER-LIGAND FREE ENERGY PREDICTED BY IDOCK:   -4.75 KCAL/MOL
REMARK 924 INTRA-LIGAND FREE ENERGY PREDICTED BY IDOCK:   -0.97 KCAL/MOL
REMARK 927      BINDING AFFINITY PREDICTED BY RF-SCORE:    0.00 PKD
ROOT
HETATM    1  C   UNL     1     -12.730  13.713  65.315  1.00  0.00    -0.478 C  
HETATM    2  C   UNL     1     -11.670  13.082  66.212  1.00  0.00    -0.387 C  
ENDROOT
BRANCH   2   3
HETATM    3  N   UNL     1     -10.953  14.026  67.085  1.00  0.00    -0.292 NA 
BRANCH   3   4
HETATM    4  C   UNL     1     -10.829  13.568  68.483  1.00  0.00    -0.264 C  
HETATM    5  C   UNL     1     -11.264  12.131  68.774  1.00  0.00    -0.314 C  
ENDBRANCH   3   4
BRANCH   3   6
HETATM    6  C   UNL     1      -9.622  14.374  66.530  1.00  0.00    -0.293 C  
BRANCH   6   7
HETATM    7  C   UNL     1      -8.408  13.919  67.360  1.00  0.00    -0.198 C  
BRANCH   7   8
HETATM    8  N   UNL     1      -8.022  12.557  67.071  1.00  0.00    -0.344 N  
HETATM    9  C   UNL     1      -7.444  11.765  68.031  1.00  0.00    -0.101 C  
HETATM   10  H   UNL     1      -8.181  12.178  66.137  1.00  0.00     0.000 HD 
HETATM   11  O   UNL     1      -7.247  12.167  69.176  1.00  0.00    -0.075 OA 
BRANCH   9  12
HETATM   12  C   UNL     1      -7.113  10.400  67.614  1.00  0.00    -0.085 A  
HETATM   13  C   UNL     1      -6.329   9.983  66.543  1.00  0.00    -0.072 A  
HETATM   14  C   UNL     1      -5.558  10.714  65.499  1.00  0.00    -0.135 C  
HETATM   15  N   UNL     1      -6.278   8.605  66.572  1.00  0.00    -0.057 NA 
HETATM   16  H   UNL     1      -5.793   8.029  65.884  1.00  0.00     0.000 HD 
HETATM   17  C   UNL     1      -6.966   8.113  67.648  1.00  0.00    -0.078 A  
HETATM   18  C   UNL     1      -7.502   9.204  68.321  1.00  0.00    -0.083 A  
HETATM   19  C   UNL     1      -8.334   9.176  69.565  1.00  0.00    -0.126 C  
BRANCH  17  20
HETATM   20  C   UNL     1      -7.051   6.729  67.947  1.00  0.00    -0.085 C  
HETATM   21  C   UNL     1      -8.043   5.852  67.743  1.00  0.00    -0.105 C  
HETATM   22  C   UNL     1      -9.416   6.004  67.141  1.00  0.00    -0.118 C  
HETATM   23  N   UNL     1      -9.985   4.737  67.211  1.00  0.00    -0.186 N  
HETATM   24  O   UNL     1      -9.930   7.009  66.691  1.00  0.00    -0.194 OA 
HETATM   25  C   UNL     1      -9.115   3.817  67.789  1.00  0.00    -0.157 A  
HETATM   26  H   UNL     1     -10.922   4.510  66.880  1.00  0.00     0.000 HD 
HETATM   27  C   UNL     1      -7.911   4.437  68.133  1.00  0.00    -0.079 A  
HETATM   28  C   UNL     1      -6.889   3.712  68.721  1.00  0.00    -0.046 A  
HETATM   29  C   UNL     1      -7.110   2.359  68.958  1.00  0.00    -0.044 A  
HETATM   30  F   UNL     1      -6.141   1.632  69.529  1.00  0.00    -0.021 F  
HETATM   31  C   UNL     1      -8.319   1.739  68.617  1.00  0.00    -0.077 A  
HETATM   32  C   UNL     1      -9.348   2.474  68.019  1.00  0.00    -0.254 A  
ENDBRANCH  17  20
ENDBRANCH   9  12
ENDBRANCH   7   8
ENDBRANCH   6   7
ENDBRANCH   3   6
ENDBRANCH   2   3
TORSDOF 7
ENDMDL
MODEL      232
REMARK 921   NORMALIZED FREE ENERGY PREDICTED BY IDOCK:   -3.28 KCAL/MOL
REMARK 922        TOTAL FREE ENERGY PREDICTED BY IDOCK:   -5.72 KCAL/MOL
REMARK 923 INTER-LIGAND FREE ENERGY PREDICTED BY IDOCK:   -4.78 KCAL/MOL
REMARK 924 INTRA-LIGAND FREE ENERGY PREDICTED BY IDOCK:   -0.93 KCAL/MOL
REMARK 927      BINDING AFFINITY PREDICTED BY RF-SCORE:    0.00 PKD
ROOT
HETATM    1  C   UNL     1      -9.417   2.899  68.114  1.00  0.00    -0.220 C  
HETATM    2  C   UNL     1      -8.655   4.123  67.613  1.00  0.00    -0.100 C  
ENDROOT
BRANCH   2   3
HETATM    3  N   UNL     1      -7.188   4.008  67.674  1.00  0.00    -0.066 NA 
BRANCH   3   4
HETATM    4  C   UNL     1      -6.537   3.993  66.348  1.00  0.00    -0.041 C  
HETATM    5  C   UNL     1      -5.602   2.818  66.058  1.00  0.00    -0.017 C  
ENDBRANCH   3   4
BRANCH   3   6
HETATM    6  C   UNL     1      -6.596   5.062  68.534  1.00  0.00    -0.049 C  
BRANCH   6   7
HETATM    7  C   UNL     1      -6.309   6.408  67.845  1.00  0.00    -0.040 C  
BRANCH   7   8
HETATM    8  N   UNL     1      -7.435   7.311  67.910  1.00  0.00    -0.099 N  
HETATM    9  C   UNL     1      -7.300   8.636  67.581  1.00  0.00    -0.089 C  
HETATM   10  H   UNL     1      -8.345   6.958  68.205  1.00  0.00     0.000 HD 
HETATM   11  O   UNL     1      -6.231   9.110  67.202  1.00  0.00    -0.057 OA 
BRANCH   9  12
HETATM   12  C   UNL     1      -8.521   9.441  67.675  1.00  0.00    -0.119 A  
HETATM   13  C   UNL     1      -9.576   9.534  66.772  1.00  0.00    -0.176 A  
HETATM   14  C   UNL     1      -9.859   8.876  65.466  1.00  0.00     0.142 C  
HETATM   15  N   UNL     1     -10.514  10.390  67.309  1.00  0.00    -0.236 NA 
HETATM   16  H   UNL     1     -11.380  10.664  66.845  1.00  0.00     0.000 HD 
HETATM   17  C   UNL     1     -10.127  10.825  68.547  1.00  0.00    -0.176 A  
HETATM   18  C   UNL     1      -8.888  10.254  68.809  1.00  0.00    -0.148 A  
HETATM   19  C   UNL     1      -8.058  10.428  70.043  1.00  0.00     0.137 C  
BRANCH  17  20
HETATM   20  C   UNL     1     -10.918  11.688  69.348  1.00  0.00    -0.211 C  
HETATM   21  C   UNL     1     -11.031  13.023  69.341  1.00  0.00    -0.048 C  
HETATM   22  C   UNL     1     -10.368  14.088  68.505  1.00  0.00    -0.247 C  
HETATM   23  N   UNL     1     -10.888  15.290  68.971  1.00  0.00    -0.233 N  
HETATM   24  O   UNL     1      -9.553  13.943  67.617  1.00  0.00    -0.206 OA 
HETATM   25  C   UNL     1     -11.801  15.088  70.002  1.00  0.00    -0.319 A  
HETATM   26  H   UNL     1     -10.633  16.207  68.603  1.00  0.00     0.000 HD 
HETATM   27  C   UNL     1     -11.934  13.724  70.273  1.00  0.00    -0.397 A  
HETATM   28  C   UNL     1     -12.796  13.282  71.262  1.00  0.00    -0.398 A  
HETATM   29  C   UNL     1     -13.511  14.242  71.971  1.00  0.00    -0.412 A  
HETATM   30  F   UNL     1     -14.350  13.846  72.936  1.00  0.00    -0.328 F  
HETATM   31  C   UNL     1     -13.374  15.610  71.703  1.00  0.00    -0.543 A  
HETATM   32  C   UNL     1     -12.506  16.052  70.700  1.00  0.00    -0.086 A  
ENDBRANCH  17  20
ENDBRANCH   9  12
ENDBRANCH   7   8
ENDBRANCH   6   7
ENDBRANCH   3   6
ENDBRANCH   2   3
TORSDOF 7
ENDMDL
MODEL      233
REMARK 921   NORMALIZED FREE ENERGY PREDICTED BY IDOCK:   -3.20 KCAL/MOL
REMARK 922        TOTAL FREE ENERGY PREDICTED BY IDOCK:   -5.60 KCAL/MOL
REMARK 923 INTER-LIGAND FREE ENERGY PREDICTED BY IDOCK:   -4.69 KCAL/MOL
REMARK 924 INTRA-LIGAND FREE ENERGY PREDICTED BY IDOCK:   -0.91 KCAL/MOL
REMARK 927      BINDING AFFINITY PREDICTED BY RF-SCORE:    0.00 PKD
ROOT
HETATM    1  C   UNL     1      -9.389   2.795  68.162  1.00  0.00    -0.258 C  
HETATM    2  C   UNL     1      -8.694   3.914  67.391  1.00  0.00    -0.107 C  
ENDROOT
BRANCH   2   3
HETATM    3  N   UNL     1      -7.356   3.577  66.878  1.00  0.00    -0.067 NA 
BRANCH   3   4
HETATM    4  C   UNL     1      -7.376   2.858  65.588  1.00  0.00    -0.071 C  
HETATM    5  C   UNL     1      -6.620   1.529  65.533  1.00  0.00    -0.023 C  
ENDBRANCH   3   4
BRANCH   3   6
HETATM    6  C   UNL     1      -6.489   4.777  66.793  1.00  0.00    -0.041 C  
BRANCH   6   7
HETATM    7  C   UNL     1      -6.846   5.787  65.688  1.00  0.00    -0.056 C  
BRANCH   7   8
HETATM    8  N   UNL     1      -7.348   7.032  66.221  1.00  0.00    -0.074 N  
HETATM    9  C   UNL     1      -7.735   8.054  65.390  1.00  0.00    -0.096 C  
HETATM   10  H   UNL     1      -7.416   7.155  67.232  1.00  0.00     0.000 HD 
HETATM   11  O   UNL     1      -7.691   7.952  64.166  1.00  0.00    -0.118 OA 
BRANCH   9  12
HETATM   12  C   UNL     1      -8.238   9.258  66.057  1.00  0.00    -0.111 A  
HETATM   13  C   UNL     1      -9.408   9.423  66.791  1.00  0.00    -0.158 A  
HETATM   14  C   UNL     1     -10.509   8.496  67.175  1.00  0.00    -0.370 C  
HETATM   15  N   UNL     1      -9.436  10.723  67.251  1.00  0.00    -0.158 NA 
HETATM   16  H   UNL     1     -10.196  11.128  67.797  1.00  0.00     0.000 HD 
HETATM   17  C   UNL     1      -8.305  11.397  66.878  1.00  0.00    -0.159 A  
HETATM   18  C   UNL     1      -7.534  10.515  66.131  1.00  0.00    -0.136 A  
HETATM   19  C   UNL     1      -6.202  10.790  65.505  1.00  0.00    -0.044 C  
BRANCH  17  20
HETATM   20  C   UNL     1      -8.047  12.743  67.245  1.00  0.00    -0.172 C  
HETATM   21  C   UNL     1      -8.624  13.882  66.841  1.00  0.00    -0.138 C  
HETATM   22  C   UNL     1      -9.733  14.158  65.858  1.00  0.00    -0.241 C  
HETATM   23  N   UNL     1      -9.882  15.541  65.859  1.00  0.00    -0.326 N  
HETATM   24  O   UNL     1     -10.364  13.358  65.197  1.00  0.00    -0.318 OA 
HETATM   25  C   UNL     1      -8.990  16.152  66.736  1.00  0.00    -0.241 A  
HETATM   26  H   UNL     1     -10.562  16.045  65.289  1.00  0.00     0.000 HD 
HETATM   27  C   UNL     1      -8.196  15.191  67.368  1.00  0.00    -0.215 A  
HETATM   28  C   UNL     1      -7.236  15.567  68.291  1.00  0.00    -0.118 A  
HETATM   29  C   UNL     1      -7.091  16.925  68.555  1.00  0.00    -0.198 A  
HETATM   30  F   UNL     1      -6.168  17.321  69.441  1.00  0.00    -0.193 F  
HETATM   31  C   UNL     1      -7.885  17.889  67.917  1.00  0.00    -0.230 A  
HETATM   32  C   UNL     1      -8.857  17.504  66.989  1.00  0.00    -0.252 A  
ENDBRANCH  17  20
ENDBRANCH   9  12
ENDBRANCH   7   8
ENDBRANCH   6   7
ENDBRANCH   3   6
ENDBRANCH   2   3
TORSDOF 7
ENDMDL
MODEL      234
REMARK 921   NORMALIZED FREE ENERGY PREDICTED BY IDOCK:   -3.20 KCAL/MOL
REMARK 922        TOTAL FREE ENERGY PREDICTED BY IDOCK:   -5.59 KCAL/MOL
REMARK 923 INTER-LIGAND FREE ENERGY PREDICTED BY IDOCK:   -6.51 KCAL/MOL
REMARK 924 INTRA-LIGAND FREE ENERGY PREDICTED BY IDOCK:    0.92 KCAL/MOL
REMARK 927      BINDING AFFINITY PREDICTED BY RF-SCORE:    0.00 PKD
ROOT
HETATM    1  C   UNL     1     -10.240   2.106  63.951  1.00  0.00    -0.062 C  
HETATM    2  C   UNL     1      -9.364   2.887  62.977  1.00  0.00    -0.093 C  
ENDROOT
BRANCH   2   3
HETATM    3  N   UNL     1      -8.569   3.967  63.585  1.00  0.00    -0.096 NA 
BRANCH   3   4
HETATM    4  C   UNL     1      -8.805   5.293  62.979  1.00  0.00     0.054 C  
HETATM    5  C   UNL     1      -7.566   6.073  62.537  1.00  0.00    -0.073 C  
ENDBRANCH   3   4
BRANCH   3   6
HETATM    6  C   UNL     1      -8.764   4.023  65.054  1.00  0.00    -0.117 C  
BRANCH   6   7
HETATM    7  C   UNL     1     -10.219   4.184  65.533  1.00  0.00    -0.157 C  
BRANCH   7   8
HETATM    8  N   UNL     1     -10.451   5.461  66.168  1.00  0.00    -0.457 N  
HETATM    9  C   UNL     1      -9.857   5.776  67.365  1.00  0.00    -0.138 C  
HETATM   10  H   UNL     1     -11.065   6.141  65.719  1.00  0.00     0.000 HD 
HETATM   11  O   UNL     1      -9.094   5.002  67.939  1.00  0.00    -0.110 OA 
BRANCH   9  12
HETATM   12  C   UNL     1     -10.164   7.107  67.895  1.00  0.00    -0.231 A  
HETATM   13  C   UNL     1     -10.721   7.450  69.122  1.00  0.00    -0.166 A  
HETATM   14  C   UNL     1     -11.165   6.650  70.297  1.00  0.00    -0.408 C  
HETATM   15  N   UNL     1     -10.787   8.826  69.185  1.00  0.00    -0.412 NA 
HETATM   16  H   UNL     1     -11.180   9.352  69.965  1.00  0.00     0.000 HD 
HETATM   17  C   UNL     1     -10.253   9.392  68.059  1.00  0.00    -0.204 A  
HETATM   18  C   UNL     1      -9.854   8.351  67.230  1.00  0.00    -0.264 A  
HETATM   19  C   UNL     1      -9.210   8.466  65.884  1.00  0.00    -0.217 C  
BRANCH  17  20
HETATM   20  C   UNL     1     -10.156  10.794  67.868  1.00  0.00    -0.197 C  
HETATM   21  C   UNL     1     -10.680  11.808  68.568  1.00  0.00    -0.251 C  
HETATM   22  C   UNL     1     -11.560  11.841  69.792  1.00  0.00    -0.299 C  
HETATM   23  N   UNL     1     -11.779  13.190  70.045  1.00  0.00    -0.502 N  
HETATM   24  O   UNL     1     -11.995  10.901  70.427  1.00  0.00    -0.300 OA 
HETATM   25  C   UNL     1     -11.131  13.998  69.115  1.00  0.00    -0.259 A  
HETATM   26  H   UNL     1     -12.344  13.545  70.817  1.00  0.00     0.000 HD 
HETATM   27  C   UNL     1     -10.440  13.212  68.188  1.00  0.00    -0.255 A  
HETATM   28  C   UNL     1      -9.714  13.801  67.167  1.00  0.00    -0.244 A  
HETATM   29  C   UNL     1      -9.706  15.191  67.099  1.00  0.00    -0.228 A  
HETATM   30  F   UNL     1      -9.016  15.790  66.121  1.00  0.00    -0.294 F  
HETATM   31  C   UNL     1     -10.403  15.978  68.026  1.00  0.00    -0.266 A  
HETATM   32  C   UNL     1     -11.131  15.379  69.058  1.00  0.00    -0.268 A  
ENDBRANCH  17  20
ENDBRANCH   9  12
ENDBRANCH   7   8
ENDBRANCH   6   7
ENDBRANCH   3   6
ENDBRANCH   2   3
TORSDOF 7
ENDMDL
MODEL      235
REMARK 921   NORMALIZED FREE ENERGY PREDICTED BY IDOCK:   -3.01 KCAL/MOL
REMARK 922        TOTAL FREE ENERGY PREDICTED BY IDOCK:   -5.33 KCAL/MOL
REMARK 923 INTER-LIGAND FREE ENERGY PREDICTED BY IDOCK:   -4.98 KCAL/MOL
REMARK 924 INTRA-LIGAND FREE ENERGY PREDICTED BY IDOCK:   -0.35 KCAL/MOL
REMARK 927      BINDING AFFINITY PREDICTED BY RF-SCORE:    0.00 PKD
ROOT
HETATM    1  C   UNL     1     -11.445  15.640  64.278  1.00  0.00    -0.199 C  
HETATM    2  C   UNL     1     -10.850  14.267  64.575  1.00  0.00    -0.288 C  
ENDROOT
BRANCH   2   3
HETATM    3  N   UNL     1     -11.837  13.192  64.770  1.00  0.00    -0.351 NA 
BRANCH   3   4
HETATM    4  C   UNL     1     -11.556  11.976  63.980  1.00  0.00    -0.411 C  
HETATM    5  C   UNL     1     -10.241  11.956  63.200  1.00  0.00    -0.334 C  
ENDBRANCH   3   4
BRANCH   3   6
HETATM    6  C   UNL     1     -11.997  12.856  66.206  1.00  0.00    -0.408 C  
BRANCH   6   7
HETATM    7  C   UNL     1     -10.800  13.194  67.113  1.00  0.00    -0.257 C  
BRANCH   7   8
HETATM    8  N   UNL     1     -10.022  12.025  67.455  1.00  0.00    -0.191 N  
HETATM    9  C   UNL     1      -8.690  12.128  67.771  1.00  0.00    -0.171 C  
HETATM   10  H   UNL     1     -10.470  11.108  67.462  1.00  0.00     0.000 HD 
HETATM   11  O   UNL     1      -8.107  13.210  67.796  1.00  0.00    -0.137 OA 
BRANCH   9  12
HETATM   12  C   UNL     1      -8.020  10.871  68.113  1.00  0.00    -0.117 A  
HETATM   13  C   UNL     1      -6.882  10.673  68.889  1.00  0.00    -0.066 A  
HETATM   14  C   UNL     1      -5.987  11.597  69.638  1.00  0.00    -0.106 C  
HETATM   15  N   UNL     1      -6.651   9.315  68.956  1.00  0.00    -0.047 NA 
HETATM   16  H   UNL     1      -5.863   8.885  69.440  1.00  0.00     0.000 HD 
HETATM   17  C   UNL     1      -7.622   8.620  68.288  1.00  0.00    -0.097 A  
HETATM   18  C   UNL     1      -8.494   9.558  67.748  1.00  0.00    -0.119 A  
HETATM   19  C   UNL     1      -9.719   9.285  66.932  1.00  0.00    -0.248 C  
BRANCH  17  20
HETATM   20  C   UNL     1      -7.657   7.203  68.223  1.00  0.00    -0.115 C  
HETATM   21  C   UNL     1      -8.390   6.317  68.910  1.00  0.00    -0.120 C  
HETATM   22  C   UNL     1      -9.424   6.487  69.994  1.00  0.00    -0.156 C  
HETATM   23  N   UNL     1      -9.826   5.195  70.316  1.00  0.00    -0.205 N  
HETATM   24  O   UNL     1      -9.826   7.520  70.490  1.00  0.00    -0.183 OA 
HETATM   25  C   UNL     1      -9.157   4.244  69.552  1.00  0.00    -0.120 A  
HETATM   26  H   UNL     1     -10.525   4.972  71.025  1.00  0.00     0.000 HD 
HETATM   27  C   UNL     1      -8.268   4.868  68.672  1.00  0.00    -0.084 A  
HETATM   28  C   UNL     1      -7.493   4.117  67.804  1.00  0.00    -0.068 A  
HETATM   29  C   UNL     1      -7.630   2.733  67.849  1.00  0.00    -0.056 A  
HETATM   30  F   UNL     1      -6.891   1.980  67.024  1.00  0.00    -0.036 F  
HETATM   31  C   UNL     1      -8.518   2.109  68.734  1.00  0.00    -0.087 A  
HETATM   32  C   UNL     1      -9.302   2.871  69.606  1.00  0.00    -0.206 A  
ENDBRANCH  17  20
ENDBRANCH   9  12
ENDBRANCH   7   8
ENDBRANCH   6   7
ENDBRANCH   3   6
ENDBRANCH   2   3
TORSDOF 7
ENDMDL
MODEL      236
REMARK 921   NORMALIZED FREE ENERGY PREDICTED BY IDOCK:   -2.99 KCAL/MOL
REMARK 922        TOTAL FREE ENERGY PREDICTED BY IDOCK:   -5.30 KCAL/MOL
REMARK 923 INTER-LIGAND FREE ENERGY PREDICTED BY IDOCK:   -4.16 KCAL/MOL
REMARK 924 INTRA-LIGAND FREE ENERGY PREDICTED BY IDOCK:   -1.15 KCAL/MOL
REMARK 927      BINDING AFFINITY PREDICTED BY RF-SCORE:    0.00 PKD
ROOT
HETATM    1  C   UNL     1     -12.136  13.236  69.167  1.00  0.00    -0.283 C  
HETATM    2  C   UNL     1     -10.983  14.088  68.646  1.00  0.00    -0.263 C  
ENDROOT
BRANCH   2   3
HETATM    3  N   UNL     1     -10.335  13.578  67.426  1.00  0.00    -0.236 NA 
BRANCH   3   4
HETATM    4  C   UNL     1     -11.097  13.849  66.190  1.00  0.00    -0.299 C  
HETATM    5  C   UNL     1     -10.459  14.817  65.192  1.00  0.00    -0.443 C  
ENDBRANCH   3   4
BRANCH   3   6
HETATM    6  C   UNL     1      -8.944  14.075  67.301  1.00  0.00    -0.218 C  
BRANCH   6   7
HETATM    7  C   UNL     1      -7.938  13.522  68.328  1.00  0.00    -0.147 C  
BRANCH   7   8
HETATM    8  N   UNL     1      -7.473  12.198  67.984  1.00  0.00    -0.106 N  
HETATM    9  C   UNL     1      -8.001  11.083  68.586  1.00  0.00    -0.143 C  
HETATM   10  H   UNL     1      -6.741  12.089  67.282  1.00  0.00     0.000 HD 
HETATM   11  O   UNL     1      -8.897  11.156  69.424  1.00  0.00     0.084 OA 
BRANCH   9  12
HETATM   12  C   UNL     1      -7.452   9.800  68.139  1.00  0.00    -0.081 A  
HETATM   13  C   UNL     1      -6.361   9.097  68.639  1.00  0.00    -0.049 A  
HETATM   14  C   UNL     1      -5.414   9.349  69.760  1.00  0.00    -0.033 C  
HETATM   15  N   UNL     1      -6.250   7.926  67.918  1.00  0.00    -0.049 NA 
HETATM   16  H   UNL     1      -5.517   7.230  68.054  1.00  0.00     0.000 HD 
HETATM   17  C   UNL     1      -7.255   7.823  66.996  1.00  0.00    -0.089 A  
HETATM   18  C   UNL     1      -8.025   8.975  67.103  1.00  0.00    -0.102 A  
HETATM   19  C   UNL     1      -9.242   9.323  66.304  1.00  0.00    -0.236 C  
BRANCH  17  20
HETATM   20  C   UNL     1      -7.410   6.703  66.139  1.00  0.00    -0.076 C  
HETATM   21  C   UNL     1      -8.370   5.771  66.087  1.00  0.00    -0.122 C  
HETATM   22  C   UNL     1      -9.616   5.559  66.908  1.00  0.00    -0.141 C  
HETATM   23  N   UNL     1     -10.207   4.416  66.382  1.00  0.00    -0.359 N  
HETATM   24  O   UNL     1     -10.026   6.230  67.834  1.00  0.00    -0.123 OA 
HETATM   25  C   UNL     1      -9.466   3.897  65.324  1.00  0.00    -0.170 A  
HETATM   26  H   UNL     1     -11.076   4.009  66.727  1.00  0.00     0.000 HD 
HETATM   27  C   UNL     1      -8.333   4.682  65.094  1.00  0.00    -0.126 A  
HETATM   28  C   UNL     1      -7.446   4.359  64.082  1.00  0.00    -0.070 A  
HETATM   29  C   UNL     1      -7.722   3.230  63.317  1.00  0.00    -0.067 A  
HETATM   30  F   UNL     1      -6.880   2.889  62.333  1.00  0.00    -0.025 F  
HETATM   31  C   UNL     1      -8.856   2.440  63.551  1.00  0.00    -0.085 A  
HETATM   32  C   UNL     1      -9.752   2.773  64.572  1.00  0.00    -0.098 A  
ENDBRANCH  17  20
ENDBRANCH   9  12
ENDBRANCH   7   8
ENDBRANCH   6   7
ENDBRANCH   3   6
ENDBRANCH   2   3
TORSDOF 7
ENDMDL
MODEL      237
REMARK 921   NORMALIZED FREE ENERGY PREDICTED BY IDOCK:   -2.98 KCAL/MOL
REMARK 922        TOTAL FREE ENERGY PREDICTED BY IDOCK:   -5.29 KCAL/MOL
REMARK 923 INTER-LIGAND FREE ENERGY PREDICTED BY IDOCK:   -4.72 KCAL/MOL
REMARK 924 INTRA-LIGAND FREE ENERGY PREDICTED BY IDOCK:   -0.57 KCAL/MOL
REMARK 927      BINDING AFFINITY PREDICTED BY RF-SCORE:    0.00 PKD
ROOT
HETATM    1  C   UNL     1      -7.679   4.114  71.861  1.00  0.00    -0.075 C  
HETATM    2  C   UNL     1      -8.477   5.405  72.018  1.00  0.00    -0.127 C  
ENDROOT
BRANCH   2   3
HETATM    3  N   UNL     1      -9.915   5.285  71.725  1.00  0.00    -0.183 NA 
BRANCH   3   4
HETATM    4  C   UNL     1     -10.787   5.669  72.854  1.00  0.00    -0.264 C  
HETATM    5  C   UNL     1     -11.188   4.552  73.819  1.00  0.00    -0.275 C  
ENDBRANCH   3   4
BRANCH   3   6
HETATM    6  C   UNL     1     -10.284   6.038  70.501  1.00  0.00    -0.206 C  
BRANCH   6   7
HETATM    7  C   UNL     1     -11.064   7.346  70.727  1.00  0.00    -0.265 C  
BRANCH   7   8
HETATM    8  N   UNL     1     -10.227   8.516  70.596  1.00  0.00    -0.192 N  
HETATM    9  C   UNL     1      -9.578   8.794  69.419  1.00  0.00    -0.163 C  
HETATM   10  H   UNL     1     -10.115   9.145  71.392  1.00  0.00     0.000 HD 
HETATM   11  O   UNL     1      -9.693   8.080  68.426  1.00  0.00    -0.152 OA 
BRANCH   9  12
HETATM   12  C   UNL     1      -8.771  10.018  69.414  1.00  0.00    -0.195 A  
HETATM   13  C   UNL     1      -7.551  10.260  70.037  1.00  0.00    -0.103 A  
HETATM   14  C   UNL     1      -6.649   9.418  70.871  1.00  0.00    -0.098 C  
HETATM   15  N   UNL     1      -7.163  11.544  69.718  1.00  0.00    -0.339 NA 
HETATM   16  H   UNL     1      -6.317  11.996  70.064  1.00  0.00     0.000 HD 
HETATM   17  C   UNL     1      -8.066  12.131  68.874  1.00  0.00     0.132 A  
HETATM   18  C   UNL     1      -9.084  11.209  68.662  1.00  0.00    -0.166 A  
HETATM   19  C   UNL     1     -10.299  11.388  67.807  1.00  0.00    -0.206 C  
BRANCH  17  20
HETATM   20  C   UNL     1      -7.903  13.440  68.352  1.00  0.00    -0.138 C  
HETATM   21  C   UNL     1      -7.277  14.509  68.861  1.00  0.00    -0.125 C  
HETATM   22  C   UNL     1      -6.535  14.723  70.155  1.00  0.00    -0.163 C  
HETATM   23  N   UNL     1      -6.113  16.048  70.117  1.00  0.00    -0.147 N  
HETATM   24  O   UNL     1      -6.342  13.923  71.049  1.00  0.00    -0.062 OA 
HETATM   25  C   UNL     1      -6.511  16.678  68.942  1.00  0.00    -0.174 A  
HETATM   26  H   UNL     1      -5.579  16.501  70.858  1.00  0.00     0.000 HD 
HETATM   27  C   UNL     1      -7.224  15.789  68.132  1.00  0.00    -0.124 A  
HETATM   28  C   UNL     1      -7.717  16.196  66.904  1.00  0.00    -0.284 A  
HETATM   29  C   UNL     1      -7.482  17.512  66.518  1.00  0.00    -0.274 A  
HETATM   30  F   UNL     1      -7.950  17.936  65.337  1.00  0.00     0.047 F  
HETATM   31  C   UNL     1      -6.772  18.404  67.333  1.00  0.00    -0.204 A  
HETATM   32  C   UNL     1      -6.271  17.987  68.570  1.00  0.00    -0.197 A  
ENDBRANCH  17  20
ENDBRANCH   9  12
ENDBRANCH   7   8
ENDBRANCH   6   7
ENDBRANCH   3   6
ENDBRANCH   2   3
TORSDOF 7
ENDMDL
MODEL      238
REMARK 921   NORMALIZED FREE ENERGY PREDICTED BY IDOCK:   -2.96 KCAL/MOL
REMARK 922        TOTAL FREE ENERGY PREDICTED BY IDOCK:   -5.26 KCAL/MOL
REMARK 923 INTER-LIGAND FREE ENERGY PREDICTED BY IDOCK:   -4.92 KCAL/MOL
REMARK 924 INTRA-LIGAND FREE ENERGY PREDICTED BY IDOCK:   -0.35 KCAL/MOL
REMARK 927      BINDING AFFINITY PREDICTED BY RF-SCORE:    0.00 PKD
ROOT
HETATM    1  C   UNL     1     -10.573  14.446  64.615  1.00  0.00    -0.331 C  
HETATM    2  C   UNL     1      -9.862  15.675  65.174  1.00  0.00     0.017 C  
ENDROOT
BRANCH   2   3
HETATM    3  N   UNL     1      -8.875  15.394  66.230  1.00  0.00    -0.305 NA 
BRANCH   3   4
HETATM    4  C   UNL     1      -9.106  16.152  67.477  1.00  0.00    -0.203 C  
HETATM    5  C   UNL     1     -10.301  17.107  67.486  1.00  0.00    -0.341 C  
ENDBRANCH   3   4
BRANCH   3   6
HETATM    6  C   UNL     1      -8.780  13.941  66.512  1.00  0.00     0.095 C  
BRANCH   6   7
HETATM    7  C   UNL     1      -7.759  13.531  67.589  1.00  0.00    -0.176 C  
BRANCH   7   8
HETATM    8  N   UNL     1      -8.312  12.601  68.546  1.00  0.00    -0.311 N  
HETATM    9  C   UNL     1      -9.022  11.501  68.135  1.00  0.00    -0.172 C  
HETATM   10  H   UNL     1      -8.174  12.765  69.543  1.00  0.00     0.000 HD 
HETATM   11  O   UNL     1      -9.202  11.246  66.946  1.00  0.00    -0.169 OA 
BRANCH   9  12
HETATM   12  C   UNL     1      -9.518  10.630  69.205  1.00  0.00    -0.185 A  
HETATM   13  C   UNL     1     -10.702  10.727  69.929  1.00  0.00    -0.144 A  
HETATM   14  C   UNL     1     -11.851  11.673  69.880  1.00  0.00    -0.434 C  
HETATM   15  N   UNL     1     -10.747   9.661  70.804  1.00  0.00    -0.311 NA 
HETATM   16  H   UNL     1     -11.494   9.499  71.479  1.00  0.00     0.000 HD 
HETATM   17  C   UNL     1      -9.656   8.852  70.645  1.00  0.00    -0.215 A  
HETATM   18  C   UNL     1      -8.865   9.424  69.656  1.00  0.00    -0.178 A  
HETATM   19  C   UNL     1      -7.565   8.904  69.127  1.00  0.00    -0.080 C  
BRANCH  17  20
HETATM   20  C   UNL     1      -9.459   7.660  71.389  1.00  0.00    -0.166 C  
HETATM   21  C   UNL     1      -8.489   7.319  72.247  1.00  0.00    -0.129 C  
HETATM   22  C   UNL     1      -7.262   8.051  72.727  1.00  0.00    -0.095 C  
HETATM   23  N   UNL     1      -6.639   7.175  73.609  1.00  0.00    -0.066 N  
HETATM   24  O   UNL     1      -6.884   9.163  72.417  1.00  0.00    -0.313 OA 
HETATM   25  C   UNL     1      -7.344   5.982  73.730  1.00  0.00    -0.092 A  
HETATM   26  H   UNL     1      -5.772   7.382  74.106  1.00  0.00     0.000 HD 
HETATM   27  C   UNL     1      -8.486   6.009  72.924  1.00  0.00    -0.117 A  
HETATM   28  C   UNL     1      -9.348   4.927  72.887  1.00  0.00    -0.145 A  
HETATM   29  C   UNL     1      -9.031   3.821  73.670  1.00  0.00    -0.088 A  
HETATM   30  F   UNL     1      -9.843   2.757  73.652  1.00  0.00    -0.112 F  
HETATM   31  C   UNL     1      -7.883   3.792  74.474  1.00  0.00    -0.077 A  
HETATM   32  C   UNL     1      -7.018   4.890  74.512  1.00  0.00    -0.073 A  
ENDBRANCH  17  20
ENDBRANCH   9  12
ENDBRANCH   7   8
ENDBRANCH   6   7
ENDBRANCH   3   6
ENDBRANCH   2   3
TORSDOF 7
ENDMDL
MODEL      239
REMARK 921   NORMALIZED FREE ENERGY PREDICTED BY IDOCK:   -2.94 KCAL/MOL
REMARK 922        TOTAL FREE ENERGY PREDICTED BY IDOCK:   -5.23 KCAL/MOL
REMARK 923 INTER-LIGAND FREE ENERGY PREDICTED BY IDOCK:   -4.21 KCAL/MOL
REMARK 924 INTRA-LIGAND FREE ENERGY PREDICTED BY IDOCK:   -1.01 KCAL/MOL
REMARK 927      BINDING AFFINITY PREDICTED BY RF-SCORE:    0.00 PKD
ROOT
HETATM    1  C   UNL     1     -10.950   3.575  63.828  1.00  0.00    -0.087 C  
HETATM    2  C   UNL     1      -9.930   2.660  64.498  1.00  0.00     0.042 C  
ENDROOT
BRANCH   2   3
HETATM    3  N   UNL     1      -9.405   3.150  65.783  1.00  0.00    -0.138 NA 
BRANCH   3   4
HETATM    4  C   UNL     1      -7.954   2.932  65.957  1.00  0.00    -0.082 C  
HETATM    5  C   UNL     1      -7.232   2.204  64.822  1.00  0.00    -0.054 C  
ENDBRANCH   3   4
BRANCH   3   6
HETATM    6  C   UNL     1      -9.747   4.577  66.000  1.00  0.00    -0.210 C  
BRANCH   6   7
HETATM    7  C   UNL     1      -8.567   5.566  65.954  1.00  0.00    -0.141 C  
BRANCH   7   8
HETATM    8  N   UNL     1      -8.942   6.890  66.394  1.00  0.00    -0.150 N  
HETATM    9  C   UNL     1      -8.357   7.462  67.496  1.00  0.00    -0.113 C  
HETATM   10  H   UNL     1      -9.652   7.408  65.877  1.00  0.00     0.000 HD 
HETATM   11  O   UNL     1      -7.484   6.889  68.143  1.00  0.00    -0.094 OA 
BRANCH   9  12
HETATM   12  C   UNL     1      -8.815   8.814  67.828  1.00  0.00    -0.137 A  
HETATM   13  C   UNL     1      -9.678   9.217  68.842  1.00  0.00    -0.162 A  
HETATM   14  C   UNL     1     -10.396   8.482  69.920  1.00  0.00    -0.210 C  
HETATM   15  N   UNL     1      -9.784  10.591  68.782  1.00  0.00    -0.176 NA 
HETATM   16  H   UNL     1     -10.376  11.153  69.393  1.00  0.00     0.000 HD 
HETATM   17  C   UNL     1      -8.988  11.099  67.792  1.00  0.00    -0.139 A  
HETATM   18  C   UNL     1      -8.369  10.020  67.174  1.00  0.00    -0.121 A  
HETATM   19  C   UNL     1      -7.400  10.068  66.034  1.00  0.00    -0.112 C  
BRANCH  17  20
HETATM   20  C   UNL     1      -8.871  12.488  67.527  1.00  0.00    -0.184 C  
HETATM   21  C   UNL     1      -7.903  13.358  67.846  1.00  0.00    -0.152 C  
HETATM   22  C   UNL     1      -6.608  13.194  68.598  1.00  0.00    -0.092 C  
HETATM   23  N   UNL     1      -6.034  14.461  68.612  1.00  0.00    -0.081 N  
HETATM   24  O   UNL     1      -6.151  12.184  69.094  1.00  0.00    -0.068 OA 
HETATM   25  C   UNL     1      -6.831  15.391  67.950  1.00  0.00    -0.149 A  
HETATM   26  H   UNL     1      -5.141  14.682  69.051  1.00  0.00     0.000 HD 
HETATM   27  C   UNL     1      -7.986  14.777  67.458  1.00  0.00    -0.207 A  
HETATM   28  C   UNL     1      -8.929  15.509  66.757  1.00  0.00    -0.295 A  
HETATM   29  C   UNL     1      -8.685  16.867  66.571  1.00  0.00    -0.269 A  
HETATM   30  F   UNL     1      -9.580  17.602  65.899  1.00  0.00    -0.242 F  
HETATM   31  C   UNL     1      -7.529  17.482  67.069  1.00  0.00    -0.229 A  
HETATM   32  C   UNL     1      -6.577  16.738  67.772  1.00  0.00    -0.161 A  
ENDBRANCH  17  20
ENDBRANCH   9  12
ENDBRANCH   7   8
ENDBRANCH   6   7
ENDBRANCH   3   6
ENDBRANCH   2   3
TORSDOF 7
ENDMDL
MODEL      240
REMARK 921   NORMALIZED FREE ENERGY PREDICTED BY IDOCK:   -2.93 KCAL/MOL
REMARK 922        TOTAL FREE ENERGY PREDICTED BY IDOCK:   -5.22 KCAL/MOL
REMARK 923 INTER-LIGAND FREE ENERGY PREDICTED BY IDOCK:   -4.27 KCAL/MOL
REMARK 924 INTRA-LIGAND FREE ENERGY PREDICTED BY IDOCK:   -0.95 KCAL/MOL
REMARK 927      BINDING AFFINITY PREDICTED BY RF-SCORE:    0.00 PKD
ROOT
HETATM    1  C   UNL     1      -7.069  17.332  68.549  1.00  0.00    -0.220 C  
HETATM    2  C   UNL     1      -8.488  16.774  68.495  1.00  0.00    -0.244 C  
ENDROOT
BRANCH   2   3
HETATM    3  N   UNL     1      -8.678  15.645  67.569  1.00  0.00    -0.173 NA 
BRANCH   3   4
HETATM    4  C   UNL     1      -8.905  16.056  66.169  1.00  0.00    -0.331 C  
HETATM    5  C   UNL     1     -10.145  15.483  65.480  1.00  0.00    -0.406 C  
ENDBRANCH   3   4
BRANCH   3   6
HETATM    6  C   UNL     1      -7.556  14.679  67.655  1.00  0.00    -0.180 C  
BRANCH   6   7
HETATM    7  C   UNL     1      -7.850  13.374  68.417  1.00  0.00    -0.138 C  
BRANCH   7   8
HETATM    8  N   UNL     1      -8.084  12.259  67.529  1.00  0.00    -0.159 N  
HETATM    9  C   UNL     1      -8.788  11.157  67.946  1.00  0.00    -0.136 C  
HETATM   10  H   UNL     1      -7.719  12.290  66.577  1.00  0.00     0.000 HD 
HETATM   11  O   UNL     1      -9.265  11.076  69.076  1.00  0.00    -0.151 OA 
BRANCH   9  12
HETATM   12  C   UNL     1      -8.967  10.102  66.944  1.00  0.00    -0.146 A  
HETATM   13  C   UNL     1      -9.636  10.161  65.726  1.00  0.00    -0.230 A  
HETATM   14  C   UNL     1     -10.354  11.252  65.011  1.00  0.00    -0.359 C  
HETATM   15  N   UNL     1      -9.506   8.931  65.116  1.00  0.00    -0.427 NA 
HETATM   16  H   UNL     1      -9.924   8.683  64.219  1.00  0.00     0.000 HD 
HETATM   17  C   UNL     1      -8.741   8.088  65.874  1.00  0.00    -0.157 A  
HETATM   18  C   UNL     1      -8.387   8.783  67.024  1.00  0.00    -0.103 A  
HETATM   19  C   UNL     1      -7.549   8.282  68.158  1.00  0.00    -0.098 C  
BRANCH  17  20
HETATM   20  C   UNL     1      -8.413   6.767  65.473  1.00  0.00    -0.124 C  
HETATM   21  C   UNL     1      -7.264   6.258  65.008  1.00  0.00    -0.070 C  
HETATM   22  C   UNL     1      -5.922   6.884  64.731  1.00  0.00    -0.036 C  
HETATM   23  N   UNL     1      -5.130   5.846  64.252  1.00  0.00    -0.013 N  
HETATM   24  O   UNL     1      -5.589   8.042  64.885  1.00  0.00    -0.042 OA 
HETATM   25  C   UNL     1      -5.833   4.646  64.202  1.00  0.00    -0.017 A  
HETATM   26  H   UNL     1      -4.154   5.951  63.972  1.00  0.00     0.000 HD 
HETATM   27  C   UNL     1      -7.142   4.832  64.653  1.00  0.00    -0.058 A  
HETATM   28  C   UNL     1      -8.030   3.771  64.697  1.00  0.00    -0.086 A  
HETATM   29  C   UNL     1      -7.571   2.528  64.273  1.00  0.00    -0.071 A  
HETATM   30  F   UNL     1      -8.407   1.482  64.300  1.00  0.00    -0.067 F  
HETATM   31  C   UNL     1      -6.259   2.343  63.815  1.00  0.00    -0.014 A  
HETATM   32  C   UNL     1      -5.365   3.417  63.777  1.00  0.00    -0.009 A  
ENDBRANCH  17  20
ENDBRANCH   9  12
ENDBRANCH   7   8
ENDBRANCH   6   7
ENDBRANCH   3   6
ENDBRANCH   2   3
TORSDOF 7
ENDMDL
MODEL      241
REMARK 921   NORMALIZED FREE ENERGY PREDICTED BY IDOCK:   -2.91 KCAL/MOL
REMARK 922        TOTAL FREE ENERGY PREDICTED BY IDOCK:   -5.18 KCAL/MOL
REMARK 923 INTER-LIGAND FREE ENERGY PREDICTED BY IDOCK:   -5.47 KCAL/MOL
REMARK 924 INTRA-LIGAND FREE ENERGY PREDICTED BY IDOCK:    0.29 KCAL/MOL
REMARK 927      BINDING AFFINITY PREDICTED BY RF-SCORE:    0.00 PKD
ROOT
HETATM    1  C   UNL     1     -11.250  15.953  64.332  1.00  0.00    -0.242 C  
HETATM    2  C   UNL     1     -11.107  14.554  64.921  1.00  0.00    -0.394 C  
ENDROOT
BRANCH   2   3
HETATM    3  N   UNL     1     -12.337  14.000  65.513  1.00  0.00    -0.456 NA 
BRANCH   3   4
HETATM    4  C   UNL     1     -12.775  12.731  64.897  1.00  0.00    -0.404 C  
HETATM    5  C   UNL     1     -12.509  12.570  63.399  1.00  0.00    -0.514 C  
ENDBRANCH   3   4
BRANCH   3   6
HETATM    6  C   UNL     1     -12.212  13.850  66.983  1.00  0.00    -0.355 C  
BRANCH   6   7
HETATM    7  C   UNL     1     -10.803  14.069  67.564  1.00  0.00    -0.270 C  
BRANCH   7   8
HETATM    8  N   UNL     1     -10.103  12.826  67.793  1.00  0.00    -0.219 N  
HETATM    9  C   UNL     1      -9.393  12.218  66.788  1.00  0.00    -0.218 C  
HETATM   10  H   UNL     1     -10.138  12.393  68.716  1.00  0.00     0.000 HD 
HETATM   11  O   UNL     1      -9.303  12.706  65.664  1.00  0.00    -0.053 OA 
BRANCH   9  12
HETATM   12  C   UNL     1      -8.718  10.970  67.154  1.00  0.00    -0.135 A  
HETATM   13  C   UNL     1      -7.511  10.461  66.685  1.00  0.00    -0.114 A  
HETATM   14  C   UNL     1      -6.501  10.968  65.715  1.00  0.00     0.052 C  
HETATM   15  N   UNL     1      -7.270   9.275  67.346  1.00  0.00    -0.079 NA 
HETATM   16  H   UNL     1      -6.465   8.672  67.177  1.00  0.00     0.000 HD 
HETATM   17  C   UNL     1      -8.255   9.015  68.259  1.00  0.00    -0.116 A  
HETATM   18  C   UNL     1      -9.177  10.051  68.168  1.00  0.00    -0.130 A  
HETATM   19  C   UNL     1     -10.430  10.215  68.970  1.00  0.00    -0.239 C  
BRANCH  17  20
HETATM   20  C   UNL     1      -8.245   7.879  69.108  1.00  0.00    -0.132 C  
HETATM   21  C   UNL     1      -8.920   6.724  69.027  1.00  0.00    -0.131 C  
HETATM   22  C   UNL     1      -9.929   6.213  68.031  1.00  0.00    -0.141 C  
HETATM   23  N   UNL     1     -10.277   4.946  68.487  1.00  0.00    -0.088 N  
HETATM   24  O   UNL     1     -10.357   6.775  67.044  1.00  0.00    -0.212 OA 
HETATM   25  C   UNL     1      -9.595   4.616  69.654  1.00  0.00    -0.192 A  
HETATM   26  H   UNL     1     -10.949   4.335  68.023  1.00  0.00     0.000 HD 
HETATM   27  C   UNL     1      -8.748   5.661  70.033  1.00  0.00    -0.132 A  
HETATM   28  C   UNL     1      -7.961   5.554  71.167  1.00  0.00    -0.111 A  
HETATM   29  C   UNL     1      -8.053   4.380  71.908  1.00  0.00    -0.098 A  
HETATM   30  F   UNL     1      -7.307   4.248  73.013  1.00  0.00    -0.065 F  
HETATM   31  C   UNL     1      -8.906   3.334  71.530  1.00  0.00    -0.133 A  
HETATM   32  C   UNL     1      -9.695   3.444  70.381  1.00  0.00    -0.150 A  
ENDBRANCH  17  20
ENDBRANCH   9  12
ENDBRANCH   7   8
ENDBRANCH   6   7
ENDBRANCH   3   6
ENDBRANCH   2   3
TORSDOF 7
ENDMDL
MODEL      242
REMARK 921   NORMALIZED FREE ENERGY PREDICTED BY IDOCK:   -2.72 KCAL/MOL
REMARK 922        TOTAL FREE ENERGY PREDICTED BY IDOCK:   -4.92 KCAL/MOL
REMARK 923 INTER-LIGAND FREE ENERGY PREDICTED BY IDOCK:   -5.07 KCAL/MOL
REMARK 924 INTRA-LIGAND FREE ENERGY PREDICTED BY IDOCK:    0.15 KCAL/MOL
REMARK 927      BINDING AFFINITY PREDICTED BY RF-SCORE:    0.00 PKD
ROOT
HETATM    1  C   UNL     1      -6.780  16.320  69.586  1.00  0.00    -0.154 C  
HETATM    2  C   UNL     1      -5.949  15.123  70.037  1.00  0.00    -0.142 C  
ENDROOT
BRANCH   2   3
HETATM    3  N   UNL     1      -5.911  13.999  69.086  1.00  0.00    -0.085 NA 
BRANCH   3   4
HETATM    4  C   UNL     1      -6.394  12.724  69.653  1.00  0.00    -0.091 C  
HETATM    5  C   UNL     1      -5.676  11.454  69.191  1.00  0.00    -0.045 C  
ENDBRANCH   3   4
BRANCH   3   6
HETATM    6  C   UNL     1      -6.637  14.323  67.834  1.00  0.00    -0.165 C  
BRANCH   6   7
HETATM    7  C   UNL     1      -8.174  14.299  67.923  1.00  0.00    -0.156 C  
BRANCH   7   8
HETATM    8  N   UNL     1      -8.697  12.957  68.034  1.00  0.00    -0.183 N  
HETATM    9  C   UNL     1      -9.518  12.435  67.065  1.00  0.00    -0.211 C  
HETATM   10  H   UNL     1      -8.454  12.388  68.844  1.00  0.00     0.000 HD 
HETATM   11  O   UNL     1      -9.828  13.071  66.060  1.00  0.00    -0.272 OA 
BRANCH   9  12
HETATM   12  C   UNL     1      -9.970  11.060  67.289  1.00  0.00    -0.210 A  
HETATM   13  C   UNL     1     -11.000  10.603  68.106  1.00  0.00    -0.269 A  
HETATM   14  C   UNL     1     -11.985  11.292  68.984  1.00  0.00    -0.393 C  
HETATM   15  N   UNL     1     -11.071   9.232  67.965  1.00  0.00    -0.501 NA 
HETATM   16  H   UNL     1     -11.721   8.632  68.471  1.00  0.00     0.000 HD 
HETATM   17  C   UNL     1     -10.153   8.787  67.053  1.00  0.00    -0.265 A  
HETATM   18  C   UNL     1      -9.447   9.898  66.611  1.00  0.00    -0.220 A  
HETATM   19  C   UNL     1      -8.338   9.920  65.605  1.00  0.00    -0.140 C  
BRANCH  17  20
HETATM   20  C   UNL     1     -10.028   7.423  66.682  1.00  0.00    -0.261 C  
HETATM   21  C   UNL     1      -9.531   6.378  67.357  1.00  0.00    -0.123 C  
HETATM   22  C   UNL     1      -8.923   6.262  68.731  1.00  0.00    -0.125 C  
HETATM   23  N   UNL     1      -8.588   4.919  68.867  1.00  0.00    -0.085 N  
HETATM   24  O   UNL     1      -8.752   7.141  69.552  1.00  0.00    -0.133 OA 
HETATM   25  C   UNL     1      -8.923   4.190  67.729  1.00  0.00    -0.121 A  
HETATM   26  H   UNL     1      -8.152   4.517  69.697  1.00  0.00     0.000 HD 
HETATM   27  C   UNL     1      -9.505   5.026  66.772  1.00  0.00    -0.148 A  
HETATM   28  C   UNL     1      -9.925   4.517  65.555  1.00  0.00    -0.230 A  
HETATM   29  C   UNL     1      -9.740   3.158  65.324  1.00  0.00     0.013 A  
HETATM   30  F   UNL     1     -10.132   2.637  64.155  1.00  0.00    -0.152 F  
HETATM   31  C   UNL     1      -9.151   2.321  66.283  1.00  0.00    -0.068 A  
HETATM   32  C   UNL     1      -8.733   2.838  67.513  1.00  0.00    -0.136 A  
ENDBRANCH  17  20
ENDBRANCH   9  12
ENDBRANCH   7   8
ENDBRANCH   6   7
ENDBRANCH   3   6
ENDBRANCH   2   3
TORSDOF 7
ENDMDL
MODEL      243
REMARK 921   NORMALIZED FREE ENERGY PREDICTED BY IDOCK:   -2.68 KCAL/MOL
REMARK 922        TOTAL FREE ENERGY PREDICTED BY IDOCK:   -4.86 KCAL/MOL
REMARK 923 INTER-LIGAND FREE ENERGY PREDICTED BY IDOCK:   -3.84 KCAL/MOL
REMARK 924 INTRA-LIGAND FREE ENERGY PREDICTED BY IDOCK:   -1.02 KCAL/MOL
REMARK 927      BINDING AFFINITY PREDICTED BY RF-SCORE:    0.00 PKD
ROOT
HETATM    1  C   UNL     1      -5.575  16.937  70.234  1.00  0.00    -0.203 C  
HETATM    2  C   UNL     1      -6.794  16.928  69.316  1.00  0.00    -0.228 C  
ENDROOT
BRANCH   2   3
HETATM    3  N   UNL     1      -7.165  15.604  68.789  1.00  0.00    -0.125 NA 
BRANCH   3   4
HETATM    4  C   UNL     1      -8.361  15.622  67.922  1.00  0.00    -0.146 C  
HETATM    5  C   UNL     1      -9.685  15.994  68.590  1.00  0.00    -0.217 C  
ENDBRANCH   3   4
BRANCH   3   6
HETATM    6  C   UNL     1      -6.026  14.958  68.094  1.00  0.00    -0.140 C  
BRANCH   6   7
HETATM    7  C   UNL     1      -5.609  13.575  68.628  1.00  0.00    -0.086 C  
BRANCH   7   8
HETATM    8  N   UNL     1      -6.501  12.525  68.192  1.00  0.00    -0.068 N  
HETATM    9  C   UNL     1      -6.891  11.526  69.048  1.00  0.00    -0.107 C  
HETATM   10  H   UNL     1      -6.846  12.526  67.232  1.00  0.00     0.000 HD 
HETATM   11  O   UNL     1      -6.519  11.487  70.219  1.00  0.00    -0.194 OA 
BRANCH   9  12
HETATM   12  C   UNL     1      -7.807  10.530  68.485  1.00  0.00    -0.111 A  
HETATM   13  C   UNL     1      -9.189  10.602  68.339  1.00  0.00    -0.159 A  
HETATM   14  C   UNL     1     -10.192  11.657  68.652  1.00  0.00    -0.215 C  
HETATM   15  N   UNL     1      -9.608   9.439  67.728  1.00  0.00    -0.132 NA 
HETATM   16  H   UNL     1     -10.580   9.211  67.522  1.00  0.00     0.000 HD 
HETATM   17  C   UNL     1      -8.543   8.631  67.433  1.00  0.00    -0.134 A  
HETATM   18  C   UNL     1      -7.403   9.279  67.892  1.00  0.00    -0.080 A  
HETATM   19  C   UNL     1      -5.990   8.792  67.797  1.00  0.00    -0.047 C  
BRANCH  17  20
HETATM   20  C   UNL     1      -8.675   7.385  66.768  1.00  0.00    -0.136 C  
HETATM   21  C   UNL     1      -8.795   6.144  67.258  1.00  0.00    -0.107 C  
HETATM   22  C   UNL     1      -8.822   5.615  68.669  1.00  0.00    -0.109 C  
HETATM   23  N   UNL     1      -8.960   4.237  68.537  1.00  0.00    -0.107 N  
HETATM   24  O   UNL     1      -8.739   6.241  69.706  1.00  0.00    -0.134 OA 
HETATM   25  C   UNL     1      -9.022   3.855  67.200  1.00  0.00    -0.138 A  
HETATM   26  H   UNL     1      -9.009   3.588  69.322  1.00  0.00     0.000 HD 
HETATM   27  C   UNL     1      -8.929   4.976  66.370  1.00  0.00    -0.123 A  
HETATM   28  C   UNL     1      -8.973   4.838  64.993  1.00  0.00    -0.153 A  
HETATM   29  C   UNL     1      -9.106   3.553  64.476  1.00  0.00    -0.130 A  
HETATM   30  F   UNL     1      -9.149   3.388  63.148  1.00  0.00    -0.092 F  
HETATM   31  C   UNL     1      -9.195   2.429  65.309  1.00  0.00    -0.094 A  
HETATM   32  C   UNL     1      -9.154   2.573  66.699  1.00  0.00    -0.121 A  
ENDBRANCH  17  20
ENDBRANCH   9  12
ENDBRANCH   7   8
ENDBRANCH   6   7
ENDBRANCH   3   6
ENDBRANCH   2   3
TORSDOF 7
ENDMDL
MODEL      244
REMARK 921   NORMALIZED FREE ENERGY PREDICTED BY IDOCK:   -2.66 KCAL/MOL
REMARK 922        TOTAL FREE ENERGY PREDICTED BY IDOCK:   -4.83 KCAL/MOL
REMARK 923 INTER-LIGAND FREE ENERGY PREDICTED BY IDOCK:   -3.71 KCAL/MOL
REMARK 924 INTRA-LIGAND FREE ENERGY PREDICTED BY IDOCK:   -1.12 KCAL/MOL
REMARK 927      BINDING AFFINITY PREDICTED BY RF-SCORE:    0.00 PKD
ROOT
HETATM    1  C   UNL     1      -5.580  16.941  70.226  1.00  0.00    -0.203 C  
HETATM    2  C   UNL     1      -6.792  16.960  69.300  1.00  0.00    -0.228 C  
ENDROOT
BRANCH   2   3
HETATM    3  N   UNL     1      -7.186  15.646  68.765  1.00  0.00    -0.125 NA 
BRANCH   3   4
HETATM    4  C   UNL     1      -8.366  15.694  67.878  1.00  0.00    -0.146 C  
HETATM    5  C   UNL     1      -9.709  15.316  68.506  1.00  0.00    -0.211 C  
ENDBRANCH   3   4
BRANCH   3   6
HETATM    6  C   UNL     1      -6.051  14.974  68.087  1.00  0.00    -0.137 C  
BRANCH   6   7
HETATM    7  C   UNL     1      -5.638  13.607  68.662  1.00  0.00    -0.084 C  
BRANCH   7   8
HETATM    8  N   UNL     1      -6.519  12.543  68.237  1.00  0.00    -0.061 N  
HETATM    9  C   UNL     1      -6.917  11.562  69.110  1.00  0.00    -0.113 C  
HETATM   10  H   UNL     1      -6.850  12.520  67.272  1.00  0.00     0.000 HD 
HETATM   11  O   UNL     1      -6.562  11.552  70.287  1.00  0.00    -0.177 OA 
BRANCH   9  12
HETATM   12  C   UNL     1      -7.821  10.549  68.558  1.00  0.00    -0.111 A  
HETATM   13  C   UNL     1      -9.210  10.565  68.490  1.00  0.00    -0.168 A  
HETATM   14  C   UNL     1     -10.238  11.560  68.902  1.00  0.00    -0.166 C  
HETATM   15  N   UNL     1      -9.613   9.409  67.855  1.00  0.00    -0.133 NA 
HETATM   16  H   UNL     1     -10.585   9.146  67.694  1.00  0.00     0.000 HD 
HETATM   17  C   UNL     1      -8.533   8.662  67.469  1.00  0.00    -0.124 A  
HETATM   18  C   UNL     1      -7.397   9.341  67.891  1.00  0.00    -0.080 A  
HETATM   19  C   UNL     1      -5.973   8.922  67.699  1.00  0.00    -0.047 C  
BRANCH  17  20
HETATM   20  C   UNL     1      -8.650   7.438  66.761  1.00  0.00    -0.127 C  
HETATM   21  C   UNL     1      -8.426   7.152  65.472  1.00  0.00    -0.114 C  
HETATM   22  C   UNL     1      -7.986   8.006  64.310  1.00  0.00    -0.137 C  
HETATM   23  N   UNL     1      -7.939   7.142  63.222  1.00  0.00    -0.244 N  
HETATM   24  O   UNL     1      -7.728   9.193  64.309  1.00  0.00    -0.111 OA 
HETATM   25  C   UNL     1      -8.301   5.847  63.581  1.00  0.00     0.017 A  
HETATM   26  H   UNL     1      -7.672   7.422  62.278  1.00  0.00     0.000 HD 
HETATM   27  C   UNL     1      -8.607   5.788  64.943  1.00  0.00    -0.065 A  
HETATM   28  C   UNL     1      -8.990   4.594  65.528  1.00  0.00    -0.142 A  
HETATM   29  C   UNL     1      -9.063   3.469  64.712  1.00  0.00    -0.135 A  
HETATM   30  F   UNL     1      -9.434   2.299  65.249  1.00  0.00    -0.141 F  
HETATM   31  C   UNL     1      -8.760   3.529  63.345  1.00  0.00    -0.094 A  
HETATM   32  C   UNL     1      -8.369   4.737  62.760  1.00  0.00    -0.106 A  
ENDBRANCH  17  20
ENDBRANCH   9  12
ENDBRANCH   7   8
ENDBRANCH   6   7
ENDBRANCH   3   6
ENDBRANCH   2   3
TORSDOF 7
ENDMDL
MODEL      245
REMARK 921   NORMALIZED FREE ENERGY PREDICTED BY IDOCK:   -2.62 KCAL/MOL
REMARK 922        TOTAL FREE ENERGY PREDICTED BY IDOCK:   -4.78 KCAL/MOL
REMARK 923 INTER-LIGAND FREE ENERGY PREDICTED BY IDOCK:   -4.02 KCAL/MOL
REMARK 924 INTRA-LIGAND FREE ENERGY PREDICTED BY IDOCK:   -0.77 KCAL/MOL
REMARK 927      BINDING AFFINITY PREDICTED BY RF-SCORE:    0.00 PKD
ROOT
HETATM    1  C   UNL     1      -9.540   4.902  71.390  1.00  0.00    -0.226 C  
HETATM    2  C   UNL     1      -9.503   6.386  71.036  1.00  0.00    -0.171 C  
ENDROOT
BRANCH   2   3
HETATM    3  N   UNL     1      -9.154   7.282  72.151  1.00  0.00    -0.132 NA 
BRANCH   3   4
HETATM    4  C   UNL     1      -7.705   7.535  72.281  1.00  0.00    -0.090 C  
HETATM    5  C   UNL     1      -7.231   8.129  73.609  1.00  0.00    -0.182 C  
ENDBRANCH   3   4
BRANCH   3   6
HETATM    6  C   UNL     1      -9.902   8.561  72.074  1.00  0.00    -0.312 C  
BRANCH   6   7
HETATM    7  C   UNL     1     -10.457   8.931  70.686  1.00  0.00    -0.221 C  
BRANCH   7   8
HETATM    8  N   UNL     1     -10.728  10.345  70.562  1.00  0.00    -0.423 N  
HETATM    9  C   UNL     1     -12.004  10.806  70.355  1.00  0.00    -0.357 C  
HETATM   10  H   UNL     1      -9.959  11.012  70.628  1.00  0.00     0.000 HD 
HETATM   11  O   UNL     1     -12.969  10.048  70.286  1.00  0.00    -0.099 OA 
BRANCH   9  12
HETATM   12  C   UNL     1     -12.145  12.262  70.260  1.00  0.00    -0.376 A  
HETATM   13  C   UNL     1     -12.877  13.122  71.074  1.00  0.00    -0.214 A  
HETATM   14  C   UNL     1     -13.717  12.909  72.284  1.00  0.00    -0.553 C  
HETATM   15  N   UNL     1     -12.677  14.406  70.613  1.00  0.00    -0.350 NA 
HETATM   16  H   UNL     1     -13.118  15.237  71.008  1.00  0.00     0.000 HD 
HETATM   17  C   UNL     1     -11.809  14.417  69.556  1.00  0.00    -0.329 A  
HETATM   18  C   UNL     1     -11.456  13.097  69.306  1.00  0.00    -0.348 A  
HETATM   19  C   UNL     1     -10.524  12.598  68.246  1.00  0.00    -0.249 C  
BRANCH  17  20
HETATM   20  C   UNL     1     -11.393  15.608  68.906  1.00  0.00    -0.341 C  
HETATM   21  C   UNL     1     -10.998  16.784  69.411  1.00  0.00    -0.176 C  
HETATM   22  C   UNL     1     -10.859  17.278  70.828  1.00  0.00     1.198 C  
HETATM   23  N   UNL     1     -10.411  18.590  70.712  1.00  0.00     1.322 N  
HETATM   24  O   UNL     1     -11.087  16.676  71.857  1.00  0.00     0.294 OA 
HETATM   25  C   UNL     1     -10.256  18.962  69.380  1.00  0.00     0.224 A  
HETATM   26  H   UNL     1     -10.219  19.203  71.504  1.00  0.00     0.000 HD 
HETATM   27  C   UNL     1     -10.597  17.901  68.537  1.00  0.00    -0.221 A  
HETATM   28  C   UNL     1     -10.515  18.039  67.162  1.00  0.00    -0.377 A  
HETATM   29  C   UNL     1     -10.091  19.266  66.660  1.00  0.00    -0.399 A  
HETATM   30  F   UNL     1     -10.005  19.432  65.334  1.00  0.00    -0.144 F  
HETATM   31  C   UNL     1      -9.754  20.331  67.506  1.00  0.00    -0.575 A  
HETATM   32  C   UNL     1      -9.834  20.185  68.894  1.00  0.00    -0.192 A  
ENDBRANCH  17  20
ENDBRANCH   9  12
ENDBRANCH   7   8
ENDBRANCH   6   7
ENDBRANCH   3   6
ENDBRANCH   2   3
TORSDOF 7
ENDMDL
MODEL      246
REMARK 921   NORMALIZED FREE ENERGY PREDICTED BY IDOCK:   -2.55 KCAL/MOL
REMARK 922        TOTAL FREE ENERGY PREDICTED BY IDOCK:   -4.68 KCAL/MOL
REMARK 923 INTER-LIGAND FREE ENERGY PREDICTED BY IDOCK:   -5.06 KCAL/MOL
REMARK 924 INTRA-LIGAND FREE ENERGY PREDICTED BY IDOCK:    0.38 KCAL/MOL
REMARK 927      BINDING AFFINITY PREDICTED BY RF-SCORE:    0.00 PKD
ROOT
HETATM    1  C   UNL     1      -7.818   8.028  69.893  1.00  0.00    -0.102 C  
HETATM    2  C   UNL     1      -7.172   6.992  68.978  1.00  0.00    -0.091 C  
ENDROOT
BRANCH   2   3
HETATM    3  N   UNL     1      -6.916   7.451  67.603  1.00  0.00    -0.077 NA 
BRANCH   3   4
HETATM    4  C   UNL     1      -5.584   7.075  67.087  1.00  0.00    -0.018 C  
HETATM    5  C   UNL     1      -5.555   6.300  65.769  1.00  0.00    -0.017 C  
ENDBRANCH   3   4
BRANCH   3   6
HETATM    6  C   UNL     1      -7.982   7.001  66.674  1.00  0.00    -0.108 C  
BRANCH   6   7
HETATM    7  C   UNL     1      -9.421   7.373  67.072  1.00  0.00    -0.158 C  
BRANCH   7   8
HETATM    8  N   UNL     1      -9.541   8.755  67.476  1.00  0.00    -0.147 N  
HETATM    9  C   UNL     1      -9.051   9.767  66.689  1.00  0.00    -0.147 C  
HETATM   10  H   UNL     1      -9.997   8.983  68.360  1.00  0.00     0.000 HD 
HETATM   11  O   UNL     1      -8.509   9.550  65.607  1.00  0.00    -0.125 OA 
BRANCH   9  12
HETATM   12  C   UNL     1      -9.248  11.124  67.205  1.00  0.00    -0.166 A  
HETATM   13  C   UNL     1     -10.418  11.721  67.665  1.00  0.00    -0.197 A  
HETATM   14  C   UNL     1     -11.816  11.232  67.820  1.00  0.00    -0.164 C  
HETATM   15  N   UNL     1     -10.104  12.997  68.081  1.00  0.00    -0.232 NA 
HETATM   16  H   UNL     1     -10.779  13.672  68.439  1.00  0.00     0.000 HD 
HETATM   17  C   UNL     1      -8.763  13.238  67.948  1.00  0.00    -0.192 A  
HETATM   18  C   UNL     1      -8.196  12.092  67.404  1.00  0.00    -0.175 A  
HETATM   19  C   UNL     1      -6.753  11.869  67.077  1.00  0.00    -0.119 C  
BRANCH  17  20
HETATM   20  C   UNL     1      -8.153  14.459  68.334  1.00  0.00    -0.143 C  
HETATM   21  C   UNL     1      -8.388  15.716  67.934  1.00  0.00    -0.150 C  
HETATM   22  C   UNL     1      -9.360  16.292  66.937  1.00  0.00    -0.224 C  
HETATM   23  N   UNL     1      -9.125  17.663  66.952  1.00  0.00    -0.246 N  
HETATM   24  O   UNL     1     -10.176  15.701  66.259  1.00  0.00    -0.270 OA 
HETATM   25  C   UNL     1      -8.115  17.999  67.849  1.00  0.00    -0.243 A  
HETATM   26  H   UNL     1      -9.630  18.338  66.378  1.00  0.00     0.000 HD 
HETATM   27  C   UNL     1      -7.626  16.853  68.481  1.00  0.00    -0.221 A  
HETATM   28  C   UNL     1      -6.615  16.945  69.423  1.00  0.00    -0.228 A  
HETATM   29  C   UNL     1      -6.108  18.209  69.704  1.00  0.00    -0.234 A  
HETATM   30  F   UNL     1      -5.127  18.330  70.608  1.00  0.00    -0.194 F  
HETATM   31  C   UNL     1      -6.595  19.358  69.066  1.00  0.00    -0.347 A  
HETATM   32  C   UNL     1      -7.619  19.261  68.119  1.00  0.00    -0.325 A  
ENDBRANCH  17  20
ENDBRANCH   9  12
ENDBRANCH   7   8
ENDBRANCH   6   7
ENDBRANCH   3   6
ENDBRANCH   2   3
TORSDOF 7
ENDMDL
MODEL      247
REMARK 921   NORMALIZED FREE ENERGY PREDICTED BY IDOCK:   -2.45 KCAL/MOL
REMARK 922        TOTAL FREE ENERGY PREDICTED BY IDOCK:   -4.54 KCAL/MOL
REMARK 923 INTER-LIGAND FREE ENERGY PREDICTED BY IDOCK:   -6.72 KCAL/MOL
REMARK 924 INTRA-LIGAND FREE ENERGY PREDICTED BY IDOCK:    2.18 KCAL/MOL
REMARK 927      BINDING AFFINITY PREDICTED BY RF-SCORE:    0.00 PKD
ROOT
HETATM    1  C   UNL     1      -7.251  20.075  66.375  1.00  0.00    -0.290 C  
HETATM    2  C   UNL     1      -7.525  19.158  67.564  1.00  0.00    -0.231 C  
ENDROOT
BRANCH   2   3
HETATM    3  N   UNL     1      -8.941  19.049  67.951  1.00  0.00    -0.293 NA 
BRANCH   3   4
HETATM    4  C   UNL     1      -9.853  19.844  67.104  1.00  0.00    -0.406 C  
HETATM    5  C   UNL     1     -10.446  19.135  65.885  1.00  0.00    -0.500 C  
ENDBRANCH   3   4
BRANCH   3   6
HETATM    6  C   UNL     1      -9.381  17.634  68.007  1.00  0.00    -0.274 C  
BRANCH   6   7
HETATM    7  C   UNL     1     -10.518  17.245  67.044  1.00  0.00    -0.287 C  
BRANCH   7   8
HETATM    8  N   UNL     1     -10.733  15.818  66.995  1.00  0.00    -0.317 N  
HETATM    9  C   UNL     1      -9.750  14.968  66.552  1.00  0.00    -0.266 C  
HETATM   10  H   UNL     1     -11.630  15.434  67.293  1.00  0.00     0.000 HD 
HETATM   11  O   UNL     1      -8.645  15.376  66.199  1.00  0.00    -0.222 OA 
BRANCH   9  12
HETATM   12  C   UNL     1     -10.089  13.543  66.564  1.00  0.00    -0.282 A  
HETATM   13  C   UNL     1     -11.316  12.937  66.310  1.00  0.00    -0.323 A  
HETATM   14  C   UNL     1     -12.654  13.468  65.928  1.00  0.00    -0.454 C  
HETATM   15  N   UNL     1     -11.138  11.573  66.406  1.00  0.00    -0.292 NA 
HETATM   16  H   UNL     1     -11.882  10.883  66.294  1.00  0.00     0.000 HD 
HETATM   17  C   UNL     1      -9.832  11.268  66.673  1.00  0.00    -0.205 A  
HETATM   18  C   UNL     1      -9.147  12.472  66.779  1.00  0.00    -0.214 A  
HETATM   19  C   UNL     1      -7.688  12.657  67.060  1.00  0.00    -0.021 C  
BRANCH  17  20
HETATM   20  C   UNL     1      -9.354   9.937  66.789  1.00  0.00    -0.187 C  
HETATM   21  C   UNL     1      -8.994   9.054  65.847  1.00  0.00    -0.233 C  
HETATM   22  C   UNL     1      -8.972   9.137  64.343  1.00  0.00    -0.055 C  
HETATM   23  N   UNL     1      -8.506   7.897  63.918  1.00  0.00    -0.379 N  
HETATM   24  O   UNL     1      -9.291  10.075  63.639  1.00  0.00    -0.268 OA 
HETATM   25  C   UNL     1      -8.237   7.056  64.994  1.00  0.00    -0.090 A  
HETATM   26  H   UNL     1      -8.378   7.637  62.941  1.00  0.00     0.000 HD 
HETATM   27  C   UNL     1      -8.513   7.706  66.200  1.00  0.00    -0.147 A  
HETATM   28  C   UNL     1      -8.314   7.063  67.409  1.00  0.00    -0.122 A  
HETATM   29  C   UNL     1      -7.840   5.755  67.374  1.00  0.00    -0.102 A  
HETATM   30  F   UNL     1      -7.642   5.104  68.527  1.00  0.00    -0.074 F  
HETATM   31  C   UNL     1      -7.569   5.101  66.164  1.00  0.00    -0.087 A  
HETATM   32  C   UNL     1      -7.766   5.757  64.945  1.00  0.00    -0.095 A  
ENDBRANCH  17  20
ENDBRANCH   9  12
ENDBRANCH   7   8
ENDBRANCH   6   7
ENDBRANCH   3   6
ENDBRANCH   2   3
TORSDOF 7
ENDMDL
MODEL      248
REMARK 921   NORMALIZED FREE ENERGY PREDICTED BY IDOCK:   -2.44 KCAL/MOL
REMARK 922        TOTAL FREE ENERGY PREDICTED BY IDOCK:   -4.52 KCAL/MOL
REMARK 923 INTER-LIGAND FREE ENERGY PREDICTED BY IDOCK:   -4.73 KCAL/MOL
REMARK 924 INTRA-LIGAND FREE ENERGY PREDICTED BY IDOCK:    0.21 KCAL/MOL
REMARK 927      BINDING AFFINITY PREDICTED BY RF-SCORE:    0.00 PKD
ROOT
HETATM    1  C   UNL     1     -10.237  19.752  65.970  1.00  0.00    -0.600 C  
HETATM    2  C   UNL     1     -10.212  18.423  66.718  1.00  0.00    -0.388 C  
ENDROOT
BRANCH   2   3
HETATM    3  N   UNL     1      -8.872  17.956  67.110  1.00  0.00    -0.242 NA 
BRANCH   3   4
HETATM    4  C   UNL     1      -8.270  18.732  68.213  1.00  0.00    -0.325 C  
HETATM    5  C   UNL     1      -7.498  17.937  69.268  1.00  0.00     0.015 C  
ENDBRANCH   3   4
BRANCH   3   6
HETATM    6  C   UNL     1      -8.875  16.508  67.432  1.00  0.00    -0.191 C  
BRANCH   6   7
HETATM    7  C   UNL     1      -8.482  15.563  66.282  1.00  0.00    -0.085 C  
BRANCH   7   8
HETATM    8  N   UNL     1      -8.839  14.189  66.552  1.00  0.00    -0.467 N  
HETATM    9  C   UNL     1      -9.643  13.862  67.615  1.00  0.00    -0.215 C  
HETATM   10  H   UNL     1      -8.488  13.450  65.943  1.00  0.00     0.000 HD 
HETATM   11  O   UNL     1     -10.108  14.715  68.369  1.00  0.00    -0.224 OA 
BRANCH   9  12
HETATM   12  C   UNL     1      -9.942  12.436  67.771  1.00  0.00    -0.205 A  
HETATM   13  C   UNL     1     -10.932  11.680  67.151  1.00  0.00    -0.280 A  
HETATM   14  C   UNL     1     -11.979  12.004  66.143  1.00  0.00    -0.105 C  
HETATM   15  N   UNL     1     -10.800  10.378  67.587  1.00  0.00    -0.287 NA 
HETATM   16  H   UNL     1     -11.416   9.612  67.313  1.00  0.00     0.000 HD 
HETATM   17  C   UNL     1      -9.734  10.252  68.434  1.00  0.00    -0.156 A  
HETATM   18  C   UNL     1      -9.174  11.515  68.574  1.00  0.00    -0.167 A  
HETATM   19  C   UNL     1      -7.982  11.887  69.399  1.00  0.00     0.564 C  
BRANCH  17  20
HETATM   20  C   UNL     1      -9.341   9.015  69.007  1.00  0.00    -0.140 C  
HETATM   21  C   UNL     1      -8.986   7.860  68.428  1.00  0.00    -0.133 C  
HETATM   22  C   UNL     1      -8.884   7.445  66.983  1.00  0.00    -0.128 C  
HETATM   23  N   UNL     1      -8.470   6.118  67.015  1.00  0.00    -0.105 N  
HETATM   24  O   UNL     1      -9.113   8.113  65.994  1.00  0.00    -0.183 OA 
HETATM   25  C   UNL     1      -8.304   5.665  68.320  1.00  0.00    -0.102 A  
HETATM   26  H   UNL     1      -8.308   5.547  66.185  1.00  0.00     0.000 HD 
HETATM   27  C   UNL     1      -8.602   6.684  69.229  1.00  0.00    -0.131 A  
HETATM   28  C   UNL     1      -8.501   6.464  70.592  1.00  0.00    -0.135 A  
HETATM   29  C   UNL     1      -8.103   5.199  71.015  1.00  0.00    -0.103 A  
HETATM   30  F   UNL     1      -8.000   4.954  72.327  1.00  0.00    -0.099 F  
HETATM   31  C   UNL     1      -7.810   4.176  70.103  1.00  0.00    -0.051 A  
HETATM   32  C   UNL     1      -7.908   4.404  68.727  1.00  0.00    -0.070 A  
ENDBRANCH  17  20
ENDBRANCH   9  12
ENDBRANCH   7   8
ENDBRANCH   6   7
ENDBRANCH   3   6
ENDBRANCH   2   3
TORSDOF 7
ENDMDL
MODEL      249
REMARK 921   NORMALIZED FREE ENERGY PREDICTED BY IDOCK:   -2.13 KCAL/MOL
REMARK 922        TOTAL FREE ENERGY PREDICTED BY IDOCK:   -4.09 KCAL/MOL
REMARK 923 INTER-LIGAND FREE ENERGY PREDICTED BY IDOCK:   -3.11 KCAL/MOL
REMARK 924 INTRA-LIGAND FREE ENERGY PREDICTED BY IDOCK:   -0.98 KCAL/MOL
REMARK 927      BINDING AFFINITY PREDICTED BY RF-SCORE:    0.00 PKD
ROOT
HETATM    1  C   UNL     1      -9.417   2.918  68.121  1.00  0.00    -0.220 C  
HETATM    2  C   UNL     1      -8.644   4.107  67.558  1.00  0.00    -0.100 C  
ENDROOT
BRANCH   2   3
HETATM    3  N   UNL     1      -7.179   3.954  67.563  1.00  0.00    -0.066 NA 
BRANCH   3   4
HETATM    4  C   UNL     1      -6.589   3.820  66.216  1.00  0.00    -0.038 C  
HETATM    5  C   UNL     1      -5.414   2.851  66.077  1.00  0.00    -0.017 C  
ENDBRANCH   3   4
BRANCH   3   6
HETATM    6  C   UNL     1      -6.522   5.051  68.314  1.00  0.00    -0.037 C  
BRANCH   6   7
HETATM    7  C   UNL     1      -5.907   6.176  67.460  1.00  0.00    -0.017 C  
BRANCH   7   8
HETATM    8  N   UNL     1      -6.794   7.308  67.321  1.00  0.00    -0.074 N  
HETATM    9  C   UNL     1      -6.329   8.522  66.883  1.00  0.00    -0.056 C  
HETATM   10  H   UNL     1      -7.782   7.203  67.552  1.00  0.00     0.000 HD 
HETATM   11  O   UNL     1      -5.152   8.698  66.574  1.00  0.00    -0.033 OA 
BRANCH   9  12
HETATM   12  C   UNL     1      -7.333   9.584  66.772  1.00  0.00    -0.090 A  
HETATM   13  C   UNL     1      -8.317   9.756  65.804  1.00  0.00    -0.129 A  
HETATM   14  C   UNL     1      -8.715   8.966  64.606  1.00  0.00    -0.138 C  
HETATM   15  N   UNL     1      -9.043  10.879  66.138  1.00  0.00    -0.177 NA 
HETATM   16  H   UNL     1      -9.813  11.257  65.585  1.00  0.00     0.000 HD 
HETATM   17  C   UNL     1      -8.594  11.420  67.312  1.00  0.00    -0.146 A  
HETATM   18  C   UNL     1      -7.527  10.640  67.737  1.00  0.00    -0.091 A  
HETATM   19  C   UNL     1      -6.707  10.830  68.975  1.00  0.00    -0.070 C  
BRANCH  17  20
HETATM   20  C   UNL     1      -9.182  12.562  67.915  1.00  0.00    -0.200 C  
HETATM   21  C   UNL     1      -9.657  13.689  67.368  1.00  0.00    -0.226 C  
HETATM   22  C   UNL     1      -9.736  14.162  65.939  1.00  0.00    -0.241 C  
HETATM   23  N   UNL     1     -10.326  15.420  66.006  1.00  0.00    -0.304 N  
HETATM   24  O   UNL     1      -9.365  13.584  64.938  1.00  0.00     0.449 OA 
HETATM   25  C   UNL     1     -10.623  15.777  67.318  1.00  0.00    -0.313 A  
HETATM   26  H   UNL     1     -10.518  16.007  65.194  1.00  0.00     0.000 HD 
HETATM   27  C   UNL     1     -10.240  14.760  68.196  1.00  0.00    -0.228 A  
HETATM   28  C   UNL     1     -10.444  14.893  69.559  1.00  0.00    -0.213 A  
HETATM   29  C   UNL     1     -11.032  16.069  70.013  1.00  0.00    -0.365 A  
HETATM   30  F   UNL     1     -11.238  16.229  71.326  1.00  0.00    -0.367 F  
HETATM   31  C   UNL     1     -11.411  17.091  69.132  1.00  0.00     0.395 A  
HETATM   32  C   UNL     1     -11.208  16.951  67.756  1.00  0.00     0.005 A  
ENDBRANCH  17  20
ENDBRANCH   9  12
ENDBRANCH   7   8
ENDBRANCH   6   7
ENDBRANCH   3   6
ENDBRANCH   2   3
TORSDOF 7
ENDMDL
MODEL      250
REMARK 921   NORMALIZED FREE ENERGY PREDICTED BY IDOCK:   -1.87 KCAL/MOL
REMARK 922        TOTAL FREE ENERGY PREDICTED BY IDOCK:   -3.72 KCAL/MOL
REMARK 923 INTER-LIGAND FREE ENERGY PREDICTED BY IDOCK:   -4.54 KCAL/MOL
REMARK 924 INTRA-LIGAND FREE ENERGY PREDICTED BY IDOCK:    0.82 KCAL/MOL
REMARK 927      BINDING AFFINITY PREDICTED BY RF-SCORE:    0.00 PKD
ROOT
HETATM    1  C   UNL     1      -6.817  16.325  69.596  1.00  0.00    -0.125 C  
HETATM    2  C   UNL     1      -6.016  15.088  69.990  1.00  0.00    -0.142 C  
ENDROOT
BRANCH   2   3
HETATM    3  N   UNL     1      -5.997  14.013  68.984  1.00  0.00    -0.088 NA 
BRANCH   3   4
HETATM    4  C   UNL     1      -6.532  12.727  69.476  1.00  0.00    -0.077 C  
HETATM    5  C   UNL     1      -5.844  12.124  70.701  1.00  0.00    -0.066 C  
ENDBRANCH   3   4
BRANCH   3   6
HETATM    6  C   UNL     1      -6.689  14.424  67.738  1.00  0.00    -0.175 C  
BRANCH   6   7
HETATM    7  C   UNL     1      -8.220  14.263  67.735  1.00  0.00    -0.174 C  
BRANCH   7   8
HETATM    8  N   UNL     1      -8.655  13.124  68.511  1.00  0.00    -0.334 N  
HETATM    9  C   UNL     1      -9.324  12.080  67.923  1.00  0.00    -0.190 C  
HETATM   10  H   UNL     1      -8.462  13.096  69.513  1.00  0.00     0.000 HD 
HETATM   11  O   UNL     1      -9.565  12.056  66.718  1.00  0.00    -0.198 OA 
BRANCH   9  12
HETATM   12  C   UNL     1      -9.697  10.981  68.818  1.00  0.00    -0.199 A  
HETATM   13  C   UNL     1     -10.783  10.893  69.683  1.00  0.00    -0.180 A  
HETATM   14  C   UNL     1     -11.916  11.808  69.992  1.00  0.00    -0.421 C  
HETATM   15  N   UNL     1     -10.735   9.655  70.291  1.00  0.00    -0.258 NA 
HETATM   16  H   UNL     1     -11.397   9.332  70.997  1.00  0.00     0.000 HD 
HETATM   17  C   UNL     1      -9.682   8.920  69.820  1.00  0.00    -0.175 A  
HETATM   18  C   UNL     1      -9.011   9.714  68.899  1.00  0.00    -0.144 A  
HETATM   19  C   UNL     1      -7.792   9.348  68.111  1.00  0.00    -0.087 C  
BRANCH  17  20
HETATM   20  C   UNL     1      -9.412   7.593  70.243  1.00  0.00    -0.161 C  
HETATM   21  C   UNL     1      -8.933   7.129  71.405  1.00  0.00    -0.135 C  
HETATM   22  C   UNL     1      -8.501   7.827  72.668  1.00  0.00    -0.135 C  
HETATM   23  N   UNL     1      -8.091   6.808  73.522  1.00  0.00    -0.105 N  
HETATM   24  O   UNL     1      -8.501   9.018  72.904  1.00  0.00    -0.244 OA 
HETATM   25  C   UNL     1      -8.223   5.557  72.928  1.00  0.00    -0.109 A  
HETATM   26  H   UNL     1      -7.737   6.960  74.467  1.00  0.00     0.000 HD 
HETATM   27  C   UNL     1      -8.735   5.686  71.634  1.00  0.00    -0.136 A  
HETATM   28  C   UNL     1      -8.957   4.567  70.849  1.00  0.00    -0.165 A  
HETATM   29  C   UNL     1      -8.646   3.325  71.393  1.00  0.00    -0.072 A  
HETATM   30  F   UNL     1      -8.846   2.224  70.657  1.00  0.00    -0.089 F  
HETATM   31  C   UNL     1      -8.128   3.197  72.689  1.00  0.00    -0.067 A  
HETATM   32  C   UNL     1      -7.910   4.329  73.480  1.00  0.00    -0.086 A  
ENDBRANCH  17  20
ENDBRANCH   9  12
ENDBRANCH   7   8
ENDBRANCH   6   7
ENDBRANCH   3   6
ENDBRANCH   2   3
TORSDOF 7
ENDMDL
MODEL      251
REMARK 921   NORMALIZED FREE ENERGY PREDICTED BY IDOCK:   -1.13 KCAL/MOL
REMARK 922        TOTAL FREE ENERGY PREDICTED BY IDOCK:   -2.67 KCAL/MOL
REMARK 923 INTER-LIGAND FREE ENERGY PREDICTED BY IDOCK:   -4.45 KCAL/MOL
REMARK 924 INTRA-LIGAND FREE ENERGY PREDICTED BY IDOCK:    1.77 KCAL/MOL
REMARK 927      BINDING AFFINITY PREDICTED BY RF-SCORE:    0.00 PKD
ROOT
HETATM    1  C   UNL     1     -10.317   2.288  62.972  1.00  0.00    -0.133 C  
HETATM    2  C   UNL     1      -8.810   2.372  62.748  1.00  0.00    -0.084 C  
ENDROOT
BRANCH   2   3
HETATM    3  N   UNL     1      -8.042   2.910  63.883  1.00  0.00    -0.082 NA 
BRANCH   3   4
HETATM    4  C   UNL     1      -6.972   3.848  63.488  1.00  0.00    -0.045 C  
HETATM    5  C   UNL     1      -5.548   3.476  63.902  1.00  0.00    -0.013 C  
ENDBRANCH   3   4
BRANCH   3   6
HETATM    6  C   UNL     1      -8.932   3.529  64.895  1.00  0.00    -0.131 C  
BRANCH   6   7
HETATM    7  C   UNL     1     -10.039   4.447  64.345  1.00  0.00     0.019 C  
BRANCH   7   8
HETATM    8  N   UNL     1     -10.205   5.644  65.137  1.00  0.00     0.278 N  
HETATM    9  C   UNL     1     -10.086   5.611  66.504  1.00  0.00    -0.185 C  
HETATM   10  H   UNL     1     -10.415   6.528  64.673  1.00  0.00     0.000 HD 
HETATM   11  O   UNL     1      -9.816   4.577  67.111  1.00  0.00    -0.191 OA 
BRANCH   9  12
HETATM   12  C   UNL     1     -10.264   6.895  67.187  1.00  0.00    -0.308 A  
HETATM   13  C   UNL     1     -10.796   7.144  68.448  1.00  0.00    -0.097 A  
HETATM   14  C   UNL     1     -11.329   6.260  69.522  1.00  0.00    -0.475 C  
HETATM   15  N   UNL     1     -10.727   8.504  68.672  1.00  0.00    -0.413 NA 
HETATM   16  H   UNL     1     -11.073   8.971  69.510  1.00  0.00     0.000 HD 
HETATM   17  C   UNL     1     -10.129   9.142  67.620  1.00  0.00    -0.220 A  
HETATM   18  C   UNL     1      -9.827   8.171  66.674  1.00  0.00    -0.331 A  
HETATM   19  C   UNL     1      -9.162   8.379  65.349  1.00  0.00     0.023 C  
BRANCH  17  20
HETATM   20  C   UNL     1      -9.892  10.540  67.595  1.00  0.00    -0.192 C  
HETATM   21  C   UNL     1      -8.929  11.272  68.171  1.00  0.00    -0.166 C  
HETATM   22  C   UNL     1      -7.766  10.894  69.053  1.00  0.00    -0.135 C  
HETATM   23  N   UNL     1      -7.125  12.094  69.341  1.00  0.00    -0.326 N  
HETATM   24  O   UNL     1      -7.447   9.788  69.439  1.00  0.00    -0.082 OA 
HETATM   25  C   UNL     1      -7.761  13.173  68.734  1.00  0.00    -0.006 A  
HETATM   26  H   UNL     1      -6.291  12.174  69.923  1.00  0.00     0.000 HD 
HETATM   27  C   UNL     1      -8.869  12.735  68.003  1.00  0.00    -0.195 A  
HETATM   28  C   UNL     1      -9.656  13.637  67.308  1.00  0.00    -0.238 A  
HETATM   29  C   UNL     1      -9.306  14.982  67.372  1.00  0.00    -0.201 A  
HETATM   30  F   UNL     1     -10.050  15.880  66.712  1.00  0.00    -0.246 F  
HETATM   31  C   UNL     1      -8.198  15.422  68.109  1.00  0.00    -0.144 A  
HETATM   32  C   UNL     1      -7.403  14.506  68.806  1.00  0.00    -0.129 A  
ENDBRANCH  17  20
ENDBRANCH   9  12
ENDBRANCH   7   8
ENDBRANCH   6   7
ENDBRANCH   3   6
ENDBRANCH   2   3
TORSDOF 7
ENDMDL
MODEL      252
REMARK 921   NORMALIZED FREE ENERGY PREDICTED BY IDOCK:   -0.91 KCAL/MOL
REMARK 922        TOTAL FREE ENERGY PREDICTED BY IDOCK:   -2.37 KCAL/MOL
REMARK 923 INTER-LIGAND FREE ENERGY PREDICTED BY IDOCK:   -3.02 KCAL/MOL
REMARK 924 INTRA-LIGAND FREE ENERGY PREDICTED BY IDOCK:    0.65 KCAL/MOL
REMARK 927      BINDING AFFINITY PREDICTED BY RF-SCORE:    0.00 PKD
ROOT
HETATM    1  C   UNL     1     -10.562   5.130  69.045  1.00  0.00    -0.061 C  
HETATM    2  C   UNL     1      -9.058   4.971  69.248  1.00  0.00    -0.103 C  
ENDROOT
BRANCH   2   3
HETATM    3  N   UNL     1      -8.370   4.195  68.203  1.00  0.00    -0.092 NA 
BRANCH   3   4
HETATM    4  C   UNL     1      -8.539   2.734  68.338  1.00  0.00    -0.080 C  
HETATM    5  C   UNL     1      -9.571   2.256  69.361  1.00  0.00    -0.033 C  
ENDBRANCH   3   4
BRANCH   3   6
HETATM    6  C   UNL     1      -8.764   4.643  66.845  1.00  0.00    -0.107 C  
BRANCH   6   7
HETATM    7  C   UNL     1      -7.782   5.597  66.141  1.00  0.00    -0.095 C  
BRANCH   7   8
HETATM    8  N   UNL     1      -7.720   6.891  66.780  1.00  0.00    -0.100 N  
HETATM    9  C   UNL     1      -8.843   7.667  66.921  1.00  0.00    -0.131 C  
HETATM   10  H   UNL     1      -6.826   7.235  67.132  1.00  0.00     0.000 HD 
HETATM   11  O   UNL     1      -9.948   7.293  66.532  1.00  0.00    -0.190 OA 
BRANCH   9  12
HETATM   12  C   UNL     1      -8.647   8.951  67.599  1.00  0.00    -0.124 A  
HETATM   13  C   UNL     1      -7.521   9.421  68.268  1.00  0.00    -0.078 A  
HETATM   14  C   UNL     1      -6.169   8.847  68.511  1.00  0.00    -0.053 C  
HETATM   15  N   UNL     1      -7.798  10.697  68.712  1.00  0.00    -0.116 NA 
HETATM   16  H   UNL     1      -7.157  11.271  69.259  1.00  0.00     0.000 HD 
HETATM   17  C   UNL     1      -9.048  11.090  68.319  1.00  0.00    -0.158 A  
HETATM   18  C   UNL     1      -9.609  10.027  67.623  1.00  0.00    -0.171 A  
HETATM   19  C   UNL     1     -10.966   9.977  66.993  1.00  0.00    -0.119 C  
BRANCH  17  20
HETATM   20  C   UNL     1      -9.583  12.372  68.605  1.00  0.00    -0.036 C  
HETATM   21  C   UNL     1      -9.666  13.472  67.845  1.00  0.00    -0.225 C  
HETATM   22  C   UNL     1      -9.223  13.758  66.433  1.00  0.00    -0.137 C  
HETATM   23  N   UNL     1      -9.577  15.083  66.204  1.00  0.00    -0.297 N  
HETATM   24  O   UNL     1      -8.671  13.007  65.655  1.00  0.00     0.734 OA 
HETATM   25  C   UNL     1     -10.192  15.649  67.317  1.00  0.00    -0.266 A  
HETATM   26  H   UNL     1      -9.408  15.579  65.329  1.00  0.00     0.000 HD 
HETATM   27  C   UNL     1     -10.278  14.714  68.352  1.00  0.00    -0.235 A  
HETATM   28  C   UNL     1     -10.860  15.052  69.561  1.00  0.00    -0.272 A  
HETATM   29  C   UNL     1     -11.345  16.349  69.704  1.00  0.00    -0.187 A  
HETATM   30  F   UNL     1     -11.910  16.708  70.864  1.00  0.00    -0.259 F  
HETATM   31  C   UNL     1     -11.254  17.288  68.668  1.00  0.00     0.217 A  
HETATM   32  C   UNL     1     -10.669  16.940  67.446  1.00  0.00    -0.241 A  
ENDBRANCH  17  20
ENDBRANCH   9  12
ENDBRANCH   7   8
ENDBRANCH   6   7
ENDBRANCH   3   6
ENDBRANCH   2   3
TORSDOF 7
ENDMDL
MODEL      253
REMARK 921   NORMALIZED FREE ENERGY PREDICTED BY IDOCK:   -0.87 KCAL/MOL
REMARK 922        TOTAL FREE ENERGY PREDICTED BY IDOCK:   -2.32 KCAL/MOL
REMARK 923 INTER-LIGAND FREE ENERGY PREDICTED BY IDOCK:   -4.72 KCAL/MOL
REMARK 924 INTRA-LIGAND FREE ENERGY PREDICTED BY IDOCK:    2.41 KCAL/MOL
REMARK 927      BINDING AFFINITY PREDICTED BY RF-SCORE:    0.00 PKD
ROOT
HETATM    1  C   UNL     1      -6.809   6.826  63.672  1.00  0.00    -0.054 C  
HETATM    2  C   UNL     1      -5.529   7.408  64.263  1.00  0.00    -0.033 C  
ENDROOT
BRANCH   2   3
HETATM    3  N   UNL     1      -5.352   8.856  64.060  1.00  0.00    -0.059 NA 
BRANCH   3   4
HETATM    4  C   UNL     1      -6.452   9.490  63.305  1.00  0.00    -0.101 C  
HETATM    5  C   UNL     1      -6.094  10.729  62.484  1.00  0.00    -0.107 C  
ENDBRANCH   3   4
BRANCH   3   6
HETATM    6  C   UNL     1      -5.128   9.561  65.345  1.00  0.00    -0.039 C  
BRANCH   6   7
HETATM    7  C   UNL     1      -5.512  11.051  65.370  1.00  0.00    -0.008 C  
BRANCH   7   8
HETATM    8  N   UNL     1      -6.715  11.296  66.133  1.00  0.00    -0.357 N  
HETATM    9  C   UNL     1      -7.462  10.258  66.631  1.00  0.00    -0.110 C  
HETATM   10  H   UNL     1      -7.014  12.256  66.305  1.00  0.00     0.000 HD 
HETATM   11  O   UNL     1      -7.137   9.083  66.468  1.00  0.00    -0.079 OA 
BRANCH   9  12
HETATM   12  C   UNL     1      -8.650  10.641  67.398  1.00  0.00    -0.122 A  
HETATM   13  C   UNL     1      -9.793   9.895  67.665  1.00  0.00    -0.163 A  
HETATM   14  C   UNL     1     -10.208   8.508  67.317  1.00  0.00    -0.346 C  
HETATM   15  N   UNL     1     -10.622  10.664  68.455  1.00  0.00    -0.186 NA 
HETATM   16  H   UNL     1     -11.545  10.375  68.778  1.00  0.00     0.000 HD 
HETATM   17  C   UNL     1     -10.040  11.867  68.747  1.00  0.00    -0.120 A  
HETATM   18  C   UNL     1      -8.808  11.890  68.104  1.00  0.00    -0.178 A  
HETATM   19  C   UNL     1      -7.800  12.996  68.126  1.00  0.00    -0.145 C  
BRANCH  17  20
HETATM   20  C   UNL     1     -10.652  12.845  69.573  1.00  0.00     0.383 C  
HETATM   21  C   UNL     1     -11.741  12.772  70.349  1.00  0.00    -0.097 C  
HETATM   22  C   UNL     1     -12.712  11.652  70.623  1.00  0.00    -0.138 C  
HETATM   23  N   UNL     1     -13.640  12.186  71.510  1.00  0.00     0.164 N  
HETATM   24  O   UNL     1     -12.701  10.524  70.172  1.00  0.00    -0.287 OA 
HETATM   25  C   UNL     1     -13.351  13.512  71.817  1.00  0.00    -0.397 A  
HETATM   26  H   UNL     1     -14.434  11.670  71.889  1.00  0.00     0.000 HD 
HETATM   27  C   UNL     1     -12.201  13.927  71.141  1.00  0.00    -0.390 A  
HETATM   28  C   UNL     1     -11.717  15.215  71.297  1.00  0.00    -0.409 A  
HETATM   29  C   UNL     1     -12.420  16.070  72.141  1.00  0.00    -0.454 A  
HETATM   30  F   UNL     1     -11.979  17.323  72.310  1.00  0.00     0.060 F  
HETATM   31  C   UNL     1     -13.576  15.655  72.815  1.00  0.00    -0.678 A  
HETATM   32  C   UNL     1     -14.058  14.352  72.658  1.00  0.00    -0.276 A  
ENDBRANCH  17  20
ENDBRANCH   9  12
ENDBRANCH   7   8
ENDBRANCH   6   7
ENDBRANCH   3   6
ENDBRANCH   2   3
TORSDOF 7
ENDMDL
MODEL      254
REMARK 921   NORMALIZED FREE ENERGY PREDICTED BY IDOCK:    0.58 KCAL/MOL
REMARK 922        TOTAL FREE ENERGY PREDICTED BY IDOCK:   -0.28 KCAL/MOL
REMARK 923 INTER-LIGAND FREE ENERGY PREDICTED BY IDOCK:   -0.04 KCAL/MOL
REMARK 924 INTRA-LIGAND FREE ENERGY PREDICTED BY IDOCK:   -0.24 KCAL/MOL
REMARK 927      BINDING AFFINITY PREDICTED BY RF-SCORE:    0.00 PKD
ROOT
HETATM    1  C   UNL     1      -5.561  14.504  73.508  1.00  0.00    -0.120 C  
HETATM    2  C   UNL     1      -5.872  15.966  73.200  1.00  0.00     2.039 C  
ENDROOT
BRANCH   2   3
HETATM    3  N   UNL     1      -6.025  16.282  71.770  1.00  0.00     1.284 NA 
BRANCH   3   4
HETATM    4  C   UNL     1      -5.831  17.711  71.452  1.00  0.00     0.991 C  
HETATM    5  C   UNL     1      -5.234  18.032  70.081  1.00  0.00    -0.234 C  
ENDBRANCH   3   4
BRANCH   3   6
HETATM    6  C   UNL     1      -5.141  15.436  70.931  1.00  0.00    -0.153 C  
BRANCH   6   7
HETATM    7  C   UNL     1      -5.660  15.119  69.516  1.00  0.00    -0.096 C  
BRANCH   7   8
HETATM    8  N   UNL     1      -6.641  14.058  69.515  1.00  0.00    -0.142 N  
HETATM    9  C   UNL     1      -7.481  13.872  68.446  1.00  0.00    -0.117 C  
HETATM   10  H   UNL     1      -6.710  13.437  70.321  1.00  0.00     0.000 HD 
HETATM   11  O   UNL     1      -7.428  14.580  67.442  1.00  0.00    -0.183 OA 
BRANCH   9  12
HETATM   12  C   UNL     1      -8.420  12.753  68.564  1.00  0.00    -0.044 A  
HETATM   13  C   UNL     1      -9.809  12.768  68.480  1.00  0.00    -0.143 A  
HETATM   14  C   UNL     1     -10.802  13.849  68.231  1.00  0.00    -0.263 C  
HETATM   15  N   UNL     1     -10.252  11.470  68.619  1.00  0.00    -0.209 NA 
HETATM   16  H   UNL     1     -11.233  11.190  68.626  1.00  0.00     0.000 HD 
HETATM   17  C   UNL     1      -9.199  10.605  68.748  1.00  0.00    -0.180 A  
HETATM   18  C   UNL     1      -8.039  11.370  68.718  1.00  0.00    -0.112 A  
HETATM   19  C   UNL     1      -6.630  10.875  68.820  1.00  0.00    -0.059 C  
BRANCH  17  20
HETATM   20  C   UNL     1      -9.359   9.201  68.870  1.00  0.00    -0.146 C  
HETATM   21  C   UNL     1      -9.441   8.248  67.932  1.00  0.00    -0.163 C  
HETATM   22  C   UNL     1      -9.405   8.308  66.427  1.00  0.00    -0.213 C  
HETATM   23  N   UNL     1      -9.543   6.989  66.008  1.00  0.00    -0.402 N  
HETATM   24  O   UNL     1      -9.286   9.288  65.719  1.00  0.00    -0.190 OA 
HETATM   25  C   UNL     1      -9.659   6.119  67.088  1.00  0.00    -0.124 A  
HETATM   26  H   UNL     1      -9.557   6.696  65.031  1.00  0.00     0.000 HD 
HETATM   27  C   UNL     1      -9.601   6.827  68.291  1.00  0.00    -0.127 A  
HETATM   28  C   UNL     1      -9.691   6.165  69.504  1.00  0.00    -0.175 A  
HETATM   29  C   UNL     1      -9.847   4.783  69.475  1.00  0.00    -0.222 A  
HETATM   30  F   UNL     1      -9.940   4.115  70.631  1.00  0.00    -0.255 F  
HETATM   31  C   UNL     1      -9.910   4.073  68.268  1.00  0.00    -0.056 A  
HETATM   32  C   UNL     1      -9.813   4.745  67.046  1.00  0.00    -0.224 A  
ENDBRANCH  17  20
ENDBRANCH   9  12
ENDBRANCH   7   8
ENDBRANCH   6   7
ENDBRANCH   3   6
ENDBRANCH   2   3
TORSDOF 7
ENDMDL
MODEL      255
REMARK 921   NORMALIZED FREE ENERGY PREDICTED BY IDOCK:    1.17 KCAL/MOL
REMARK 922        TOTAL FREE ENERGY PREDICTED BY IDOCK:    0.57 KCAL/MOL
REMARK 923 INTER-LIGAND FREE ENERGY PREDICTED BY IDOCK:    0.07 KCAL/MOL
REMARK 924 INTRA-LIGAND FREE ENERGY PREDICTED BY IDOCK:    0.49 KCAL/MOL
REMARK 927      BINDING AFFINITY PREDICTED BY RF-SCORE:    0.00 PKD
ROOT
HETATM    1  C   UNL     1      -7.779   9.980  73.618  1.00  0.00     4.734 C  
HETATM    2  C   UNL     1      -8.779   8.889  73.245  1.00  0.00     0.768 C  
ENDROOT
BRANCH   2   3
HETATM    3  N   UNL     1      -9.368   9.021  71.902  1.00  0.00    -0.363 NA 
BRANCH   3   4
HETATM    4  C   UNL     1      -8.459   8.615  70.810  1.00  0.00    -0.158 C  
HETATM    5  C   UNL     1      -7.635   9.726  70.158  1.00  0.00    -0.180 C  
ENDBRANCH   3   4
BRANCH   3   6
HETATM    6  C   UNL     1     -10.659   8.296  71.802  1.00  0.00    -0.259 C  
BRANCH   6   7
HETATM    7  C   UNL     1     -11.533   8.646  70.584  1.00  0.00    -0.228 C  
BRANCH   7   8
HETATM    8  N   UNL     1     -11.804  10.062  70.489  1.00  0.00    -0.294 N  
HETATM    9  C   UNL     1     -11.058  10.872  69.670  1.00  0.00    -0.266 C  
HETATM   10  H   UNL     1     -12.562  10.466  71.039  1.00  0.00     0.000 HD 
HETATM   11  O   UNL     1     -10.146  10.434  68.973  1.00  0.00    -0.192 OA 
BRANCH   9  12
HETATM   12  C   UNL     1     -11.443  12.286  69.655  1.00  0.00    -0.285 A  
HETATM   13  C   UNL     1     -12.342  12.953  70.481  1.00  0.00    -0.283 A  
HETATM   14  C   UNL     1     -13.179  12.521  71.634  1.00  0.00    -0.381 C  
HETATM   15  N   UNL     1     -12.349  14.281  70.108  1.00  0.00    -0.340 NA 
HETATM   16  H   UNL     1     -12.940  14.997  70.528  1.00  0.00     0.000 HD 
HETATM   17  C   UNL     1     -11.455  14.509  69.097  1.00  0.00    -0.294 A  
HETATM   18  C   UNL     1     -10.872  13.287  68.787  1.00  0.00    -0.273 A  
HETATM   19  C   UNL     1      -9.828  13.025  67.746  1.00  0.00    -0.224 C  
BRANCH  17  20
HETATM   20  C   UNL     1     -11.226  15.793  68.539  1.00  0.00    -0.354 C  
HETATM   21  C   UNL     1     -10.219  16.657  68.725  1.00  0.00    -0.288 C  
HETATM   22  C   UNL     1      -8.982  16.595  69.584  1.00  0.00     0.499 C  
HETATM   23  N   UNL     1      -8.323  17.798  69.357  1.00  0.00     0.306 N  
HETATM   24  O   UNL     1      -8.627  15.699  70.323  1.00  0.00     0.444 OA 
HETATM   25  C   UNL     1      -9.013  18.598  68.451  1.00  0.00    -0.328 A  
HETATM   26  H   UNL     1      -7.442  18.062  69.799  1.00  0.00     0.000 HD 
HETATM   27  C   UNL     1     -10.179  17.954  68.027  1.00  0.00    -0.381 A  
HETATM   28  C   UNL     1     -11.026  18.561  67.116  1.00  0.00    -0.149 A  
HETATM   29  C   UNL     1     -10.677  19.825  66.651  1.00  0.00    -0.404 A  
HETATM   30  F   UNL     1     -11.479  20.439  65.772  1.00  0.00     0.102 F  
HETATM   31  C   UNL     1      -9.510  20.472  67.081  1.00  0.00    -0.544 A  
HETATM   32  C   UNL     1      -8.655  19.853  67.997  1.00  0.00    -0.311 A  
ENDBRANCH  17  20
ENDBRANCH   9  12
ENDBRANCH   7   8
ENDBRANCH   6   7
ENDBRANCH   3   6
ENDBRANCH   2   3
TORSDOF 7
ENDMDL
MODEL      256
REMARK 921   NORMALIZED FREE ENERGY PREDICTED BY IDOCK:    1.36 KCAL/MOL
REMARK 922        TOTAL FREE ENERGY PREDICTED BY IDOCK:    0.83 KCAL/MOL
REMARK 923 INTER-LIGAND FREE ENERGY PREDICTED BY IDOCK:    0.91 KCAL/MOL
REMARK 924 INTRA-LIGAND FREE ENERGY PREDICTED BY IDOCK:   -0.09 KCAL/MOL
REMARK 927      BINDING AFFINITY PREDICTED BY RF-SCORE:    0.00 PKD
ROOT
HETATM    1  C   UNL     1     -12.025  20.399  66.415  1.00  0.00     3.170 C  
HETATM    2  C   UNL     1     -10.650  20.715  65.833  1.00  0.00     0.643 C  
ENDROOT
BRANCH   2   3
HETATM    3  N   UNL     1      -9.698  19.592  65.842  1.00  0.00    -0.405 NA 
BRANCH   3   4
HETATM    4  C   UNL     1      -8.589  19.759  66.803  1.00  0.00    -0.327 C  
HETATM    5  C   UNL     1      -8.771  19.113  68.177  1.00  0.00    -0.360 C  
ENDBRANCH   3   4
BRANCH   3   6
HETATM    6  C   UNL     1     -10.388  18.298  66.061  1.00  0.00    -0.363 C  
BRANCH   6   7
HETATM    7  C   UNL     1      -9.695  17.058  65.467  1.00  0.00     0.251 C  
BRANCH   7   8
HETATM    8  N   UNL     1      -9.195  16.165  66.486  1.00  0.00    -0.248 N  
HETATM    9  C   UNL     1      -9.728  14.911  66.654  1.00  0.00    -0.261 C  
HETATM   10  H   UNL     1      -8.433  16.471  67.092  1.00  0.00     0.000 HD 
HETATM   11  O   UNL     1     -10.634  14.486  65.940  1.00  0.00    -0.289 OA 
BRANCH   9  12
HETATM   12  C   UNL     1      -9.122  14.101  67.714  1.00  0.00    -0.190 A  
HETATM   13  C   UNL     1      -8.194  14.480  68.678  1.00  0.00    -0.152 A  
HETATM   14  C   UNL     1      -7.527  15.772  68.997  1.00  0.00    -0.186 C  
HETATM   15  N   UNL     1      -7.948  13.383  69.477  1.00  0.00     0.119 NA 
HETATM   16  H   UNL     1      -7.283  13.368  70.251  1.00  0.00     0.000 HD 
HETATM   17  C   UNL     1      -8.714  12.316  69.093  1.00  0.00     0.636 A  
HETATM   18  C   UNL     1      -9.459  12.726  67.995  1.00  0.00    -0.213 A  
HETATM   19  C   UNL     1     -10.449  11.911  67.223  1.00  0.00    -0.248 C  
BRANCH  17  20
HETATM   20  C   UNL     1      -8.693  11.065  69.762  1.00  0.00     0.744 C  
HETATM   21  C   UNL     1      -8.290   9.859  69.342  1.00  0.00    -0.158 C  
HETATM   22  C   UNL     1      -7.729   9.384  68.026  1.00  0.00    -0.084 C  
HETATM   23  N   UNL     1      -7.507   8.022  68.197  1.00  0.00    -0.099 N  
HETATM   24  O   UNL     1      -7.514  10.036  67.025  1.00  0.00    -0.091 OA 
HETATM   25  C   UNL     1      -7.868   7.601  69.474  1.00  0.00    -0.115 A  
HETATM   26  H   UNL     1      -7.127   7.408  67.477  1.00  0.00     0.000 HD 
HETATM   27  C   UNL     1      -8.351   8.678  70.222  1.00  0.00    -0.129 A  
HETATM   28  C   UNL     1      -8.766   8.497  71.530  1.00  0.00    -0.246 A  
HETATM   29  C   UNL     1      -8.690   7.213  72.060  1.00  0.00    -0.122 A  
HETATM   30  F   UNL     1      -9.089   7.005  73.322  1.00  0.00    -0.137 F  
HETATM   31  C   UNL     1      -8.211   6.132  71.308  1.00  0.00    -0.123 A  
HETATM   32  C   UNL     1      -7.787   6.320  69.988  1.00  0.00    -0.106 A  
ENDBRANCH  17  20
ENDBRANCH   9  12
ENDBRANCH   7   8
ENDBRANCH   6   7
ENDBRANCH   3   6
ENDBRANCH   2   3
TORSDOF 7
ENDMDL
MODEL      257
REMARK 921   NORMALIZED FREE ENERGY PREDICTED BY IDOCK:    1.50 KCAL/MOL
REMARK 922        TOTAL FREE ENERGY PREDICTED BY IDOCK:    1.02 KCAL/MOL
REMARK 923 INTER-LIGAND FREE ENERGY PREDICTED BY IDOCK:    1.07 KCAL/MOL
REMARK 924 INTRA-LIGAND FREE ENERGY PREDICTED BY IDOCK:   -0.05 KCAL/MOL
REMARK 927      BINDING AFFINITY PREDICTED BY RF-SCORE:    0.00 PKD
ROOT
HETATM    1  C   UNL     1      -5.561  14.504  73.508  1.00  0.00    -0.120 C  
HETATM    2  C   UNL     1      -5.887  15.960  73.187  1.00  0.00     2.039 C  
ENDROOT
BRANCH   2   3
HETATM    3  N   UNL     1      -6.039  16.262  71.754  1.00  0.00     1.611 NA 
BRANCH   3   4
HETATM    4  C   UNL     1      -5.859  17.690  71.424  1.00  0.00     0.991 C  
HETATM    5  C   UNL     1      -5.262  18.006  70.052  1.00  0.00    -0.219 C  
ENDBRANCH   3   4
BRANCH   3   6
HETATM    6  C   UNL     1      -5.144  15.419  70.924  1.00  0.00    -0.153 C  
BRANCH   6   7
HETATM    7  C   UNL     1      -5.656  15.085  69.511  1.00  0.00    -0.098 C  
BRANCH   7   8
HETATM    8  N   UNL     1      -6.625  14.014  69.516  1.00  0.00    -0.142 N  
HETATM    9  C   UNL     1      -7.461  13.810  68.446  1.00  0.00    -0.119 C  
HETATM   10  H   UNL     1      -6.690  13.399  70.327  1.00  0.00     0.000 HD 
HETATM   11  O   UNL     1      -7.412  14.510  67.437  1.00  0.00    -0.183 OA 
BRANCH   9  12
HETATM   12  C   UNL     1      -8.388  12.682  68.571  1.00  0.00    -0.060 A  
HETATM   13  C   UNL     1      -9.777  12.682  68.484  1.00  0.00    -0.128 A  
HETATM   14  C   UNL     1     -10.781  13.751  68.224  1.00  0.00    -0.264 C  
HETATM   15  N   UNL     1     -10.207  11.380  68.633  1.00  0.00    -0.204 NA 
HETATM   16  H   UNL     1     -11.185  11.091  68.639  1.00  0.00     0.000 HD 
HETATM   17  C   UNL     1      -9.145  10.528  68.771  1.00  0.00    -0.166 A  
HETATM   18  C   UNL     1      -7.994  11.304  68.738  1.00  0.00    -0.137 A  
HETATM   19  C   UNL     1      -6.580  10.825  68.848  1.00  0.00    -0.057 C  
BRANCH  17  20
HETATM   20  C   UNL     1      -9.291   9.123  68.905  1.00  0.00    -0.146 C  
HETATM   21  C   UNL     1      -8.891   8.294  69.878  1.00  0.00    -0.138 C  
HETATM   22  C   UNL     1      -8.144   8.535  71.165  1.00  0.00    -0.133 C  
HETATM   23  N   UNL     1      -8.018   7.280  71.751  1.00  0.00    -0.095 N  
HETATM   24  O   UNL     1      -7.731   9.588  71.606  1.00  0.00    -0.214 OA 
HETATM   25  C   UNL     1      -8.606   6.289  70.970  1.00  0.00    -0.132 A  
HETATM   26  H   UNL     1      -7.554   7.107  72.643  1.00  0.00     0.000 HD 
HETATM   27  C   UNL     1      -9.159   6.846  69.814  1.00  0.00    -0.144 A  
HETATM   28  C   UNL     1      -9.804   6.047  68.886  1.00  0.00    -0.173 A  
HETATM   29  C   UNL     1      -9.873   4.682  69.146  1.00  0.00    -0.172 A  
HETATM   30  F   UNL     1     -10.488   3.882  68.265  1.00  0.00     0.197 F  
HETATM   31  C   UNL     1      -9.314   4.123  70.303  1.00  0.00    -0.232 A  
HETATM   32  C   UNL     1      -8.668   4.934  71.240  1.00  0.00    -0.142 A  
ENDBRANCH  17  20
ENDBRANCH   9  12
ENDBRANCH   7   8
ENDBRANCH   6   7
ENDBRANCH   3   6
ENDBRANCH   2   3
TORSDOF 7
ENDMDL
MODEL      258
REMARK 921   NORMALIZED FREE ENERGY PREDICTED BY IDOCK:    1.60 KCAL/MOL
REMARK 922        TOTAL FREE ENERGY PREDICTED BY IDOCK:    1.17 KCAL/MOL
REMARK 923 INTER-LIGAND FREE ENERGY PREDICTED BY IDOCK:   -0.76 KCAL/MOL
REMARK 924 INTRA-LIGAND FREE ENERGY PREDICTED BY IDOCK:    1.93 KCAL/MOL
REMARK 927      BINDING AFFINITY PREDICTED BY RF-SCORE:    0.00 PKD
ROOT
HETATM    1  C   UNL     1      -5.197  15.205  71.114  1.00  0.00    -0.126 C  
HETATM    2  C   UNL     1      -5.851  15.616  69.798  1.00  0.00    -0.145 C  
ENDROOT
BRANCH   2   3
HETATM    3  N   UNL     1      -6.581  16.894  69.840  1.00  0.00    -0.033 NA 
BRANCH   3   4
HETATM    4  C   UNL     1      -6.068  17.840  70.852  1.00  0.00     0.893 C  
HETATM    5  C   UNL     1      -6.073  17.358  72.304  1.00  0.00     2.834 C  
ENDBRANCH   3   4
BRANCH   3   6
HETATM    6  C   UNL     1      -6.630  17.536  68.504  1.00  0.00    -0.198 C  
BRANCH   6   7
HETATM    7  C   UNL     1      -7.781  17.087  67.585  1.00  0.00    -0.170 C  
BRANCH   7   8
HETATM    8  N   UNL     1      -8.248  15.756  67.898  1.00  0.00    -0.143 N  
HETATM    9  C   UNL     1      -9.590  15.479  67.985  1.00  0.00    -0.203 C  
HETATM   10  H   UNL     1      -7.571  15.011  68.058  1.00  0.00     0.000 HD 
HETATM   11  O   UNL     1     -10.448  16.336  67.784  1.00  0.00    -0.279 OA 
BRANCH   9  12
HETATM   12  C   UNL     1      -9.932  14.088  68.296  1.00  0.00    -0.236 A  
HETATM   13  C   UNL     1     -11.069  13.590  68.923  1.00  0.00    -0.267 A  
HETATM   14  C   UNL     1     -12.302  14.232  69.457  1.00  0.00    -0.272 C  
HETATM   15  N   UNL     1     -10.958  12.215  68.963  1.00  0.00    -0.316 NA 
HETATM   16  H   UNL     1     -11.641  11.592  69.394  1.00  0.00     0.000 HD 
HETATM   17  C   UNL     1      -9.809  11.800  68.347  1.00  0.00    -0.199 A  
HETATM   18  C   UNL     1      -9.142  12.941  67.919  1.00  0.00    -0.201 A  
HETATM   19  C   UNL     1      -7.837  13.001  67.188  1.00  0.00    -0.073 C  
BRANCH  17  20
HETATM   20  C   UNL     1      -9.455  10.433  68.208  1.00  0.00    -0.153 C  
HETATM   21  C   UNL     1      -9.070   9.738  67.129  1.00  0.00    -0.152 C  
HETATM   22  C   UNL     1      -8.884  10.134  65.687  1.00  0.00    -0.165 C  
HETATM   23  N   UNL     1      -8.478   8.971  65.042  1.00  0.00    -0.165 N  
HETATM   24  O   UNL     1      -9.052  11.226  65.182  1.00  0.00    -0.189 OA 
HETATM   25  C   UNL     1      -8.391   7.899  65.925  1.00  0.00    -0.132 A  
HETATM   26  H   UNL     1      -8.269   8.911  64.045  1.00  0.00     0.000 HD 
HETATM   27  C   UNL     1      -8.738   8.305  67.216  1.00  0.00    -0.126 A  
HETATM   28  C   UNL     1      -8.719   7.403  68.267  1.00  0.00    -0.122 A  
HETATM   29  C   UNL     1      -8.350   6.091  67.985  1.00  0.00    -0.116 A  
HETATM   30  F   UNL     1      -8.326   5.195  68.980  1.00  0.00    -0.086 F  
HETATM   31  C   UNL     1      -8.007   5.684  66.689  1.00  0.00    -0.101 A  
HETATM   32  C   UNL     1      -8.023   6.599  65.632  1.00  0.00    -0.115 A  
ENDBRANCH  17  20
ENDBRANCH   9  12
ENDBRANCH   7   8
ENDBRANCH   6   7
ENDBRANCH   3   6
ENDBRANCH   2   3
TORSDOF 7
ENDMDL
MODEL      259
REMARK 921   NORMALIZED FREE ENERGY PREDICTED BY IDOCK:    2.40 KCAL/MOL
REMARK 922        TOTAL FREE ENERGY PREDICTED BY IDOCK:    2.29 KCAL/MOL
REMARK 923 INTER-LIGAND FREE ENERGY PREDICTED BY IDOCK:    0.60 KCAL/MOL
REMARK 924 INTRA-LIGAND FREE ENERGY PREDICTED BY IDOCK:    1.69 KCAL/MOL
REMARK 927      BINDING AFFINITY PREDICTED BY RF-SCORE:    0.00 PKD
ROOT
HETATM    1  C   UNL     1     -12.205   2.539  62.878  1.00  0.00     2.661 C  
HETATM    2  C   UNL     1     -10.710   2.478  62.581  1.00  0.00    -0.167 C  
ENDROOT
BRANCH   2   3
HETATM    3  N   UNL     1      -9.840   2.485  63.768  1.00  0.00    -0.136 NA 
BRANCH   3   4
HETATM    4  C   UNL     1      -8.535   3.141  63.546  1.00  0.00    -0.089 C  
HETATM    5  C   UNL     1      -7.290   2.276  63.751  1.00  0.00    -0.053 C  
ENDBRANCH   3   4
BRANCH   3   6
HETATM    6  C   UNL     1     -10.528   3.076  64.942  1.00  0.00     0.541 C  
BRANCH   6   7
HETATM    7  C   UNL     1     -10.939   4.553  64.806  1.00  0.00     0.095 C  
BRANCH   7   8
HETATM    8  N   UNL     1     -10.262   5.402  65.759  1.00  0.00    -0.420 N  
HETATM    9  C   UNL     1      -9.532   4.868  66.791  1.00  0.00    -0.148 C  
HETATM   10  H   UNL     1     -10.328   6.416  65.664  1.00  0.00     0.000 HD 
HETATM   11  O   UNL     1      -9.406   3.654  66.941  1.00  0.00    -0.173 OA 
BRANCH   9  12
HETATM   12  C   UNL     1      -8.884   5.837  67.679  1.00  0.00    -0.105 A  
HETATM   13  C   UNL     1      -8.229   5.611  68.886  1.00  0.00    -0.100 A  
HETATM   14  C   UNL     1      -7.936   4.380  69.670  1.00  0.00    -0.057 C  
HETATM   15  N   UNL     1      -7.753   6.824  69.338  1.00  0.00    -0.103 NA 
HETATM   16  H   UNL     1      -7.255   6.959  70.218  1.00  0.00     0.000 HD 
HETATM   17  C   UNL     1      -8.037   7.823  68.448  1.00  0.00    -0.124 A  
HETATM   18  C   UNL     1      -8.743   7.246  67.400  1.00  0.00    -0.121 A  
HETATM   19  C   UNL     1      -9.272   7.935  66.181  1.00  0.00    -0.208 C  
BRANCH  17  20
HETATM   20  C   UNL     1      -7.634   9.170  68.638  1.00  0.00    -0.084 C  
HETATM   21  C   UNL     1      -6.825   9.949  67.909  1.00  0.00    -0.076 C  
HETATM   22  C   UNL     1      -6.047   9.692  66.643  1.00  0.00    -0.063 C  
HETATM   23  N   UNL     1      -5.387  10.886  66.374  1.00  0.00    -0.083 N  
HETATM   24  O   UNL     1      -5.996   8.669  65.991  1.00  0.00    -0.047 OA 
HETATM   25  C   UNL     1      -5.670  11.855  67.332  1.00  0.00    -0.113 A  
HETATM   26  H   UNL     1      -4.772  11.033  65.574  1.00  0.00     0.000 HD 
HETATM   27  C   UNL     1      -6.545  11.344  68.295  1.00  0.00    -0.058 A  
HETATM   28  C   UNL     1      -6.973  12.134  69.348  1.00  0.00     0.043 A  
HETATM   29  C   UNL     1      -6.495  13.440  69.411  1.00  0.00    -0.100 A  
HETATM   30  F   UNL     1      -6.888  14.228  70.421  1.00  0.00    -0.117 F  
HETATM   31  C   UNL     1      -5.614  13.950  68.448  1.00  0.00    -0.104 A  
HETATM   32  C   UNL     1      -5.189  13.150  67.383  1.00  0.00     0.106 A  
ENDBRANCH  17  20
ENDBRANCH   9  12
ENDBRANCH   7   8
ENDBRANCH   6   7
ENDBRANCH   3   6
ENDBRANCH   2   3
TORSDOF 7
ENDMDL
MODEL      260
REMARK 921   NORMALIZED FREE ENERGY PREDICTED BY IDOCK:    2.93 KCAL/MOL
REMARK 922        TOTAL FREE ENERGY PREDICTED BY IDOCK:    3.04 KCAL/MOL
REMARK 923 INTER-LIGAND FREE ENERGY PREDICTED BY IDOCK:   -1.72 KCAL/MOL
REMARK 924 INTRA-LIGAND FREE ENERGY PREDICTED BY IDOCK:    4.76 KCAL/MOL
REMARK 927      BINDING AFFINITY PREDICTED BY RF-SCORE:    0.00 PKD
ROOT
HETATM    1  C   UNL     1      -8.711   7.951  69.613  1.00  0.00    -0.134 C  
HETATM    2  C   UNL     1      -8.775   6.731  68.699  1.00  0.00    -0.125 C  
ENDROOT
BRANCH   2   3
HETATM    3  N   UNL     1      -9.491   6.942  67.430  1.00  0.00    -0.129 NA 
BRANCH   3   4
HETATM    4  C   UNL     1      -8.727   6.519  66.239  1.00  0.00    -0.144 C  
HETATM    5  C   UNL     1      -9.423   5.538  65.293  1.00  0.00     0.179 C  
ENDBRANCH   3   4
BRANCH   3   6
HETATM    6  C   UNL     1     -10.828   6.301  67.448  1.00  0.00    -0.363 C  
BRANCH   6   7
HETATM    7  C   UNL     1     -11.698   6.597  68.683  1.00  0.00     0.589 C  
BRANCH   7   8
HETATM    8  N   UNL     1     -11.492   7.932  69.195  1.00  0.00    -0.076 N  
HETATM    9  C   UNL     1     -11.108   8.956  68.366  1.00  0.00     0.264 C  
HETATM   10  H   UNL     1     -11.632   8.117  70.188  1.00  0.00     0.000 HD 
HETATM   11  O   UNL     1     -10.943   8.793  67.159  1.00  0.00    -0.105 OA 
BRANCH   9  12
HETATM   12  C   UNL     1     -10.946  10.264  69.006  1.00  0.00    -0.274 A  
HETATM   13  C   UNL     1     -11.483  10.720  70.206  1.00  0.00    -0.319 A  
HETATM   14  C   UNL     1     -12.348  10.086  71.240  1.00  0.00    -0.496 C  
HETATM   15  N   UNL     1     -11.024  12.004  70.412  1.00  0.00     0.381 NA 
HETATM   16  H   UNL     1     -11.282  12.591  71.204  1.00  0.00     0.000 HD 
HETATM   17  C   UNL     1     -10.173  12.384  69.410  1.00  0.00     0.569 A  
HETATM   18  C   UNL     1     -10.101  11.325  68.514  1.00  0.00    -0.210 A  
HETATM   19  C   UNL     1      -9.293  11.263  67.255  1.00  0.00    -0.173 C  
BRANCH  17  20
HETATM   20  C   UNL     1      -9.522  13.644  69.382  1.00  0.00     0.776 C  
HETATM   21  C   UNL     1     -10.010  14.874  69.171  1.00  0.00    -0.213 C  
HETATM   22  C   UNL     1     -11.403  15.370  68.880  1.00  0.00    -0.314 C  
HETATM   23  N   UNL     1     -11.277  16.749  68.751  1.00  0.00    -0.222 N  
HETATM   24  O   UNL     1     -12.423  14.719  68.773  1.00  0.00    -0.049 OA 
HETATM   25  C   UNL     1      -9.960  17.162  68.932  1.00  0.00    -0.304 A  
HETATM   26  H   UNL     1     -12.053  17.379  68.550  1.00  0.00     0.000 HD 
HETATM   27  C   UNL     1      -9.138  16.062  69.195  1.00  0.00    -0.246 A  
HETATM   28  C   UNL     1      -7.782  16.233  69.415  1.00  0.00    -0.108 A  
HETATM   29  C   UNL     1      -7.277  17.528  69.358  1.00  0.00     0.008 A  
HETATM   30  F   UNL     1      -5.968  17.725  69.562  1.00  0.00    -0.198 F  
HETATM   31  C   UNL     1      -8.100  18.630  69.090  1.00  0.00    -0.035 A  
HETATM   32  C   UNL     1      -9.470  18.453  68.873  1.00  0.00    -0.250 A  
ENDBRANCH  17  20
ENDBRANCH   9  12
ENDBRANCH   7   8
ENDBRANCH   6   7
ENDBRANCH   3   6
ENDBRANCH   2   3
TORSDOF 7
ENDMDL
MODEL      261
REMARK 921   NORMALIZED FREE ENERGY PREDICTED BY IDOCK:    3.54 KCAL/MOL
REMARK 922        TOTAL FREE ENERGY PREDICTED BY IDOCK:    3.91 KCAL/MOL
REMARK 923 INTER-LIGAND FREE ENERGY PREDICTED BY IDOCK:    2.53 KCAL/MOL
REMARK 924 INTRA-LIGAND FREE ENERGY PREDICTED BY IDOCK:    1.37 KCAL/MOL
REMARK 927      BINDING AFFINITY PREDICTED BY RF-SCORE:    0.00 PKD
ROOT
HETATM    1  C   UNL     1      -9.978   4.537  68.581  1.00  0.00    -0.111 C  
HETATM    2  C   UNL     1      -9.332   4.316  69.945  1.00  0.00    -0.162 C  
ENDROOT
BRANCH   2   3
HETATM    3  N   UNL     1      -8.942   5.546  70.654  1.00  0.00    -0.142 NA 
BRANCH   3   4
HETATM    4  C   UNL     1      -7.485   5.793  70.660  1.00  0.00    -0.086 C  
HETATM    5  C   UNL     1      -6.622   4.777  71.410  1.00  0.00    -0.030 C  
ENDBRANCH   3   4
BRANCH   3   6
HETATM    6  C   UNL     1      -9.669   6.728  70.131  1.00  0.00    -0.167 C  
BRANCH   6   7
HETATM    7  C   UNL     1      -9.595   6.943  68.608  1.00  0.00    -0.133 C  
BRANCH   7   8
HETATM    8  N   UNL     1      -9.682   8.338  68.244  1.00  0.00    -0.154 N  
HETATM    9  C   UNL     1     -10.441   8.746  67.176  1.00  0.00    -0.283 C  
HETATM   10  H   UNL     1      -9.171   9.033  68.790  1.00  0.00     0.000 HD 
HETATM   11  O   UNL     1     -11.090   7.954  66.496  1.00  0.00     0.446 OA 
BRANCH   9  12
HETATM   12  C   UNL     1     -10.456  10.189  66.921  1.00  0.00    -0.286 A  
HETATM   13  C   UNL     1     -11.411  10.946  66.250  1.00  0.00     0.315 A  
HETATM   14  C   UNL     1     -12.707  10.606  65.601  1.00  0.00     6.896 C  
HETATM   15  N   UNL     1     -11.009  12.264  66.294  1.00  0.00    -0.278 NA 
HETATM   16  H   UNL     1     -11.509  13.037  65.855  1.00  0.00     0.000 HD 
HETATM   17  C   UNL     1      -9.848  12.397  67.006  1.00  0.00    -0.211 A  
HETATM   18  C   UNL     1      -9.472  11.123  67.413  1.00  0.00    -0.176 A  
HETATM   19  C   UNL     1      -8.268  10.754  68.222  1.00  0.00    -0.124 C  
BRANCH  17  20
HETATM   20  C   UNL     1      -9.223  13.649  67.244  1.00  0.00    -0.232 C  
HETATM   21  C   UNL     1      -9.687  14.755  67.840  1.00  0.00    -0.211 C  
HETATM   22  C   UNL     1     -11.022  15.084  68.459  1.00  0.00    -0.256 C  
HETATM   23  N   UNL     1     -10.900  16.395  68.907  1.00  0.00    -0.313 N  
HETATM   24  O   UNL     1     -12.001  14.372  68.550  1.00  0.00    -0.331 OA 
HETATM   25  C   UNL     1      -9.637  16.914  68.636  1.00  0.00    -0.265 A  
HETATM   26  H   UNL     1     -11.643  16.912  69.377  1.00  0.00     0.000 HD 
HETATM   27  C   UNL     1      -8.849  15.959  67.987  1.00  0.00    -0.178 A  
HETATM   28  C   UNL     1      -7.547  16.251  67.622  1.00  0.00    -0.161 A  
HETATM   29  C   UNL     1      -7.062  17.522  67.918  1.00  0.00    -0.182 A  
HETATM   30  F   UNL     1      -5.807  17.836  67.574  1.00  0.00    -0.137 F  
HETATM   31  C   UNL     1      -7.854  18.480  68.564  1.00  0.00    -0.341 A  
HETATM   32  C   UNL     1      -9.168  18.179  68.936  1.00  0.00    -0.172 A  
ENDBRANCH  17  20
ENDBRANCH   9  12
ENDBRANCH   7   8
ENDBRANCH   6   7
ENDBRANCH   3   6
ENDBRANCH   2   3
TORSDOF 7
ENDMDL
MODEL      262
REMARK 921   NORMALIZED FREE ENERGY PREDICTED BY IDOCK:    3.58 KCAL/MOL
REMARK 922        TOTAL FREE ENERGY PREDICTED BY IDOCK:    3.96 KCAL/MOL
REMARK 923 INTER-LIGAND FREE ENERGY PREDICTED BY IDOCK:    3.31 KCAL/MOL
REMARK 924 INTRA-LIGAND FREE ENERGY PREDICTED BY IDOCK:    0.65 KCAL/MOL
REMARK 927      BINDING AFFINITY PREDICTED BY RF-SCORE:    0.00 PKD
ROOT
HETATM    1  C   UNL     1      -7.253  10.620  73.330  1.00  0.00     6.576 C  
HETATM    2  C   UNL     1      -7.441   9.203  72.795  1.00  0.00     0.773 C  
ENDROOT
BRANCH   2   3
HETATM    3  N   UNL     1      -7.202   9.048  71.351  1.00  0.00    -0.240 NA 
BRANCH   3   4
HETATM    4  C   UNL     1      -5.773   8.954  70.990  1.00  0.00    -0.039 C  
HETATM    5  C   UNL     1      -5.127  10.218  70.420  1.00  0.00    -0.042 C  
ENDBRANCH   3   4
BRANCH   3   6
HETATM    6  C   UNL     1      -7.956   7.897  70.797  1.00  0.00    -0.100 C  
BRANCH   6   7
HETATM    7  C   UNL     1      -8.508   8.080  69.371  1.00  0.00    -0.132 C  
BRANCH   7   8
HETATM    8  N   UNL     1      -9.244   9.313  69.219  1.00  0.00    -0.148 N  
HETATM    9  C   UNL     1      -8.602  10.488  68.912  1.00  0.00    -0.153 C  
HETATM   10  H   UNL     1     -10.256   9.313  69.342  1.00  0.00     0.000 HD 
HETATM   11  O   UNL     1      -7.387  10.541  68.735  1.00  0.00    -0.080 OA 
BRANCH   9  12
HETATM   12  C   UNL     1      -9.465  11.664  68.773  1.00  0.00    -0.068 A  
HETATM   13  C   UNL     1     -10.750  11.866  69.266  1.00  0.00    -0.045 A  
HETATM   14  C   UNL     1     -11.668  11.030  70.089  1.00  0.00    -0.442 C  
HETATM   15  N   UNL     1     -11.142  13.140  68.910  1.00  0.00    -0.264 NA 
HETATM   16  H   UNL     1     -12.055  13.544  69.118  1.00  0.00     0.000 HD 
HETATM   17  C   UNL     1     -10.141  13.789  68.240  1.00  0.00    -0.239 A  
HETATM   18  C   UNL     1      -9.079  12.899  68.135  1.00  0.00    -0.207 A  
HETATM   19  C   UNL     1      -7.753  13.151  67.485  1.00  0.00    -0.168 C  
BRANCH  17  20
HETATM   20  C   UNL     1     -10.253  15.128  67.786  1.00  0.00    -0.236 C  
HETATM   21  C   UNL     1     -10.311  16.279  68.470  1.00  0.00    -0.261 C  
HETATM   22  C   UNL     1     -10.289  16.576  69.947  1.00  0.00    -0.083 C  
HETATM   23  N   UNL     1     -10.387  17.961  70.039  1.00  0.00     0.244 N  
HETATM   24  O   UNL     1     -10.207  15.790  70.869  1.00  0.00     0.236 OA 
HETATM   25  C   UNL     1     -10.466  18.553  68.782  1.00  0.00    -0.016 A  
HETATM   26  H   UNL     1     -10.399  18.478  70.918  1.00  0.00     0.000 HD 
HETATM   27  C   UNL     1     -10.421  17.578  67.782  1.00  0.00    -0.381 A  
HETATM   28  C   UNL     1     -10.480  17.935  66.446  1.00  0.00    -0.318 A  
HETATM   29  C   UNL     1     -10.590  19.289  66.144  1.00  0.00    -0.459 A  
HETATM   30  F   UNL     1     -10.653  19.666  64.861  1.00  0.00    -0.030 F  
HETATM   31  C   UNL     1     -10.639  20.266  67.148  1.00  0.00    -0.210 A  
HETATM   32  C   UNL     1     -10.575  19.901  68.496  1.00  0.00    -0.162 A  
ENDBRANCH  17  20
ENDBRANCH   9  12
ENDBRANCH   7   8
ENDBRANCH   6   7
ENDBRANCH   3   6
ENDBRANCH   2   3
TORSDOF 7
ENDMDL
MODEL      263
REMARK 921   NORMALIZED FREE ENERGY PREDICTED BY IDOCK:    4.71 KCAL/MOL
REMARK 922        TOTAL FREE ENERGY PREDICTED BY IDOCK:    5.55 KCAL/MOL
REMARK 923 INTER-LIGAND FREE ENERGY PREDICTED BY IDOCK:    3.72 KCAL/MOL
REMARK 924 INTRA-LIGAND FREE ENERGY PREDICTED BY IDOCK:    1.83 KCAL/MOL
REMARK 927      BINDING AFFINITY PREDICTED BY RF-SCORE:    0.00 PKD
ROOT
HETATM    1  C   UNL     1     -12.363   2.566  62.947  1.00  0.00     3.317 C  
HETATM    2  C   UNL     1     -10.851   2.424  62.792  1.00  0.00    -0.203 C  
ENDROOT
BRANCH   2   3
HETATM    3  N   UNL     1     -10.104   2.318  64.057  1.00  0.00    -0.105 NA 
BRANCH   3   4
HETATM    4  C   UNL     1      -8.752   2.908  64.001  1.00  0.00    -0.090 C  
HETATM    5  C   UNL     1      -7.837   2.416  62.878  1.00  0.00    -0.063 C  
ENDBRANCH   3   4
BRANCH   3   6
HETATM    6  C   UNL     1     -10.874   2.884  65.191  1.00  0.00     1.694 C  
BRANCH   6   7
HETATM    7  C   UNL     1     -11.180   4.391  65.109  1.00  0.00     0.337 C  
BRANCH   7   8
HETATM    8  N   UNL     1     -10.540   5.140  66.166  1.00  0.00    -0.502 N  
HETATM    9  C   UNL     1      -9.924   4.502  67.213  1.00  0.00    -0.139 C  
HETATM   10  H   UNL     1     -10.546   6.160  66.133  1.00  0.00     0.000 HD 
HETATM   11  O   UNL     1      -9.871   3.277  67.292  1.00  0.00    -0.029 OA 
BRANCH   9  12
HETATM   12  C   UNL     1      -9.301   5.377  68.211  1.00  0.00    -0.135 A  
HETATM   13  C   UNL     1      -8.986   5.100  69.537  1.00  0.00    -0.099 A  
HETATM   14  C   UNL     1      -9.129   3.884  70.385  1.00  0.00    -0.188 C  
HETATM   15  N   UNL     1      -8.382   6.220  70.068  1.00  0.00    -0.127 NA 
HETATM   16  H   UNL     1      -8.072   6.307  71.036  1.00  0.00     0.000 HD 
HETATM   17  C   UNL     1      -8.255   7.201  69.123  1.00  0.00    -0.122 A  
HETATM   18  C   UNL     1      -8.818   6.712  67.951  1.00  0.00    -0.115 A  
HETATM   19  C   UNL     1      -8.915   7.417  66.634  1.00  0.00    -0.168 C  
BRANCH  17  20
HETATM   20  C   UNL     1      -7.636   8.451  69.381  1.00  0.00    -0.091 C  
HETATM   21  C   UNL     1      -7.079   8.934  70.499  1.00  0.00    -0.064 C  
HETATM   22  C   UNL     1      -6.912   8.347  71.878  1.00  0.00    -0.090 C  
HETATM   23  N   UNL     1      -6.260   9.331  72.613  1.00  0.00     0.154 N  
HETATM   24  O   UNL     1      -7.267   7.256  72.275  1.00  0.00    -0.067 OA 
HETATM   25  C   UNL     1      -6.004  10.462  71.843  1.00  0.00     0.638 A  
HETATM   26  H   UNL     1      -6.002   9.236  73.596  1.00  0.00     0.000 HD 
HETATM   27  C   UNL     1      -6.478  10.279  70.541  1.00  0.00    -0.104 A  
HETATM   28  C   UNL     1      -6.329  11.276  69.592  1.00  0.00    -0.124 A  
HETATM   29  C   UNL     1      -5.702  12.454  69.984  1.00  0.00    -0.141 A  
HETATM   30  F   UNL     1      -5.546  13.437  69.089  1.00  0.00    -0.072 F  
HETATM   31  C   UNL     1      -5.231  12.638  71.291  1.00  0.00    -0.149 A  
HETATM   32  C   UNL     1      -5.379  11.627  72.246  1.00  0.00     0.564 A  
ENDBRANCH  17  20
ENDBRANCH   9  12
ENDBRANCH   7   8
ENDBRANCH   6   7
ENDBRANCH   3   6
ENDBRANCH   2   3
TORSDOF 7
ENDMDL
MODEL      264
REMARK 921   NORMALIZED FREE ENERGY PREDICTED BY IDOCK:    7.16 KCAL/MOL
REMARK 922        TOTAL FREE ENERGY PREDICTED BY IDOCK:    9.00 KCAL/MOL
REMARK 923 INTER-LIGAND FREE ENERGY PREDICTED BY IDOCK:    8.90 KCAL/MOL
REMARK 924 INTRA-LIGAND FREE ENERGY PREDICTED BY IDOCK:    0.10 KCAL/MOL
REMARK 927      BINDING AFFINITY PREDICTED BY RF-SCORE:    0.00 PKD
ROOT
HETATM    1  C   UNL     1     -12.133  17.794  73.539  1.00  0.00     1.520 C  
HETATM    2  C   UNL     1     -11.008  18.207  72.595  1.00  0.00     2.956 C  
ENDROOT
BRANCH   2   3
HETATM    3  N   UNL     1     -11.168  17.757  71.202  1.00  0.00     2.000 NA 
BRANCH   3   4
HETATM    4  C   UNL     1     -12.269  16.791  71.012  1.00  0.00     1.693 C  
HETATM    5  C   UNL     1     -12.280  15.574  71.939  1.00  0.00    -0.477 C  
ENDBRANCH   3   4
BRANCH   3   6
HETATM    6  C   UNL     1     -11.315  18.905  70.274  1.00  0.00     4.839 C  
BRANCH   6   7
HETATM    7  C   UNL     1     -10.089  19.222  69.399  1.00  0.00    -0.006 C  
BRANCH   7   8
HETATM    8  N   UNL     1      -9.461  18.029  68.879  1.00  0.00    -0.247 N  
HETATM    9  C   UNL     1      -8.120  17.798  69.059  1.00  0.00    -0.056 C  
HETATM   10  H   UNL     1     -10.023  17.346  68.370  1.00  0.00     0.000 HD 
HETATM   11  O   UNL     1      -7.401  18.578  69.681  1.00  0.00     0.074 OA 
BRANCH   9  12
HETATM   12  C   UNL     1      -7.610  16.545  68.496  1.00  0.00    -0.200 A  
HETATM   13  C   UNL     1      -6.444  16.328  67.768  1.00  0.00    -0.141 A  
HETATM   14  C   UNL     1      -5.333  17.220  67.335  1.00  0.00    -0.153 C  
HETATM   15  N   UNL     1      -6.373  14.981  67.482  1.00  0.00    -0.306 NA 
HETATM   16  H   UNL     1      -5.632  14.544  66.932  1.00  0.00     0.000 HD 
HETATM   17  C   UNL     1      -7.428  14.308  68.034  1.00  0.00    -0.142 A  
HETATM   18  C   UNL     1      -8.222  15.251  68.674  1.00  0.00    -0.159 A  
HETATM   19  C   UNL     1      -9.490  14.999  69.429  1.00  0.00    -0.132 C  
BRANCH  17  20
HETATM   20  C   UNL     1      -7.591  12.902  67.931  1.00  0.00    -0.138 C  
HETATM   21  C   UNL     1      -8.530  12.177  67.308  1.00  0.00    -0.178 C  
HETATM   22  C   UNL     1      -9.746  12.572  66.510  1.00  0.00    -0.246 C  
HETATM   23  N   UNL     1     -10.333  11.371  66.126  1.00  0.00    -0.241 N  
HETATM   24  O   UNL     1     -10.142  13.691  66.253  1.00  0.00    -0.284 OA 
HETATM   25  C   UNL     1      -9.615  10.276  66.597  1.00  0.00    -0.175 A  
HETATM   26  H   UNL     1     -11.184  11.302  65.568  1.00  0.00     0.000 HD 
HETATM   27  C   UNL     1      -8.500  10.703  67.324  1.00  0.00    -0.126 A  
HETATM   28  C   UNL     1      -7.632   9.784  67.887  1.00  0.00    -0.086 A  
HETATM   29  C   UNL     1      -7.915   8.433  67.706  1.00  0.00    -0.111 A  
HETATM   30  F   UNL     1      -7.095   7.520  68.242  1.00  0.00    -0.072 F  
HETATM   31  C   UNL     1      -9.035   8.006  66.981  1.00  0.00    -0.156 A  
HETATM   32  C   UNL     1      -9.907   8.938  66.410  1.00  0.00    -0.353 A  
ENDBRANCH  17  20
ENDBRANCH   9  12
ENDBRANCH   7   8
ENDBRANCH   6   7
ENDBRANCH   3   6
ENDBRANCH   2   3
TORSDOF 7
ENDMDL
MODEL      265
REMARK 921   NORMALIZED FREE ENERGY PREDICTED BY IDOCK:    7.24 KCAL/MOL
REMARK 922        TOTAL FREE ENERGY PREDICTED BY IDOCK:    9.11 KCAL/MOL
REMARK 923 INTER-LIGAND FREE ENERGY PREDICTED BY IDOCK:    7.90 KCAL/MOL
REMARK 924 INTRA-LIGAND FREE ENERGY PREDICTED BY IDOCK:    1.21 KCAL/MOL
REMARK 927      BINDING AFFINITY PREDICTED BY RF-SCORE:    0.00 PKD
ROOT
HETATM    1  C   UNL     1      -7.419  15.299  66.121  1.00  0.00     2.107 C  
HETATM    2  C   UNL     1      -6.351  14.210  66.092  1.00  0.00     5.617 C  
ENDROOT
BRANCH   2   3
HETATM    3  N   UNL     1      -6.770  12.913  66.650  1.00  0.00     0.526 NA 
BRANCH   3   4
HETATM    4  C   UNL     1      -8.099  12.944  67.295  1.00  0.00    -0.163 C  
HETATM    5  C   UNL     1      -9.308  13.051  66.364  1.00  0.00    -0.189 C  
ENDBRANCH   3   4
BRANCH   3   6
HETATM    6  C   UNL     1      -6.709  11.838  65.630  1.00  0.00     1.509 C  
BRANCH   6   7
HETATM    7  C   UNL     1      -5.826  10.627  65.982  1.00  0.00    -0.127 C  
BRANCH   7   8
HETATM    8  N   UNL     1      -6.202  10.019  67.238  1.00  0.00    -0.061 N  
HETATM    9  C   UNL     1      -5.803  10.561  68.434  1.00  0.00    -0.043 C  
HETATM   10  H   UNL     1      -6.772   9.173  67.235  1.00  0.00     0.000 HD 
HETATM   11  O   UNL     1      -5.131  11.588  68.494  1.00  0.00    -0.040 OA 
BRANCH   9  12
HETATM   12  C   UNL     1      -6.262   9.856  69.634  1.00  0.00    -0.047 A  
HETATM   13  C   UNL     1      -6.360  10.328  70.939  1.00  0.00     0.040 A  
HETATM   14  C   UNL     1      -6.078  11.649  71.567  1.00  0.00     1.383 C  
HETATM   15  N   UNL     1      -6.875   9.312  71.716  1.00  0.00    -0.312 NA 
HETATM   16  H   UNL     1      -7.027   9.374  72.723  1.00  0.00     0.000 HD 
HETATM   17  C   UNL     1      -7.157   8.210  70.956  1.00  0.00    -0.056 A  
HETATM   18  C   UNL     1      -6.787   8.511  69.651  1.00  0.00    -0.043 A  
HETATM   19  C   UNL     1      -6.904   7.622  68.453  1.00  0.00    -0.070 C  
BRANCH  17  20
HETATM   20  C   UNL     1      -7.732   7.027  71.488  1.00  0.00    -0.090 C  
HETATM   21  C   UNL     1      -8.863   6.843  72.181  1.00  0.00    -0.136 C  
HETATM   22  C   UNL     1      -9.923   7.804  72.655  1.00  0.00    -0.238 C  
HETATM   23  N   UNL     1     -10.850   7.017  73.330  1.00  0.00    -0.432 N  
HETATM   24  O   UNL     1      -9.970   9.007  72.494  1.00  0.00    -0.062 OA 
HETATM   25  C   UNL     1     -10.482   5.675  73.325  1.00  0.00    -0.231 A  
HETATM   26  H   UNL     1     -11.695   7.378  73.773  1.00  0.00     0.000 HD 
HETATM   27  C   UNL     1      -9.278   5.504  72.636  1.00  0.00    -0.143 A  
HETATM   28  C   UNL     1      -8.717   4.246  72.497  1.00  0.00    -0.112 A  
HETATM   29  C   UNL     1      -9.391   3.172  73.071  1.00  0.00    -0.091 A  
HETATM   30  F   UNL     1      -8.872   1.943  72.957  1.00  0.00    -0.060 F  
HETATM   31  C   UNL     1     -10.596   3.344  73.766  1.00  0.00    -0.279 A  
HETATM   32  C   UNL     1     -11.161   4.616  73.899  1.00  0.00    -0.258 A  
ENDBRANCH  17  20
ENDBRANCH   9  12
ENDBRANCH   7   8
ENDBRANCH   6   7
ENDBRANCH   3   6
ENDBRANCH   2   3
TORSDOF 7
ENDMDL
MODEL      266
REMARK 921   NORMALIZED FREE ENERGY PREDICTED BY IDOCK:    9.06 KCAL/MOL
REMARK 922        TOTAL FREE ENERGY PREDICTED BY IDOCK:   11.68 KCAL/MOL
REMARK 923 INTER-LIGAND FREE ENERGY PREDICTED BY IDOCK:   11.50 KCAL/MOL
REMARK 924 INTRA-LIGAND FREE ENERGY PREDICTED BY IDOCK:    0.18 KCAL/MOL
REMARK 927      BINDING AFFINITY PREDICTED BY RF-SCORE:    0.00 PKD
ROOT
HETATM    1  C   UNL     1     -12.171  20.632  66.282  1.00  0.00     4.653 C  
HETATM    2  C   UNL     1     -10.970  20.671  65.341  1.00  0.00     1.043 C  
ENDROOT
BRANCH   2   3
HETATM    3  N   UNL     1     -10.384  19.357  65.028  1.00  0.00     0.401 NA 
BRANCH   3   4
HETATM    4  C   UNL     1      -9.003  19.188  65.524  1.00  0.00     0.900 C  
HETATM    5  C   UNL     1      -8.811  19.231  67.040  1.00  0.00    -0.325 C  
ENDBRANCH   3   4
BRANCH   3   6
HETATM    6  C   UNL     1     -11.249  18.250  65.502  1.00  0.00     0.932 C  
BRANCH   6   7
HETATM    7  C   UNL     1     -11.057  16.897  64.794  1.00  0.00     0.102 C  
BRANCH   7   8
HETATM    8  N   UNL     1     -10.435  15.912  65.648  1.00  0.00    -0.372 N  
HETATM    9  C   UNL     1     -11.189  15.013  66.359  1.00  0.00    -0.310 C  
HETATM   10  H   UNL     1      -9.418  15.884  65.725  1.00  0.00     0.000 HD 
HETATM   11  O   UNL     1     -12.416  14.990  66.289  1.00  0.00     0.178 OA 
BRANCH   9  12
HETATM   12  C   UNL     1     -10.436  14.058  67.177  1.00  0.00    -0.270 A  
HETATM   13  C   UNL     1      -9.066  13.819  67.198  1.00  0.00    -0.239 A  
HETATM   14  C   UNL     1      -7.917  14.418  66.464  1.00  0.00     0.747 C  
HETATM   15  N   UNL     1      -8.821  12.855  68.153  1.00  0.00    -0.191 NA 
HETATM   16  H   UNL     1      -7.901  12.467  68.362  1.00  0.00     0.000 HD 
HETATM   17  C   UNL     1      -9.979  12.490  68.785  1.00  0.00    -0.015 A  
HETATM   18  C   UNL     1     -11.008  13.219  68.203  1.00  0.00    -0.278 A  
HETATM   19  C   UNL     1     -12.461  13.169  68.558  1.00  0.00     0.386 C  
BRANCH  17  20
HETATM   20  C   UNL     1     -10.020  11.542  69.840  1.00  0.00     1.216 C  
HETATM   21  C   UNL     1     -10.730  10.413  69.970  1.00  0.00    -0.321 C  
HETATM   22  C   UNL     1     -11.738   9.746  69.070  1.00  0.00     0.376 C  
HETATM   23  N   UNL     1     -12.135   8.603  69.755  1.00  0.00     0.260 N  
HETATM   24  O   UNL     1     -12.131  10.116  67.982  1.00  0.00     0.368 OA 
HETATM   25  C   UNL     1     -11.484   8.488  70.980  1.00  0.00    -0.273 A  
HETATM   26  H   UNL     1     -12.818   7.932  69.404  1.00  0.00     0.000 HD 
HETATM   27  C   UNL     1     -10.610   9.562  71.168  1.00  0.00    -0.388 A  
HETATM   28  C   UNL     1      -9.847   9.657  72.319  1.00  0.00     2.211 A  
HETATM   29  C   UNL     1      -9.990   8.654  73.272  1.00  0.00     0.788 A  
HETATM   30  F   UNL     1      -9.268   8.719  74.398  1.00  0.00     0.677 F  
HETATM   31  C   UNL     1     -10.869   7.579  73.085  1.00  0.00    -0.448 A  
HETATM   32  C   UNL     1     -11.634   7.485  71.919  1.00  0.00    -0.312 A  
ENDBRANCH  17  20
ENDBRANCH   9  12
ENDBRANCH   7   8
ENDBRANCH   6   7
ENDBRANCH   3   6
ENDBRANCH   2   3
TORSDOF 7
ENDMDL
MODEL      267
REMARK 921   NORMALIZED FREE ENERGY PREDICTED BY IDOCK:   13.62 KCAL/MOL
REMARK 922        TOTAL FREE ENERGY PREDICTED BY IDOCK:   18.10 KCAL/MOL
REMARK 923 INTER-LIGAND FREE ENERGY PREDICTED BY IDOCK:    8.10 KCAL/MOL
REMARK 924 INTRA-LIGAND FREE ENERGY PREDICTED BY IDOCK:   10.00 KCAL/MOL
REMARK 927      BINDING AFFINITY PREDICTED BY RF-SCORE:    0.00 PKD
ROOT
HETATM    1  C   UNL     1     -12.746   5.447  65.999  1.00  0.00     6.778 C  
HETATM    2  C   UNL     1     -11.574   4.471  66.013  1.00  0.00     2.550 C  
ENDROOT
BRANCH   2   3
HETATM    3  N   UNL     1     -11.157   3.981  64.688  1.00  0.00    -0.246 NA 
BRANCH   3   4
HETATM    4  C   UNL     1     -10.594   5.031  63.815  1.00  0.00     1.511 C  
HETATM    5  C   UNL     1      -9.523   4.589  62.817  1.00  0.00    -0.070 C  
ENDBRANCH   3   4
BRANCH   3   6
HETATM    6  C   UNL     1     -10.218   2.838  64.803  1.00  0.00     0.327 C  
BRANCH   6   7
HETATM    7  C   UNL     1      -8.872   3.000  64.074  1.00  0.00    -0.097 C  
BRANCH   7   8
HETATM    8  N   UNL     1      -8.191   4.220  64.441  1.00  0.00    -0.095 N  
HETATM    9  C   UNL     1      -8.247   4.704  65.724  1.00  0.00    -0.111 C  
HETATM   10  H   UNL     1      -7.660   4.731  63.735  1.00  0.00     0.000 HD 
HETATM   11  O   UNL     1      -8.856   4.119  66.617  1.00  0.00    -0.112 OA 
BRANCH   9  12
HETATM   12  C   UNL     1      -7.502   5.942  65.969  1.00  0.00    -0.085 A  
HETATM   13  C   UNL     1      -6.199   6.263  65.600  1.00  0.00    -0.037 A  
HETATM   14  C   UNL     1      -5.145   5.530  64.845  1.00  0.00    -0.009 C  
HETATM   15  N   UNL     1      -5.950   7.553  66.019  1.00  0.00    -0.037 NA 
HETATM   16  H   UNL     1      -5.059   8.037  65.904  1.00  0.00     0.000 HD 
HETATM   17  C   UNL     1      -7.057   8.098  66.609  1.00  0.00    -0.077 A  
HETATM   18  C   UNL     1      -8.046   7.122  66.597  1.00  0.00    -0.109 A  
HETATM   19  C   UNL     1      -9.440   7.244  67.128  1.00  0.00    -0.180 C  
BRANCH  17  20
HETATM   20  C   UNL     1      -7.099   9.427  67.102  1.00  0.00    -0.086 C  
HETATM   21  C   UNL     1      -8.123  10.284  67.216  1.00  0.00    -0.120 C  
HETATM   22  C   UNL     1      -9.583  10.163  66.862  1.00  0.00    -0.177 C  
HETATM   23  N   UNL     1     -10.142  11.389  67.208  1.00  0.00    -0.190 N  
HETATM   24  O   UNL     1     -10.160   9.211  66.376  1.00  0.00    -0.283 OA 
HETATM   25  C   UNL     1      -9.190  12.254  67.738  1.00  0.00    -0.191 A  
HETATM   26  H   UNL     1     -11.127  11.624  67.088  1.00  0.00     0.000 HD 
HETATM   27  C   UNL     1      -7.937  11.636  67.772  1.00  0.00    -0.131 A  
HETATM   28  C   UNL     1      -6.833  12.308  68.267  1.00  0.00    -0.075 A  
HETATM   29  C   UNL     1      -7.019  13.611  68.719  1.00  0.00    -0.106 A  
HETATM   30  F   UNL     1      -5.969  14.289  69.200  1.00  0.00    -0.085 F  
HETATM   31  C   UNL     1      -8.275  14.232  68.680  1.00  0.00    -0.139 A  
HETATM   32  C   UNL     1      -9.388  13.548  68.184  1.00  0.00    -0.213 A  
ENDBRANCH  17  20
ENDBRANCH   9  12
ENDBRANCH   7   8
ENDBRANCH   6   7
ENDBRANCH   3   6
ENDBRANCH   2   3
TORSDOF 7
ENDMDL
MODEL      268
REMARK 921   NORMALIZED FREE ENERGY PREDICTED BY IDOCK:   25.14 KCAL/MOL
REMARK 922        TOTAL FREE ENERGY PREDICTED BY IDOCK:   34.34 KCAL/MOL
REMARK 923 INTER-LIGAND FREE ENERGY PREDICTED BY IDOCK:   -2.10 KCAL/MOL
REMARK 924 INTRA-LIGAND FREE ENERGY PREDICTED BY IDOCK:   36.44 KCAL/MOL
REMARK 927      BINDING AFFINITY PREDICTED BY RF-SCORE:    0.00 PKD
ROOT
HETATM    1  C   UNL     1      -7.175  14.186  68.434  1.00  0.00    -0.109 C  
HETATM    2  C   UNL     1      -7.283  15.249  69.523  1.00  0.00    -0.205 C  
ENDROOT
BRANCH   2   3
HETATM    3  N   UNL     1      -6.891  16.607  69.109  1.00  0.00    -0.215 NA 
BRANCH   3   4
HETATM    4  C   UNL     1      -5.909  16.632  68.006  1.00  0.00    -0.119 C  
HETATM    5  C   UNL     1      -6.455  16.935  66.610  1.00  0.00    -0.235 C  
ENDBRANCH   3   4
BRANCH   3   6
HETATM    6  C   UNL     1      -8.075  17.434  68.772  1.00  0.00    -0.234 C  
BRANCH   6   7
HETATM    7  C   UNL     1      -8.720  17.159  67.402  1.00  0.00    -0.204 C  
BRANCH   7   8
HETATM    8  N   UNL     1      -8.956  15.752  67.178  1.00  0.00    -0.205 N  
HETATM    9  C   UNL     1      -7.963  14.826  67.382  1.00  0.00    -0.197 C  
HETATM   10  H   UNL     1      -9.875  15.440  66.862  1.00  0.00     0.000 HD 
HETATM   11  O   UNL     1      -6.845  15.144  67.779  1.00  0.00    -0.138 OA 
BRANCH   9  12
HETATM   12  C   UNL     1      -8.336  13.430  67.132  1.00  0.00    -0.149 A  
HETATM   13  C   UNL     1      -8.860  12.862  65.975  1.00  0.00     0.416 A  
HETATM   14  C   UNL     1      -9.197  13.413  64.633  1.00  0.00     1.567 C  
HETATM   15  N   UNL     1      -9.017  11.511  66.204  1.00  0.00    -0.226 NA 
HETATM   16  H   UNL     1      -9.410  10.852  65.533  1.00  0.00     0.000 HD 
HETATM   17  C   UNL     1      -8.573  11.173  67.454  1.00  0.00    -0.137 A  
HETATM   18  C   UNL     1      -8.141  12.345  68.063  1.00  0.00    -0.162 A  
HETATM   19  C   UNL     1      -7.566  12.488  69.437  1.00  0.00     0.513 C  
BRANCH  17  20
HETATM   20  C   UNL     1      -8.579   9.843  67.945  1.00  0.00    -0.125 C  
HETATM   21  C   UNL     1      -9.569   9.116  68.481  1.00  0.00    -0.156 C  
HETATM   22  C   UNL     1     -11.014   9.435  68.767  1.00  0.00    -0.042 C  
HETATM   23  N   UNL     1     -11.535   8.278  69.336  1.00  0.00    -0.190 N  
HETATM   24  O   UNL     1     -11.608  10.473  68.555  1.00  0.00    -0.266 OA 
HETATM   25  C   UNL     1     -10.573   7.277  69.433  1.00  0.00    -0.229 A  
HETATM   26  H   UNL     1     -12.502   8.175  69.644  1.00  0.00     0.000 HD 
HETATM   27  C   UNL     1      -9.351   7.727  68.925  1.00  0.00    -0.146 A  
HETATM   28  C   UNL     1      -8.244   6.897  68.914  1.00  0.00    -0.121 A  
HETATM   29  C   UNL     1      -8.394   5.613  69.429  1.00  0.00    -0.107 A  
HETATM   30  F   UNL     1      -7.340   4.787  69.435  1.00  0.00    -0.050 F  
HETATM   31  C   UNL     1      -9.618   5.164  69.943  1.00  0.00    -0.241 A  
HETATM   32  C   UNL     1     -10.735   6.005  69.948  1.00  0.00    -0.393 A  
ENDBRANCH  17  20
ENDBRANCH   9  12
ENDBRANCH   7   8
ENDBRANCH   6   7
ENDBRANCH   3   6
ENDBRANCH   2   3
TORSDOF 7
ENDMDL
MODEL      269
REMARK 921   NORMALIZED FREE ENERGY PREDICTED BY IDOCK:   38.62 KCAL/MOL
REMARK 922        TOTAL FREE ENERGY PREDICTED BY IDOCK:   53.34 KCAL/MOL
REMARK 923 INTER-LIGAND FREE ENERGY PREDICTED BY IDOCK:   28.97 KCAL/MOL
REMARK 924 INTRA-LIGAND FREE ENERGY PREDICTED BY IDOCK:   24.37 KCAL/MOL
REMARK 927      BINDING AFFINITY PREDICTED BY RF-SCORE:    0.00 PKD
ROOT
HETATM    1  C   UNL     1      -7.140  15.444  66.238  1.00  0.00     2.073 C  
HETATM    2  C   UNL     1      -6.139  14.680  65.378  1.00  0.00    12.358 C  
ENDROOT
BRANCH   2   3
HETATM    3  N   UNL     1      -6.047  13.238  65.664  1.00  0.00     6.189 NA 
BRANCH   3   4
HETATM    4  C   UNL     1      -6.725  12.835  66.913  1.00  0.00     0.454 C  
HETATM    5  C   UNL     1      -6.371  13.630  68.171  1.00  0.00    -0.123 C  
ENDBRANCH   3   4
BRANCH   3   6
HETATM    6  C   UNL     1      -6.532  12.426  64.521  1.00  0.00     7.685 C  
BRANCH   6   7
HETATM    7  C   UNL     1      -6.155  10.934  64.550  1.00  0.00     0.343 C  
BRANCH   7   8
HETATM    8  N   UNL     1      -6.371  10.337  65.848  1.00  0.00    -0.098 N  
HETATM    9  C   UNL     1      -6.422  11.108  66.982  1.00  0.00    -0.107 C  
HETATM   10  H   UNL     1      -6.487   9.326  65.923  1.00  0.00     0.000 HD 
HETATM   11  O   UNL     1      -6.306  12.331  66.947  1.00  0.00    -0.141 OA 
BRANCH   9  12
HETATM   12  C   UNL     1      -6.660  10.381  68.233  1.00  0.00    -0.060 A  
HETATM   13  C   UNL     1      -7.325  10.810  69.377  1.00  0.00    -0.128 A  
HETATM   14  C   UNL     1      -8.025  12.076  69.733  1.00  0.00     1.477 C  
HETATM   15  N   UNL     1      -7.325   9.767  70.279  1.00  0.00    -0.146 NA 
HETATM   16  H   UNL     1      -7.722   9.814  71.217  1.00  0.00     0.000 HD 
HETATM   17  C   UNL     1      -6.720   8.662  69.747  1.00  0.00    -0.042 A  
HETATM   18  C   UNL     1      -6.291   9.007  68.472  1.00  0.00    -0.054 A  
HETATM   19  C   UNL     1      -5.577   8.129  67.492  1.00  0.00    -0.038 C  
BRANCH  17  20
HETATM   20  C   UNL     1      -6.610   7.429  70.441  1.00  0.00    -0.046 C  
HETATM   21  C   UNL     1      -7.312   6.295  70.320  1.00  0.00    -0.089 C  
HETATM   22  C   UNL     1      -8.466   5.912  69.429  1.00  0.00    -0.113 C  
HETATM   23  N   UNL     1      -8.769   4.599  69.773  1.00  0.00    -0.080 N  
HETATM   24  O   UNL     1      -9.022   6.592  68.591  1.00  0.00    -0.125 OA 
HETATM   25  C   UNL     1      -7.931   4.126  70.777  1.00  0.00    -0.056 A  
HETATM   26  H   UNL     1      -9.514   4.051  69.342  1.00  0.00     0.000 HD 
HETATM   27  C   UNL     1      -7.017   5.114  71.152  1.00  0.00    -0.051 A  
HETATM   28  C   UNL     1      -6.075   4.867  72.137  1.00  0.00    -0.025 A  
HETATM   29  C   UNL     1      -6.081   3.610  72.735  1.00  0.00    -0.009 A  
HETATM   30  F   UNL     1      -5.185   3.342  73.693  1.00  0.00     0.000 F  
HETATM   31  C   UNL     1      -7.001   2.621  72.361  1.00  0.00    -0.027 A  
HETATM   32  C   UNL     1      -7.947   2.874  71.363  1.00  0.00    -0.051 A  
ENDBRANCH  17  20
ENDBRANCH   9  12
ENDBRANCH   7   8
ENDBRANCH   6   7
ENDBRANCH   3   6
ENDBRANCH   2   3
TORSDOF 7
ENDMDL
