MODEL        1
REMARK 921   NORMALIZED FREE ENERGY PREDICTED BY IDOCK:   -7.17 KCAL/MOL
REMARK 922        TOTAL FREE ENERGY PREDICTED BY IDOCK:  -10.06 KCAL/MOL
REMARK 923 INTER-LIGAND FREE ENERGY PREDICTED BY IDOCK:   -8.43 KCAL/MOL
REMARK 924 INTRA-LIGAND FREE ENERGY PREDICTED BY IDOCK:   -1.63 KCAL/MOL
REMARK 927      BINDING AFFINITY PREDICTED BY RF-SCORE:    0.00 PKD
ROOT
HETATM    1  C   UNL     1     -10.246  10.525  65.372  1.00  0.00    -0.270 C  
HETATM    2  C   UNL     1      -9.297  10.412  64.157  1.00  0.00    -0.323 C  
HETATM    3  C   UNL     1     -10.993  11.894  65.379  1.00  0.00    -0.352 C  
HETATM    4  C   UNL     1     -10.307  13.123  65.999  1.00  0.00    -0.287 C  
HETATM    5  N   UNL     1      -9.994  12.961  67.408  1.00  0.00    -0.215 NA 
HETATM    6  C   UNL     1      -8.725  12.344  67.766  1.00  0.00    -0.176 C  
HETATM    7  O   UNL     1     -10.777   8.277  66.962  1.00  0.00    -0.307 OA 
HETATM    8  C   UNL     1      -8.417  11.095  66.926  1.00  0.00    -0.147 C  
HETATM    9  C   UNL     1     -10.065   9.149  67.487  1.00  0.00    -0.228 C  
HETATM   10  N   UNL     1      -9.566  10.216  66.666  1.00  0.00    -0.176 N  
ENDROOT
BRANCH   5  11
HETATM   11  C   UNL     1     -10.823  13.308  68.421  1.00  0.00    -0.258 A  
HETATM   12  N   UNL     1     -11.231  14.526  68.729  1.00  0.00    -0.248 NA 
HETATM   13  C   UNL     1     -12.066  13.015  70.162  1.00  0.00    -0.307 A  
HETATM   14  C   UNL     1     -12.763  12.503  71.248  1.00  0.00    -0.350 A  
HETATM   15  C   UNL     1     -12.602  15.305  70.684  1.00  0.00    -0.471 A  
HETATM   16  C   UNL     1     -11.981  14.362  69.856  1.00  0.00    -0.335 A  
HETATM   17  O   UNL     1     -11.329  12.328  69.237  1.00  0.00    -0.255 OA 
HETATM   18 CL   UNL     1     -13.991  15.952  72.904  1.00  0.00    -0.591 Cl 
HETATM   19  C   UNL     1     -13.359  13.456  72.088  1.00  0.00    -0.613 A  
HETATM   20  C   UNL     1     -13.276  14.827  71.813  1.00  0.00    -0.348 A  
ENDBRANCH   5  11
BRANCH   9  21
HETATM   21  C   UNL     1      -9.739   8.977  68.987  1.00  0.00    -0.167 A  
HETATM   22  C   UNL     1     -10.719   9.225  69.958  1.00  0.00    -0.259 A  
HETATM   23  C   UNL     1     -11.856   8.957  72.161  1.00  0.00    -0.417 C  
HETATM   24  C   UNL     1      -8.477   8.649  69.537  1.00  0.00    -0.129 A  
HETATM   25  C   UNL     1      -9.356   8.722  71.854  1.00  0.00    -0.343 A  
HETATM   26  C   UNL     1      -8.292   8.610  70.958  1.00  0.00    -0.193 A  
HETATM   27  C   UNL     1     -10.602   8.984  71.335  1.00  0.00    -0.393 A  
BRANCH  24  28
HETATM   28  N   UNL     1      -7.316   8.299  68.794  1.00  0.00    -0.086 NA 
HETATM   29  N   UNL     1      -7.154   7.105  68.164  1.00  0.00    -0.082 NA 
HETATM   30  C   UNL     1      -5.265   8.302  68.278  1.00  0.00    -0.033 A  
HETATM   31  C   UNL     1      -5.874   7.150  67.785  1.00  0.00    -0.029 A  
HETATM   32  N   UNL     1      -6.152   9.017  68.967  1.00  0.00    -0.043 NA 
ENDBRANCH  24  28
ENDBRANCH   9  21
TORSDOF 3
ENDMDL
MODEL        2
REMARK 921   NORMALIZED FREE ENERGY PREDICTED BY IDOCK:   -7.15 KCAL/MOL
REMARK 922        TOTAL FREE ENERGY PREDICTED BY IDOCK:  -10.03 KCAL/MOL
REMARK 923 INTER-LIGAND FREE ENERGY PREDICTED BY IDOCK:   -8.48 KCAL/MOL
REMARK 924 INTRA-LIGAND FREE ENERGY PREDICTED BY IDOCK:   -1.55 KCAL/MOL
REMARK 927      BINDING AFFINITY PREDICTED BY RF-SCORE:    0.00 PKD
ROOT
HETATM    1  C   UNL     1     -10.200  15.781  67.184  1.00  0.00    -0.279 C  
HETATM    2  C   UNL     1     -10.894  17.083  66.720  1.00  0.00     0.014 C  
HETATM    3  C   UNL     1      -9.411  15.114  66.015  1.00  0.00    -0.358 C  
HETATM    4  C   UNL     1     -10.153  14.185  65.039  1.00  0.00    -0.294 C  
HETATM    5  N   UNL     1     -10.746  13.026  65.683  1.00  0.00    -0.272 NA 
HETATM    6  C   UNL     1     -12.087  13.154  66.236  1.00  0.00    -0.397 C  
HETATM    7  O   UNL     1     -10.093  15.134  69.911  1.00  0.00    -0.220 OA 
HETATM    8  C   UNL     1     -12.275  14.456  67.032  1.00  0.00    -0.239 C  
HETATM    9  C   UNL     1     -10.857  14.436  69.224  1.00  0.00    -0.239 C  
HETATM   10  N   UNL     1     -11.137  14.844  67.876  1.00  0.00    -0.287 N  
ENDROOT
BRANCH   5  11
HETATM   11  C   UNL     1     -10.121  11.835  65.841  1.00  0.00    -0.234 A  
HETATM   12  N   UNL     1     -10.554  10.653  65.443  1.00  0.00    -0.175 NA 
HETATM   13  C   UNL     1      -8.586  10.470  66.505  1.00  0.00    -0.137 A  
HETATM   14  C   UNL     1      -7.467   9.873  67.070  1.00  0.00    -0.091 A  
HETATM   15  C   UNL     1      -9.579   8.375  65.849  1.00  0.00    -0.119 A  
HETATM   16  C   UNL     1      -9.616   9.774  65.897  1.00  0.00    -0.250 A  
HETATM   17  O   UNL     1      -8.899  11.800  66.466  1.00  0.00    -0.186 OA 
HETATM   18 CL   UNL     1      -8.433   6.017  66.484  1.00  0.00    -0.112 Cl 
HETATM   19  C   UNL     1      -7.451   8.470  67.043  1.00  0.00    -0.084 A  
HETATM   20  C   UNL     1      -8.487   7.738  66.449  1.00  0.00    -0.136 A  
ENDBRANCH   5  11
BRANCH   9  21
HETATM   21  C   UNL     1     -11.481  13.200  69.909  1.00  0.00    -0.159 A  
HETATM   22  C   UNL     1     -11.189  11.910  69.445  1.00  0.00    -0.278 A  
HETATM   23  C   UNL     1     -10.874   9.444  69.634  1.00  0.00    -0.245 C  
HETATM   24  C   UNL     1     -12.423  13.215  70.965  1.00  0.00    -0.318 A  
HETATM   25  C   UNL     1     -12.534  10.740  71.035  1.00  0.00    -0.522 A  
HETATM   26  C   UNL     1     -12.991  11.992  71.449  1.00  0.00    -0.362 A  
HETATM   27  C   UNL     1     -11.577  10.704  70.049  1.00  0.00    -0.406 A  
BRANCH  24  28
HETATM   28  N   UNL     1     -12.866  14.373  71.662  1.00  0.00    -0.326 NA 
HETATM   29  N   UNL     1     -12.149  14.984  72.643  1.00  0.00    -0.347 NA 
HETATM   30  C   UNL     1     -14.263  15.711  72.517  1.00  0.00    -0.388 A  
HETATM   31  C   UNL     1     -13.022  15.872  73.127  1.00  0.00    -0.549 A  
HETATM   32  N   UNL     1     -14.197  14.727  71.622  1.00  0.00    -0.485 NA 
ENDBRANCH  24  28
ENDBRANCH   9  21
TORSDOF 3
ENDMDL
MODEL        3
REMARK 921   NORMALIZED FREE ENERGY PREDICTED BY IDOCK:   -6.94 KCAL/MOL
REMARK 922        TOTAL FREE ENERGY PREDICTED BY IDOCK:   -9.79 KCAL/MOL
REMARK 923 INTER-LIGAND FREE ENERGY PREDICTED BY IDOCK:   -8.54 KCAL/MOL
REMARK 924 INTRA-LIGAND FREE ENERGY PREDICTED BY IDOCK:   -1.24 KCAL/MOL
REMARK 927      BINDING AFFINITY PREDICTED BY RF-SCORE:    0.00 PKD
ROOT
HETATM    1  C   UNL     1      -7.572   9.719  67.940  1.00  0.00    -0.086 C  
HETATM    2  C   UNL     1      -6.946   8.436  67.345  1.00  0.00    -0.071 C  
HETATM    3  C   UNL     1      -8.176   9.449  69.352  1.00  0.00    -0.119 C  
HETATM    4  C   UNL     1      -9.604   8.888  69.466  1.00  0.00    -0.171 C  
HETATM    5  N   UNL     1     -10.614   9.755  68.883  1.00  0.00    -0.213 NA 
HETATM    6  C   UNL     1     -10.907   9.615  67.463  1.00  0.00    -0.198 C  
HETATM    7  O   UNL     1      -7.146  12.200  66.705  1.00  0.00    -0.053 OA 
HETATM    8  C   UNL     1      -9.635   9.498  66.607  1.00  0.00    -0.188 C  
HETATM    9  C   UNL     1      -8.293  11.738  66.596  1.00  0.00    -0.136 C  
HETATM   10  N   UNL     1      -8.529  10.381  67.003  1.00  0.00    -0.126 N  
ENDROOT
BRANCH   5  11
HETATM   11  C   UNL     1     -11.279  10.719  69.562  1.00  0.00    -0.281 A  
HETATM   12  N   UNL     1     -11.258  12.017  69.320  1.00  0.00    -0.244 NA 
HETATM   13  C   UNL     1     -12.548  11.553  71.097  1.00  0.00    -0.359 A  
HETATM   14  C   UNL     1     -13.376  11.767  72.191  1.00  0.00    -0.334 A  
HETATM   15  C   UNL     1     -12.290  13.901  70.621  1.00  0.00    -0.451 A  
HETATM   16  C   UNL     1     -12.019  12.563  70.311  1.00  0.00    -0.283 A  
HETATM   17  O   UNL     1     -12.083  10.360  70.615  1.00  0.00    -0.293 OA 
HETATM   18 CL   UNL     1     -13.383  15.785  72.212  1.00  0.00    -0.532 Cl 
HETATM   19  C   UNL     1     -13.620  13.112  72.511  1.00  0.00    -0.595 A  
HETATM   20  C   UNL     1     -13.084  14.155  71.745  1.00  0.00    -0.357 A  
ENDBRANCH   5  11
BRANCH   9  21
HETATM   21  C   UNL     1      -9.366  12.664  65.983  1.00  0.00    -0.074 A  
HETATM   22  C   UNL     1     -10.159  12.221  64.916  1.00  0.00    -0.274 A  
HETATM   23  C   UNL     1     -12.199  12.129  63.485  1.00  0.00    -0.670 C  
HETATM   24  C   UNL     1      -9.611  14.012  66.341  1.00  0.00    -0.283 A  
HETATM   25  C   UNL     1     -11.435  14.226  64.675  1.00  0.00    -0.389 A  
HETATM   26  C   UNL     1     -10.581  14.787  65.626  1.00  0.00    -0.353 A  
HETATM   27  C   UNL     1     -11.250  12.902  64.355  1.00  0.00    -0.389 A  
BRANCH  24  28
HETATM   28  N   UNL     1      -8.993  14.708  67.416  1.00  0.00    -0.185 NA 
HETATM   29  N   UNL     1      -9.587  14.918  68.621  1.00  0.00    -0.216 NA 
HETATM   30  C   UNL     1      -7.723  16.125  68.338  1.00  0.00    -0.154 A  
HETATM   31  C   UNL     1      -8.740  15.761  69.217  1.00  0.00    -0.261 A  
HETATM   32  N   UNL     1      -7.898  15.508  67.172  1.00  0.00    -0.204 NA 
ENDBRANCH  24  28
ENDBRANCH   9  21
TORSDOF 3
ENDMDL
MODEL        4
REMARK 921   NORMALIZED FREE ENERGY PREDICTED BY IDOCK:   -6.91 KCAL/MOL
REMARK 922        TOTAL FREE ENERGY PREDICTED BY IDOCK:   -9.75 KCAL/MOL
REMARK 923 INTER-LIGAND FREE ENERGY PREDICTED BY IDOCK:   -8.08 KCAL/MOL
REMARK 924 INTRA-LIGAND FREE ENERGY PREDICTED BY IDOCK:   -1.67 KCAL/MOL
REMARK 927      BINDING AFFINITY PREDICTED BY RF-SCORE:    0.00 PKD
ROOT
HETATM    1  C   UNL     1      -8.955   9.746  66.943  1.00  0.00    -0.138 C  
HETATM    2  C   UNL     1      -8.207   8.431  67.264  1.00  0.00    -0.112 C  
HETATM    3  C   UNL     1      -8.108  10.665  66.011  1.00  0.00    -0.159 C  
HETATM    4  C   UNL     1      -7.055  11.600  66.630  1.00  0.00    -0.025 C  
HETATM    5  N   UNL     1      -7.615  12.569  67.555  1.00  0.00    -0.145 NA 
HETATM    6  C   UNL     1      -7.772  12.181  68.950  1.00  0.00     0.036 C  
HETATM    7  O   UNL     1     -11.656  10.037  67.640  1.00  0.00    -0.099 OA 
HETATM    8  C   UNL     1      -8.368  10.773  69.107  1.00  0.00    -0.105 C  
HETATM    9  C   UNL     1     -10.854  10.704  68.314  1.00  0.00    -0.241 C  
HETATM   10  N   UNL     1      -9.449  10.442  68.170  1.00  0.00    -0.143 N  
ENDROOT
BRANCH   5  11
HETATM   11  C   UNL     1      -8.043  13.805  67.203  1.00  0.00    -0.075 A  
HETATM   12  N   UNL     1      -7.440  14.953  67.452  1.00  0.00    -0.197 NA 
HETATM   13  C   UNL     1      -9.374  15.283  66.362  1.00  0.00    -0.296 A  
HETATM   14  C   UNL     1     -10.424  15.961  65.760  1.00  0.00    -0.386 A  
HETATM   15  C   UNL     1      -8.229  17.298  67.020  1.00  0.00    -0.233 A  
HETATM   16  C   UNL     1      -8.292  15.900  66.967  1.00  0.00    -0.223 A  
HETATM   17  O   UNL     1      -9.216  13.931  66.502  1.00  0.00    -0.260 OA 
HETATM   18 CL   UNL     1      -9.299  19.732  66.570  1.00  0.00    -0.450 Cl 
HETATM   19  C   UNL     1     -10.366  17.361  65.842  1.00  0.00    -0.276 A  
HETATM   20  C   UNL     1      -9.294  18.014  66.463  1.00  0.00    -0.285 A  
ENDBRANCH   5  11
BRANCH   9  21
HETATM   21  C   UNL     1     -11.453  11.739  69.292  1.00  0.00    -0.369 A  
HETATM   22  C   UNL     1     -11.308  13.111  69.048  1.00  0.00    -0.332 A  
HETATM   23  C   UNL     1     -11.944  15.519  69.159  1.00  0.00    -0.331 C  
HETATM   24  C   UNL     1     -12.107  11.453  70.514  1.00  0.00    -0.394 A  
HETATM   25  C   UNL     1     -12.489  13.857  70.986  1.00  0.00    -0.452 A  
HETATM   26  C   UNL     1     -12.537  12.517  71.373  1.00  0.00    -0.297 A  
HETATM   27  C   UNL     1     -11.908  14.151  69.775  1.00  0.00    -0.381 A  
BRANCH  24  28
HETATM   28  N   UNL     1     -12.437  10.155  70.993  1.00  0.00    -0.345 NA 
HETATM   29  N   UNL     1     -13.710   9.692  71.104  1.00  0.00    -0.216 NA 
HETATM   30  C   UNL     1     -12.208   8.389  72.133  1.00  0.00    -0.374 A  
HETATM   31  C   UNL     1     -13.543   8.544  71.766  1.00  0.00    -0.388 A  
HETATM   32  N   UNL     1     -11.501   9.429  71.697  1.00  0.00    -0.389 NA 
ENDBRANCH  24  28
ENDBRANCH   9  21
TORSDOF 3
ENDMDL
MODEL        5
REMARK 921   NORMALIZED FREE ENERGY PREDICTED BY IDOCK:   -6.85 KCAL/MOL
REMARK 922        TOTAL FREE ENERGY PREDICTED BY IDOCK:   -9.68 KCAL/MOL
REMARK 923 INTER-LIGAND FREE ENERGY PREDICTED BY IDOCK:   -8.09 KCAL/MOL
REMARK 924 INTRA-LIGAND FREE ENERGY PREDICTED BY IDOCK:   -1.58 KCAL/MOL
REMARK 927      BINDING AFFINITY PREDICTED BY RF-SCORE:    0.00 PKD
ROOT
HETATM    1  C   UNL     1     -10.991  13.414  65.603  1.00  0.00    -0.281 C  
HETATM    2  C   UNL     1     -10.336  14.650  64.943  1.00  0.00    -0.382 C  
HETATM    3  C   UNL     1     -11.730  13.803  66.920  1.00  0.00    -0.424 C  
HETATM    4  C   UNL     1     -10.935  13.887  68.234  1.00  0.00    -0.255 C  
HETATM    5  N   UNL     1     -10.313  12.631  68.614  1.00  0.00    -0.212 NA 
HETATM    6  C   UNL     1      -8.989  12.328  68.087  1.00  0.00    -0.192 C  
HETATM    7  O   UNL     1     -11.131  10.982  64.214  1.00  0.00    -0.242 OA 
HETATM    8  C   UNL     1      -8.866  12.640  66.587  1.00  0.00    -0.126 C  
HETATM    9  C   UNL     1     -10.327  11.013  65.161  1.00  0.00    -0.283 C  
HETATM   10  N   UNL     1     -10.035  12.279  65.774  1.00  0.00    -0.252 N  
ENDROOT
BRANCH   5  11
HETATM   11  C   UNL     1     -10.897  11.695  69.399  1.00  0.00    -0.096 A  
HETATM   12  N   UNL     1     -10.598  10.410  69.456  1.00  0.00    -0.232 NA 
HETATM   13  C   UNL     1     -12.297  10.900  70.837  1.00  0.00    -0.400 A  
HETATM   14  C   UNL     1     -13.318  10.706  71.758  1.00  0.00    -0.437 A  
HETATM   15  C   UNL     1     -11.733   8.560  70.721  1.00  0.00    -0.228 A  
HETATM   16  C   UNL     1     -11.505   9.885  70.328  1.00  0.00    -0.281 A  
HETATM   17  O   UNL     1     -11.906  12.071  70.249  1.00  0.00    -0.333 OA 
HETATM   18 CL   UNL     1     -13.152   6.704  72.067  1.00  0.00    -0.197 Cl 
HETATM   19  C   UNL     1     -13.557   9.373  72.125  1.00  0.00    -0.528 A  
HETATM   20  C   UNL     1     -12.784   8.323  71.613  1.00  0.00    -0.327 A  
ENDBRANCH   5  11
BRANCH   9  21
HETATM   21  C   UNL     1      -9.673   9.674  65.568  1.00  0.00    -0.372 A  
HETATM   22  C   UNL     1     -10.315   8.818  66.473  1.00  0.00    -0.254 A  
HETATM   23  C   UNL     1     -10.891   6.625  67.508  1.00  0.00    -0.417 C  
HETATM   24  C   UNL     1      -8.396   9.213  65.170  1.00  0.00    -0.154 A  
HETATM   25  C   UNL     1      -8.636   7.119  66.475  1.00  0.00    -0.130 A  
HETATM   26  C   UNL     1      -7.871   7.987  65.695  1.00  0.00    -0.104 A  
HETATM   27  C   UNL     1      -9.902   7.524  66.825  1.00  0.00    -0.295 A  
BRANCH  24  28
HETATM   28  N   UNL     1      -7.544   9.848  64.224  1.00  0.00    -0.135 NA 
HETATM   29  N   UNL     1      -7.787   9.875  62.887  1.00  0.00    -0.129 NA 
HETATM   30  C   UNL     1      -5.720  10.552  63.418  1.00  0.00    -0.125 A  
HETATM   31  C   UNL     1      -6.653  10.385  62.398  1.00  0.00    -0.139 A  
HETATM   32  N   UNL     1      -6.250  10.165  64.577  1.00  0.00    -0.130 NA 
ENDBRANCH  24  28
ENDBRANCH   9  21
TORSDOF 3
ENDMDL
MODEL        6
REMARK 921   NORMALIZED FREE ENERGY PREDICTED BY IDOCK:   -6.79 KCAL/MOL
REMARK 922        TOTAL FREE ENERGY PREDICTED BY IDOCK:   -9.61 KCAL/MOL
REMARK 923 INTER-LIGAND FREE ENERGY PREDICTED BY IDOCK:   -8.07 KCAL/MOL
REMARK 924 INTRA-LIGAND FREE ENERGY PREDICTED BY IDOCK:   -1.54 KCAL/MOL
REMARK 927      BINDING AFFINITY PREDICTED BY RF-SCORE:    0.00 PKD
ROOT
HETATM    1  C   UNL     1      -9.185   6.991  71.902  1.00  0.00    -0.140 C  
HETATM    2  C   UNL     1      -9.147   5.468  72.165  1.00  0.00    -0.152 C  
HETATM    3  C   UNL     1     -10.039   7.728  72.979  1.00  0.00    -0.382 C  
HETATM    4  C   UNL     1     -11.564   7.818  72.798  1.00  0.00    -0.314 C  
HETATM    5  N   UNL     1     -11.963   8.517  71.589  1.00  0.00    -0.297 NA 
HETATM    6  C   UNL     1     -12.082   7.751  70.357  1.00  0.00     0.201 C  
HETATM    7  O   UNL     1      -7.487   8.136  69.987  1.00  0.00    -0.063 OA 
HETATM    8  C   UNL     1     -10.902   6.788  70.144  1.00  0.00    -0.266 C  
HETATM    9  C   UNL     1      -8.689   8.093  69.679  1.00  0.00    -0.142 C  
HETATM   10  N   UNL     1      -9.582   7.325  70.501  1.00  0.00    -0.169 N  
ENDROOT
BRANCH   5  11
HETATM   11  C   UNL     1     -12.195   9.849  71.516  1.00  0.00    -0.416 A  
HETATM   12  N   UNL     1     -12.966  10.564  72.315  1.00  0.00    -0.260 NA 
HETATM   13  C   UNL     1     -12.064  11.848  70.711  1.00  0.00    -0.226 A  
HETATM   14  C   UNL     1     -11.794  12.981  69.955  1.00  0.00    -0.377 A  
HETATM   15  C   UNL     1     -13.617  12.985  72.161  1.00  0.00    -0.618 A  
HETATM   16  C   UNL     1     -12.930  11.822  71.791  1.00  0.00    -0.361 A  
HETATM   17  O   UNL     1     -11.579  10.582  70.533  1.00  0.00    -0.306 OA 
HETATM   18 CL   UNL     1     -14.282  15.567  71.760  1.00  0.00    -0.588 Cl 
HETATM   19  C   UNL     1     -12.507  14.134  70.315  1.00  0.00    -0.416 A  
HETATM   20  C   UNL     1     -13.403  14.133  71.392  1.00  0.00    -0.331 A  
ENDBRANCH   5  11
BRANCH   9  21
HETATM   21  C   UNL     1      -9.111   8.843  68.396  1.00  0.00    -0.137 A  
HETATM   22  C   UNL     1      -9.128  10.244  68.367  1.00  0.00    -0.136 A  
HETATM   23  C   UNL     1      -8.979  12.497  67.313  1.00  0.00    -0.192 C  
HETATM   24  C   UNL     1      -9.578   8.252  67.198  1.00  0.00    -0.180 A  
HETATM   25  C   UNL     1      -9.867  10.459  66.106  1.00  0.00    -0.278 A  
HETATM   26  C   UNL     1     -10.023   9.072  66.110  1.00  0.00    -0.311 A  
HETATM   27  C   UNL     1      -9.361  11.047  67.241  1.00  0.00    -0.167 A  
BRANCH  24  28
HETATM   28  N   UNL     1      -9.622   6.857  66.925  1.00  0.00    -0.156 NA 
HETATM   29  N   UNL     1      -8.552   6.137  66.494  1.00  0.00    -0.122 NA 
HETATM   30  C   UNL     1     -10.485   5.019  66.333  1.00  0.00    -0.300 A  
HETATM   31  C   UNL     1      -9.101   4.959  66.187  1.00  0.00    -0.135 A  
HETATM   32  N   UNL     1     -10.839   6.234  66.748  1.00  0.00    -0.330 NA 
ENDBRANCH  24  28
ENDBRANCH   9  21
TORSDOF 3
ENDMDL
MODEL        7
REMARK 921   NORMALIZED FREE ENERGY PREDICTED BY IDOCK:   -6.72 KCAL/MOL
REMARK 922        TOTAL FREE ENERGY PREDICTED BY IDOCK:   -9.52 KCAL/MOL
REMARK 923 INTER-LIGAND FREE ENERGY PREDICTED BY IDOCK:   -8.03 KCAL/MOL
REMARK 924 INTRA-LIGAND FREE ENERGY PREDICTED BY IDOCK:   -1.49 KCAL/MOL
REMARK 927      BINDING AFFINITY PREDICTED BY RF-SCORE:    0.00 PKD
ROOT
HETATM    1  C   UNL     1     -11.095  12.052  65.183  1.00  0.00    -0.318 C  
HETATM    2  C   UNL     1     -10.471  12.209  63.776  1.00  0.00    -0.470 C  
HETATM    3  C   UNL     1     -11.866  13.340  65.605  1.00  0.00    -0.419 C  
HETATM    4  C   UNL     1     -11.092  14.502  66.251  1.00  0.00    -0.332 C  
HETATM    5  N   UNL     1     -10.436  14.139  67.495  1.00  0.00    -0.248 NA 
HETATM    6  C   UNL     1      -9.096  13.573  67.429  1.00  0.00    -0.219 C  
HETATM    7  O   UNL     1     -11.137   9.543  66.434  1.00  0.00     0.299 OA 
HETATM    8  C   UNL     1      -8.961  12.503  66.334  1.00  0.00    -0.073 C  
HETATM    9  C   UNL     1     -10.349  10.370  66.920  1.00  0.00    -0.240 C  
HETATM   10  N   UNL     1     -10.106  11.592  66.204  1.00  0.00    -0.221 N  
ENDROOT
BRANCH   5  11
HETATM   11  C   UNL     1     -11.001  14.254  68.720  1.00  0.00    -0.255 A  
HETATM   12  N   UNL     1     -10.759  15.189  69.620  1.00  0.00    -0.267 NA 
HETATM   13  C   UNL     1     -12.255  13.704  70.390  1.00  0.00    -0.363 A  
HETATM   14  C   UNL     1     -13.132  13.082  71.268  1.00  0.00    -0.263 A  
HETATM   15  C   UNL     1     -11.598  15.392  71.979  1.00  0.00    -0.544 A  
HETATM   16  C   UNL     1     -11.510  14.829  70.700  1.00  0.00    -0.234 A  
HETATM   17  O   UNL     1     -11.939  13.332  69.112  1.00  0.00    -0.309 OA 
HETATM   18 CL   UNL     1     -12.522  15.371  74.513  1.00  0.00    -0.727 Cl 
HETATM   19  C   UNL     1     -13.193  13.635  72.556  1.00  0.00    -0.578 A  
HETATM   20  C   UNL     1     -12.438  14.763  72.904  1.00  0.00    -0.337 A  
ENDBRANCH   5  11
BRANCH   9  21
HETATM   21  C   UNL     1      -9.658   9.985  68.246  1.00  0.00    -0.151 A  
HETATM   22  C   UNL     1     -10.389   9.944  69.441  1.00  0.00    -0.238 A  
HETATM   23  C   UNL     1     -10.935   9.169  71.747  1.00  0.00    -0.429 C  
HETATM   24  C   UNL     1      -8.279   9.721  68.425  1.00  0.00    -0.105 A  
HETATM   25  C   UNL     1      -8.574   9.291  70.849  1.00  0.00    -0.220 A  
HETATM   26  C   UNL     1      -7.753   9.462  69.733  1.00  0.00    -0.110 A  
HETATM   27  C   UNL     1      -9.924   9.487  70.683  1.00  0.00    -0.342 A  
BRANCH  24  28
HETATM   28  N   UNL     1      -7.309   9.645  67.387  1.00  0.00    -0.087 NA 
HETATM   29  N   UNL     1      -7.260   8.640  66.472  1.00  0.00    -0.080 NA 
HETATM   30  C   UNL     1      -5.432   9.934  66.456  1.00  0.00    -0.045 A  
HETATM   31  C   UNL     1      -6.103   8.876  65.848  1.00  0.00    -0.052 A  
HETATM   32  N   UNL     1      -6.159  10.400  67.470  1.00  0.00    -0.053 NA 
ENDBRANCH  24  28
ENDBRANCH   9  21
TORSDOF 3
ENDMDL
MODEL        8
REMARK 921   NORMALIZED FREE ENERGY PREDICTED BY IDOCK:   -6.71 KCAL/MOL
REMARK 922        TOTAL FREE ENERGY PREDICTED BY IDOCK:   -9.51 KCAL/MOL
REMARK 923 INTER-LIGAND FREE ENERGY PREDICTED BY IDOCK:   -8.43 KCAL/MOL
REMARK 924 INTRA-LIGAND FREE ENERGY PREDICTED BY IDOCK:   -1.08 KCAL/MOL
REMARK 927      BINDING AFFINITY PREDICTED BY RF-SCORE:    0.00 PKD
ROOT
HETATM    1  C   UNL     1     -11.604  11.942  64.779  1.00  0.00    -0.236 C  
HETATM    2  C   UNL     1     -11.427  12.094  63.250  1.00  0.00    -0.410 C  
HETATM    3  C   UNL     1     -12.774  12.831  65.302  1.00  0.00    -0.332 C  
HETATM    4  C   UNL     1     -12.506  14.308  65.639  1.00  0.00    -0.417 C  
HETATM    5  N   UNL     1     -11.516  14.491  66.685  1.00  0.00    -0.357 NA 
HETATM    6  C   UNL     1     -10.112  14.550  66.304  1.00  0.00    -0.295 C  
HETATM    7  O   UNL     1     -10.232   9.928  66.165  1.00  0.00    -0.250 OA 
HETATM    8  C   UNL     1      -9.730  13.462  65.288  1.00  0.00     0.029 C  
HETATM    9  C   UNL     1      -9.830  11.086  66.366  1.00  0.00    -0.212 C  
HETATM   10  N   UNL     1     -10.328  12.142  65.530  1.00  0.00    -0.255 N  
ENDROOT
BRANCH   5  11
HETATM   11  C   UNL     1     -11.805  14.573  68.006  1.00  0.00    -0.315 A  
HETATM   12  N   UNL     1     -11.783  15.659  68.756  1.00  0.00    -0.377 NA 
HETATM   13  C   UNL     1     -12.337  13.857  69.972  1.00  0.00    -0.316 A  
HETATM   14  C   UNL     1     -12.673  13.093  71.082  1.00  0.00    -0.386 A  
HETATM   15  C   UNL     1     -12.110  15.895  71.235  1.00  0.00    -0.487 A  
HETATM   16  C   UNL     1     -12.073  15.215  70.012  1.00  0.00    -0.345 A  
HETATM   17  O   UNL     1     -12.175  13.436  68.680  1.00  0.00    -0.298 OA 
HETATM   18 CL   UNL     1     -12.384  15.924  73.918  1.00  0.00    -0.662 Cl 
HETATM   19  C   UNL     1     -12.681  13.778  72.307  1.00  0.00    -0.269 A  
HETATM   20  C   UNL     1     -12.401  15.148  72.381  1.00  0.00    -0.363 A  
ENDBRANCH   5  11
BRANCH   9  21
HETATM   21  C   UNL     1      -8.783  11.279  67.485  1.00  0.00    -0.138 A  
HETATM   22  C   UNL     1      -7.664  12.096  67.275  1.00  0.00    -0.168 A  
HETATM   23  C   UNL     1      -5.808  13.623  67.938  1.00  0.00    -0.131 C  
HETATM   24  C   UNL     1      -8.778  10.635  68.746  1.00  0.00    -0.157 A  
HETATM   25  C   UNL     1      -6.692  11.785  69.435  1.00  0.00    -0.098 A  
HETATM   26  C   UNL     1      -7.692  10.838  69.659  1.00  0.00    -0.020 A  
HETATM   27  C   UNL     1      -6.712  12.462  68.239  1.00  0.00    -0.070 A  
BRANCH  24  28
HETATM   28  N   UNL     1      -9.807   9.793  69.249  1.00  0.00    -0.188 NA 
HETATM   29  N   UNL     1     -10.788  10.217  70.089  1.00  0.00    -0.294 NA 
HETATM   30  C   UNL     1     -10.693   7.988  69.904  1.00  0.00    -0.242 A  
HETATM   31  C   UNL     1     -11.381   9.073  70.441  1.00  0.00    -0.210 A  
HETATM   32  N   UNL     1      -9.659   8.424  69.189  1.00  0.00    -0.162 NA 
ENDBRANCH  24  28
ENDBRANCH   9  21
TORSDOF 3
ENDMDL
MODEL        9
REMARK 921   NORMALIZED FREE ENERGY PREDICTED BY IDOCK:   -6.68 KCAL/MOL
REMARK 922        TOTAL FREE ENERGY PREDICTED BY IDOCK:   -9.48 KCAL/MOL
REMARK 923 INTER-LIGAND FREE ENERGY PREDICTED BY IDOCK:   -8.25 KCAL/MOL
REMARK 924 INTRA-LIGAND FREE ENERGY PREDICTED BY IDOCK:   -1.23 KCAL/MOL
REMARK 927      BINDING AFFINITY PREDICTED BY RF-SCORE:    0.00 PKD
ROOT
HETATM    1  C   UNL     1      -6.544  12.799  68.462  1.00  0.00    -0.086 C  
HETATM    2  C   UNL     1      -5.145  12.961  67.824  1.00  0.00    -0.103 C  
HETATM    3  C   UNL     1      -6.548  11.664  69.532  1.00  0.00    -0.111 C  
HETATM    4  C   UNL     1      -6.757  10.208  69.084  1.00  0.00    -0.056 C  
HETATM    5  N   UNL     1      -8.031   9.983  68.423  1.00  0.00    -0.096 NA 
HETATM    6  C   UNL     1      -8.112  10.207  66.986  1.00  0.00    -0.117 C  
HETATM    7  O   UNL     1      -8.545  14.704  67.979  1.00  0.00    -0.150 OA 
HETATM    8  C   UNL     1      -7.421  11.509  66.551  1.00  0.00    -0.022 C  
HETATM    9  C   UNL     1      -8.711  13.602  67.430  1.00  0.00    -0.213 C  
HETATM   10  N   UNL     1      -7.629  12.657  67.445  1.00  0.00    -0.153 N  
ENDROOT
BRANCH   5  11
HETATM   11  C   UNL     1      -9.169   9.616  69.059  1.00  0.00    -0.156 A  
HETATM   12  N   UNL     1     -10.056  10.417  69.621  1.00  0.00    -0.220 NA 
HETATM   13  C   UNL     1     -10.640   8.266  69.880  1.00  0.00    -0.232 A  
HETATM   14  C   UNL     1     -11.370   7.160  70.296  1.00  0.00    -0.305 A  
HETATM   15  C   UNL     1     -12.086   9.845  70.984  1.00  0.00    -0.450 A  
HETATM   16  C   UNL     1     -10.968   9.576  70.185  1.00  0.00    -0.262 A  
HETATM   17  O   UNL     1      -9.485   8.284  69.146  1.00  0.00    -0.154 OA 
HETATM   18 CL   UNL     1     -14.156   9.027  72.507  1.00  0.00    -0.508 Cl 
HETATM   19  C   UNL     1     -12.472   7.438  71.119  1.00  0.00    -0.343 A  
HETATM   20  C   UNL     1     -12.819   8.752  71.458  1.00  0.00    -0.325 A  
ENDBRANCH   5  11
BRANCH   9  21
HETATM   21  C   UNL     1     -10.069  13.364  66.735  1.00  0.00    -0.260 A  
HETATM   22  C   UNL     1     -10.117  12.896  65.415  1.00  0.00    -0.265 A  
HETATM   23  C   UNL     1     -11.101  11.699  63.462  1.00  0.00    -0.476 C  
HETATM   24  C   UNL     1     -11.346  13.646  67.275  1.00  0.00    -0.323 A  
HETATM   25  C   UNL     1     -12.497  12.847  65.230  1.00  0.00    -0.552 A  
HETATM   26  C   UNL     1     -12.526  13.460  66.484  1.00  0.00    -0.255 A  
HETATM   27  C   UNL     1     -11.269  12.514  64.712  1.00  0.00    -0.344 A  
BRANCH  24  28
HETATM   28  N   UNL     1     -11.604  14.081  68.604  1.00  0.00    -0.302 NA 
HETATM   29  N   UNL     1     -11.965  13.248  69.617  1.00  0.00    -0.320 NA 
HETATM   30  C   UNL     1     -12.223  15.413  70.127  1.00  0.00    -0.375 A  
HETATM   31  C   UNL     1     -12.288  14.102  70.592  1.00  0.00    -0.365 A  
HETATM   32  N   UNL     1     -11.843  15.416  68.851  1.00  0.00    -0.349 NA 
ENDBRANCH  24  28
ENDBRANCH   9  21
TORSDOF 3
ENDMDL
MODEL       10
REMARK 921   NORMALIZED FREE ENERGY PREDICTED BY IDOCK:   -6.64 KCAL/MOL
REMARK 922        TOTAL FREE ENERGY PREDICTED BY IDOCK:   -9.43 KCAL/MOL
REMARK 923 INTER-LIGAND FREE ENERGY PREDICTED BY IDOCK:   -7.96 KCAL/MOL
REMARK 924 INTRA-LIGAND FREE ENERGY PREDICTED BY IDOCK:   -1.47 KCAL/MOL
REMARK 927      BINDING AFFINITY PREDICTED BY RF-SCORE:    0.00 PKD
ROOT
HETATM    1  C   UNL     1      -7.635   9.312  66.989  1.00  0.00    -0.091 C  
HETATM    2  C   UNL     1      -7.428   9.960  65.600  1.00  0.00    -0.116 C  
HETATM    3  C   UNL     1      -7.262   7.798  66.967  1.00  0.00    -0.089 C  
HETATM    4  C   UNL     1      -8.310   6.771  66.506  1.00  0.00    -0.121 C  
HETATM    5  N   UNL     1      -9.508   6.759  67.327  1.00  0.00    -0.131 NA 
HETATM    6  C   UNL     1     -10.584   7.680  66.992  1.00  0.00    -0.336 C  
HETATM    7  O   UNL     1      -8.151  10.916  69.230  1.00  0.00    -0.136 OA 
HETATM    8  C   UNL     1     -10.073   9.096  66.680  1.00  0.00    -0.273 C  
HETATM    9  C   UNL     1      -9.113  10.246  68.818  1.00  0.00    -0.159 C  
HETATM   10  N   UNL     1      -8.993   9.579  67.552  1.00  0.00    -0.125 N  
ENDROOT
BRANCH   5  11
HETATM   11  C   UNL     1      -9.681   5.973  68.416  1.00  0.00    -0.125 A  
HETATM   12  N   UNL     1     -10.308   6.294  69.533  1.00  0.00    -0.195 NA 
HETATM   13  C   UNL     1      -9.477   4.212  69.650  1.00  0.00    -0.189 A  
HETATM   14  C   UNL     1      -9.157   2.970  70.182  1.00  0.00    -0.189 A  
HETATM   15  C   UNL     1     -10.522   4.997  71.674  1.00  0.00    -0.232 A  
HETATM   16  C   UNL     1     -10.147   5.207  70.341  1.00  0.00    -0.262 A  
HETATM   17  O   UNL     1      -9.180   4.695  68.405  1.00  0.00    -0.115 OA 
HETATM   18 CL   UNL     1     -10.547   3.497  73.915  1.00  0.00    -0.256 Cl 
HETATM   19  C   UNL     1      -9.512   2.779  71.526  1.00  0.00    -0.212 A  
HETATM   20  C   UNL     1     -10.176   3.773  72.256  1.00  0.00    -0.131 A  
ENDBRANCH   5  11
BRANCH   9  21
HETATM   21  C   UNL     1     -10.382  10.230  69.697  1.00  0.00    -0.281 A  
HETATM   22  C   UNL     1     -10.560   9.234  70.667  1.00  0.00    -0.324 A  
HETATM   23  C   UNL     1     -11.422   8.262  72.795  1.00  0.00    -0.338 C  
HETATM   24  C   UNL     1     -11.487  11.108  69.587  1.00  0.00    -0.310 A  
HETATM   25  C   UNL     1     -12.681  10.000  71.456  1.00  0.00    -0.532 A  
HETATM   26  C   UNL     1     -12.645  10.924  70.411  1.00  0.00    -0.376 A  
HETATM   27  C   UNL     1     -11.593   9.175  71.616  1.00  0.00    -0.449 A  
BRANCH  24  28
HETATM   28  N   UNL     1     -11.563  12.238  68.727  1.00  0.00    -0.306 NA 
HETATM   29  N   UNL     1     -11.528  13.525  69.165  1.00  0.00    -0.278 NA 
HETATM   30  C   UNL     1     -12.138  13.344  67.019  1.00  0.00    -0.339 A  
HETATM   31  C   UNL     1     -11.826  14.214  68.061  1.00  0.00    -0.365 A  
HETATM   32  N   UNL     1     -12.030  12.086  67.439  1.00  0.00    -0.585 NA 
ENDBRANCH  24  28
ENDBRANCH   9  21
TORSDOF 3
ENDMDL
MODEL       11
REMARK 921   NORMALIZED FREE ENERGY PREDICTED BY IDOCK:   -6.61 KCAL/MOL
REMARK 922        TOTAL FREE ENERGY PREDICTED BY IDOCK:   -9.40 KCAL/MOL
REMARK 923 INTER-LIGAND FREE ENERGY PREDICTED BY IDOCK:   -7.99 KCAL/MOL
REMARK 924 INTRA-LIGAND FREE ENERGY PREDICTED BY IDOCK:   -1.41 KCAL/MOL
REMARK 927      BINDING AFFINITY PREDICTED BY RF-SCORE:    0.00 PKD
ROOT
HETATM    1  C   UNL     1      -8.410   6.538  66.936  1.00  0.00    -0.113 C  
HETATM    2  C   UNL     1      -7.257   5.601  67.363  1.00  0.00    -0.076 C  
HETATM    3  C   UNL     1      -8.124   7.189  65.547  1.00  0.00    -0.135 C  
HETATM    4  C   UNL     1      -7.269   8.466  65.475  1.00  0.00    -0.079 C  
HETATM    5  N   UNL     1      -7.840   9.585  66.204  1.00  0.00    -0.100 NA 
HETATM    6  C   UNL     1      -7.528   9.718  67.620  1.00  0.00    -0.091 C  
HETATM    7  O   UNL     1     -10.820   6.556  68.370  1.00  0.00    -0.250 OA 
HETATM    8  C   UNL     1      -7.631   8.383  68.375  1.00  0.00    -0.097 C  
HETATM    9  C   UNL     1     -10.106   7.562  68.510  1.00  0.00    -0.184 C  
HETATM   10  N   UNL     1      -8.766   7.533  67.992  1.00  0.00    -0.122 N  
ENDROOT
BRANCH   5  11
HETATM   11  C   UNL     1      -8.681  10.499  65.665  1.00  0.00    -0.180 A  
HETATM   12  N   UNL     1      -8.793  11.770  66.005  1.00  0.00    -0.118 NA 
HETATM   13  C   UNL     1     -10.251  11.243  64.383  1.00  0.00    -0.320 A  
HETATM   14  C   UNL     1     -11.277  11.396  63.460  1.00  0.00    -0.322 A  
HETATM   15  C   UNL     1     -10.438  13.496  65.215  1.00  0.00    -0.345 A  
HETATM   16  C   UNL     1      -9.814  12.243  65.235  1.00  0.00    -0.180 A  
HETATM   17  O   UNL     1      -9.520  10.118  64.648  1.00  0.00    -0.252 OA 
HETATM   18 CL   UNL     1     -12.355  15.170  64.321  1.00  0.00    -0.370 Cl 
HETATM   19  C   UNL     1     -11.914  12.646  63.466  1.00  0.00    -0.630 A  
HETATM   20  C   UNL     1     -11.506  13.671  64.329  1.00  0.00    -0.366 A  
ENDBRANCH   5  11
BRANCH   9  21
HETATM   21  C   UNL     1     -10.718   8.753  69.279  1.00  0.00    -0.166 A  
HETATM   22  C   UNL     1     -10.868   9.999  68.655  1.00  0.00    -0.265 A  
HETATM   23  C   UNL     1     -11.909  12.227  68.249  1.00  0.00    -0.367 C  
HETATM   24  C   UNL     1     -11.103   8.761  70.641  1.00  0.00    -0.246 A  
HETATM   25  C   UNL     1     -11.838  11.125  70.524  1.00  0.00    -0.448 A  
HETATM   26  C   UNL     1     -11.576   9.966  71.255  1.00  0.00    -0.456 A  
HETATM   27  C   UNL     1     -11.523  11.120  69.186  1.00  0.00    -0.366 A  
BRANCH  24  28
HETATM   28  N   UNL     1     -11.108   7.631  71.506  1.00  0.00    -0.234 NA 
HETATM   29  N   UNL     1     -12.067   6.668  71.486  1.00  0.00    -0.350 NA 
HETATM   30  C   UNL     1     -10.730   6.538  73.277  1.00  0.00    -0.274 A  
HETATM   31  C   UNL     1     -11.775   5.947  72.571  1.00  0.00    -0.236 A  
HETATM   32  N   UNL     1     -10.330   7.639  72.643  1.00  0.00    -0.249 NA 
ENDBRANCH  24  28
ENDBRANCH   9  21
TORSDOF 3
ENDMDL
MODEL       12
REMARK 921   NORMALIZED FREE ENERGY PREDICTED BY IDOCK:   -6.61 KCAL/MOL
REMARK 922        TOTAL FREE ENERGY PREDICTED BY IDOCK:   -9.40 KCAL/MOL
REMARK 923 INTER-LIGAND FREE ENERGY PREDICTED BY IDOCK:   -7.86 KCAL/MOL
REMARK 924 INTRA-LIGAND FREE ENERGY PREDICTED BY IDOCK:   -1.54 KCAL/MOL
REMARK 927      BINDING AFFINITY PREDICTED BY RF-SCORE:    0.00 PKD
ROOT
HETATM    1  C   UNL     1      -9.903   8.624  66.454  1.00  0.00    -0.270 C  
HETATM    2  C   UNL     1      -8.733   8.199  65.536  1.00  0.00    -0.152 C  
HETATM    3  C   UNL     1     -10.328  10.100  66.179  1.00  0.00    -0.237 C  
HETATM    4  C   UNL     1      -9.572  11.244  66.877  1.00  0.00    -0.191 C  
HETATM    5  N   UNL     1      -9.649  11.188  68.326  1.00  0.00    -0.178 NA 
HETATM    6  C   UNL     1      -8.660  10.393  69.040  1.00  0.00    -0.157 C  
HETATM    7  O   UNL     1     -11.256   6.710  67.993  1.00  0.00    -0.239 OA 
HETATM    8  C   UNL     1      -8.425   9.020  68.389  1.00  0.00    -0.129 C  
HETATM    9  C   UNL     1     -10.526   7.489  68.628  1.00  0.00    -0.183 C  
HETATM   10  N   UNL     1      -9.634   8.345  67.897  1.00  0.00    -0.153 N  
ENDROOT
BRANCH   5  11
HETATM   11  C   UNL     1     -10.607  11.796  69.065  1.00  0.00    -0.136 A  
HETATM   12  N   UNL     1     -11.034  13.040  68.940  1.00  0.00    -0.245 NA 
HETATM   13  C   UNL     1     -12.088  11.995  70.624  1.00  0.00    -0.274 A  
HETATM   14  C   UNL     1     -12.940  11.808  71.704  1.00  0.00    -0.467 A  
HETATM   15  C   UNL     1     -12.654  14.323  70.367  1.00  0.00    -0.405 A  
HETATM   16  C   UNL     1     -11.938  13.195  69.949  1.00  0.00    -0.317 A  
HETATM   17  O   UNL     1     -11.239  11.086  70.055  1.00  0.00    -0.273 OA 
HETATM   18 CL   UNL     1     -14.332  15.558  72.080  1.00  0.00    -0.635 Cl 
HETATM   19  C   UNL     1     -13.633  12.950  72.133  1.00  0.00    -0.589 A  
HETATM   20  C   UNL     1     -13.489  14.181  71.481  1.00  0.00    -0.344 A  
ENDBRANCH   5  11
BRANCH   9  21
HETATM   21  C   UNL     1     -10.615   7.433  70.169  1.00  0.00    -0.240 A  
HETATM   22  C   UNL     1     -11.652   8.092  70.844  1.00  0.00    -0.283 A  
HETATM   23  C   UNL     1     -13.273   8.477  72.698  1.00  0.00    -0.198 C  
HETATM   24  C   UNL     1      -9.682   6.821  71.039  1.00  0.00    -0.174 A  
HETATM   25  C   UNL     1     -10.981   7.467  73.049  1.00  0.00    -0.422 A  
HETATM   26  C   UNL     1      -9.839   6.921  72.459  1.00  0.00    -0.174 A  
HETATM   27  C   UNL     1     -11.927   8.016  72.217  1.00  0.00    -0.412 A  
BRANCH  24  28
HETATM   28  N   UNL     1      -8.562   6.042  70.635  1.00  0.00    -0.133 NA 
HETATM   29  N   UNL     1      -8.639   4.728  70.296  1.00  0.00    -0.089 NA 
HETATM   30  C   UNL     1      -6.535   5.444  70.567  1.00  0.00    -0.031 A  
HETATM   31  C   UNL     1      -7.353   4.381  70.191  1.00  0.00    -0.046 A  
HETATM   32  N   UNL     1      -7.287   6.489  70.905  1.00  0.00    -0.081 NA 
ENDBRANCH  24  28
ENDBRANCH   9  21
TORSDOF 3
ENDMDL
MODEL       13
REMARK 921   NORMALIZED FREE ENERGY PREDICTED BY IDOCK:   -6.58 KCAL/MOL
REMARK 922        TOTAL FREE ENERGY PREDICTED BY IDOCK:   -9.35 KCAL/MOL
REMARK 923 INTER-LIGAND FREE ENERGY PREDICTED BY IDOCK:   -8.43 KCAL/MOL
REMARK 924 INTRA-LIGAND FREE ENERGY PREDICTED BY IDOCK:   -0.93 KCAL/MOL
REMARK 927      BINDING AFFINITY PREDICTED BY RF-SCORE:    0.00 PKD
ROOT
HETATM    1  C   UNL     1      -9.112  10.396  68.060  1.00  0.00    -0.136 C  
HETATM    2  C   UNL     1      -9.105   9.074  67.257  1.00  0.00    -0.151 C  
HETATM    3  C   UNL     1      -9.780  10.203  69.456  1.00  0.00    -0.251 C  
HETATM    4  C   UNL     1     -11.310  10.304  69.579  1.00  0.00    -0.241 C  
HETATM    5  N   UNL     1     -11.838  11.598  69.184  1.00  0.00    -0.316 NA 
HETATM    6  C   UNL     1     -12.156  11.815  67.780  1.00  0.00     0.138 C  
HETATM    7  O   UNL     1      -7.641  12.605  67.155  1.00  0.00    -0.139 OA 
HETATM    8  C   UNL     1     -11.059  11.291  66.839  1.00  0.00    -0.275 C  
HETATM    9  C   UNL     1      -8.875  12.705  67.054  1.00  0.00    -0.212 C  
HETATM   10  N   UNL     1      -9.681  11.539  67.284  1.00  0.00    -0.182 N  
ENDROOT
BRANCH   5  11
HETATM   11  C   UNL     1     -12.020  12.640  70.030  1.00  0.00    -0.306 A  
HETATM   12  N   UNL     1     -11.360  13.784  70.030  1.00  0.00    -0.099 NA 
HETATM   13  C   UNL     1     -12.866  13.726  71.693  1.00  0.00    -0.352 A  
HETATM   14  C   UNL     1     -13.584  14.136  72.808  1.00  0.00    -0.528 A  
HETATM   15  C   UNL     1     -11.478  15.695  71.656  1.00  0.00    -0.506 A  
HETATM   16  C   UNL     1     -11.852  14.464  71.105  1.00  0.00    -0.251 A  
HETATM   17  O   UNL     1     -12.986  12.553  71.000  1.00  0.00    -0.208 OA 
HETATM   18 CL   UNL     1     -11.675  17.589  73.566  1.00  0.00     0.389 Cl 
HETATM   19  C   UNL     1     -13.184  15.358  73.369  1.00  0.00    -0.570 A  
HETATM   20  C   UNL     1     -12.151  16.118  72.807  1.00  0.00    -0.553 A  
ENDBRANCH   5  11
BRANCH   9  21
HETATM   21  C   UNL     1      -9.433  14.085  66.641  1.00  0.00    -0.300 A  
HETATM   22  C   UNL     1      -9.243  15.202  67.465  1.00  0.00    -0.188 A  
HETATM   23  C   UNL     1      -8.973  17.626  67.981  1.00  0.00    -0.264 C  
HETATM   24  C   UNL     1     -10.223  14.359  65.499  1.00  0.00    -0.363 A  
HETATM   25  C   UNL     1     -10.392  16.765  66.072  1.00  0.00    -0.346 A  
HETATM   26  C   UNL     1     -10.753  15.673  65.282  1.00  0.00    -0.444 A  
HETATM   27  C   UNL     1      -9.578  16.528  67.154  1.00  0.00    -0.243 A  
BRANCH  24  28
HETATM   28  N   UNL     1     -10.534  13.433  64.466  1.00  0.00    -0.421 NA 
HETATM   29  N   UNL     1     -11.803  13.105  64.102  1.00  0.00    -0.403 NA 
HETATM   30  C   UNL     1     -10.257  11.746  63.220  1.00  0.00    -0.416 A  
HETATM   31  C   UNL     1     -11.607  12.083  63.263  1.00  0.00    -0.319 A  
HETATM   32  N   UNL     1      -9.567  12.557  64.020  1.00  0.00     0.029 NA 
ENDBRANCH  24  28
ENDBRANCH   9  21
TORSDOF 3
ENDMDL
MODEL       14
REMARK 921   NORMALIZED FREE ENERGY PREDICTED BY IDOCK:   -6.49 KCAL/MOL
REMARK 922        TOTAL FREE ENERGY PREDICTED BY IDOCK:   -9.25 KCAL/MOL
REMARK 923 INTER-LIGAND FREE ENERGY PREDICTED BY IDOCK:   -7.64 KCAL/MOL
REMARK 924 INTRA-LIGAND FREE ENERGY PREDICTED BY IDOCK:   -1.61 KCAL/MOL
REMARK 927      BINDING AFFINITY PREDICTED BY RF-SCORE:    0.00 PKD
ROOT
HETATM    1  C   UNL     1      -8.049   8.645  67.166  1.00  0.00    -0.100 C  
HETATM    2  C   UNL     1      -7.050   7.549  67.604  1.00  0.00    -0.085 C  
HETATM    3  C   UNL     1      -7.382   9.654  66.181  1.00  0.00    -0.098 C  
HETATM    4  C   UNL     1      -6.576  10.836  66.745  1.00  0.00    -0.105 C  
HETATM    5  N   UNL     1      -7.363  11.727  67.580  1.00  0.00    -0.118 NA 
HETATM    6  C   UNL     1      -7.484  11.417  68.997  1.00  0.00    -0.093 C  
HETATM    7  O   UNL     1     -10.773   8.400  67.782  1.00  0.00    -0.196 OA 
HETATM    8  C   UNL     1      -7.773   9.929  69.253  1.00  0.00    -0.109 C  
HETATM    9  C   UNL     1     -10.157   9.271  68.417  1.00  0.00    -0.191 C  
HETATM   10  N   UNL     1      -8.724   9.306  68.323  1.00  0.00    -0.128 N  
ENDROOT
BRANCH   5  11
HETATM   11  C   UNL     1      -8.030  12.813  67.122  1.00  0.00    -0.108 A  
HETATM   12  N   UNL     1      -7.704  14.079  67.308  1.00  0.00    -0.152 NA 
HETATM   13  C   UNL     1      -9.605  13.905  66.128  1.00  0.00    -0.229 A  
HETATM   14  C   UNL     1     -10.746  14.296  65.441  1.00  0.00    -0.353 A  
HETATM   15  C   UNL     1      -8.960  16.161  66.676  1.00  0.00    -0.288 A  
HETATM   16  C   UNL     1      -8.716  14.783  66.724  1.00  0.00    -0.224 A  
HETATM   17  O   UNL     1      -9.166  12.633  66.373  1.00  0.00    -0.226 OA 
HETATM   18 CL   UNL     1     -10.509  18.266  66.010  1.00  0.00    -0.430 Cl 
HETATM   19  C   UNL     1     -10.998  15.676  65.421  1.00  0.00    -0.342 A  
HETATM   20  C   UNL     1     -10.125  16.587  66.030  1.00  0.00    -0.348 A  
ENDBRANCH   5  11
BRANCH   9  21
HETATM   21  C   UNL     1     -10.997  10.221  69.298  1.00  0.00    -0.284 A  
HETATM   22  C   UNL     1     -11.060  11.590  69.005  1.00  0.00    -0.302 A  
HETATM   23  C   UNL     1     -12.091  13.859  68.956  1.00  0.00    -0.365 C  
HETATM   24  C   UNL     1     -11.695   9.869  70.478  1.00  0.00    -0.295 A  
HETATM   25  C   UNL     1     -12.505  12.189  70.809  1.00  0.00    -0.362 A  
HETATM   26  C   UNL     1     -12.364  10.873  71.252  1.00  0.00    -0.448 A  
HETATM   27  C   UNL     1     -11.881  12.537  69.635  1.00  0.00    -0.382 A  
BRANCH  24  28
HETATM   28  N   UNL     1     -11.846   8.550  70.988  1.00  0.00    -0.280 NA 
HETATM   29  N   UNL     1     -13.050   7.964  71.225  1.00  0.00    -0.237 NA 
HETATM   30  C   UNL     1     -11.332   6.828  72.102  1.00  0.00    -0.271 A  
HETATM   31  C   UNL     1     -12.705   6.846  71.869  1.00  0.00    -0.274 A  
HETATM   32  N   UNL     1     -10.778   7.928  71.598  1.00  0.00    -0.219 NA 
ENDBRANCH  24  28
ENDBRANCH   9  21
TORSDOF 3
ENDMDL
MODEL       15
REMARK 921   NORMALIZED FREE ENERGY PREDICTED BY IDOCK:   -6.41 KCAL/MOL
REMARK 922        TOTAL FREE ENERGY PREDICTED BY IDOCK:   -9.17 KCAL/MOL
REMARK 923 INTER-LIGAND FREE ENERGY PREDICTED BY IDOCK:   -7.87 KCAL/MOL
REMARK 924 INTRA-LIGAND FREE ENERGY PREDICTED BY IDOCK:   -1.29 KCAL/MOL
REMARK 927      BINDING AFFINITY PREDICTED BY RF-SCORE:    0.00 PKD
ROOT
HETATM    1  C   UNL     1      -9.095   9.987  66.688  1.00  0.00    -0.147 C  
HETATM    2  C   UNL     1      -8.460   8.589  66.873  1.00  0.00    -0.113 C  
HETATM    3  C   UNL     1      -8.154  10.931  65.877  1.00  0.00    -0.120 C  
HETATM    4  C   UNL     1      -7.047  11.705  66.613  1.00  0.00    -0.025 C  
HETATM    5  N   UNL     1      -7.552  12.609  67.631  1.00  0.00    -0.139 NA 
HETATM    6  C   UNL     1      -7.774  12.085  68.971  1.00  0.00     0.096 C  
HETATM    7  O   UNL     1     -11.781  10.418  67.369  1.00  0.00    -0.177 OA 
HETATM    8  C   UNL     1      -8.482  10.721  68.962  1.00  0.00    -0.133 C  
HETATM    9  C   UNL     1     -10.946  10.941  68.125  1.00  0.00    -0.249 C  
HETATM   10  N   UNL     1      -9.563  10.583  67.976  1.00  0.00    -0.146 N  
ENDROOT
BRANCH   5  11
HETATM   11  C   UNL     1      -7.873  13.906  67.410  1.00  0.00    -0.161 A  
HETATM   12  N   UNL     1      -9.086  14.426  67.367  1.00  0.00    -0.190 NA 
HETATM   13  C   UNL     1      -7.527  15.993  66.975  1.00  0.00    -0.229 A  
HETATM   14  C   UNL     1      -6.981  17.233  66.675  1.00  0.00    -0.272 A  
HETATM   15  C   UNL     1      -9.802  16.761  66.780  1.00  0.00    -0.282 A  
HETATM   16  C   UNL     1      -8.886  15.737  67.046  1.00  0.00    -0.216 A  
HETATM   17  O   UNL     1      -6.867  14.819  67.217  1.00  0.00    -0.255 OA 
HETATM   18 CL   UNL     1     -10.372  19.285  66.020  1.00  0.00    -0.545 Cl 
HETATM   19  C   UNL     1      -7.906  18.247  66.383  1.00  0.00    -0.290 A  
HETATM   20  C   UNL     1      -9.286  18.014  66.431  1.00  0.00    -0.255 A  
ENDBRANCH   5  11
BRANCH   9  21
HETATM   21  C   UNL     1     -11.485  11.908  69.202  1.00  0.00    -0.356 A  
HETATM   22  C   UNL     1     -11.382  13.294  69.026  1.00  0.00    -0.334 A  
HETATM   23  C   UNL     1     -12.048  15.679  69.319  1.00  0.00    -0.263 C  
HETATM   24  C   UNL     1     -12.040  11.542  70.452  1.00  0.00    -0.382 A  
HETATM   25  C   UNL     1     -12.425  13.908  71.085  1.00  0.00    -0.450 A  
HETATM   26  C   UNL     1     -12.421  12.548  71.399  1.00  0.00    -0.205 A  
HETATM   27  C   UNL     1     -11.942  14.279  69.853  1.00  0.00    -0.397 A  
BRANCH  24  28
HETATM   28  N   UNL     1     -12.311  10.213  70.880  1.00  0.00    -0.337 NA 
HETATM   29  N   UNL     1     -13.552   9.760  71.200  1.00  0.00    -0.271 NA 
HETATM   30  C   UNL     1     -11.920   8.354  71.810  1.00  0.00    -0.325 A  
HETATM   31  C   UNL     1     -13.295   8.559  71.723  1.00  0.00    -0.367 A  
HETATM   32  N   UNL     1     -11.279   9.417  71.329  1.00  0.00    -0.338 NA 
ENDBRANCH  24  28
ENDBRANCH   9  21
TORSDOF 3
ENDMDL
MODEL       16
REMARK 921   NORMALIZED FREE ENERGY PREDICTED BY IDOCK:   -6.24 KCAL/MOL
REMARK 922        TOTAL FREE ENERGY PREDICTED BY IDOCK:   -8.96 KCAL/MOL
REMARK 923 INTER-LIGAND FREE ENERGY PREDICTED BY IDOCK:   -7.61 KCAL/MOL
REMARK 924 INTRA-LIGAND FREE ENERGY PREDICTED BY IDOCK:   -1.34 KCAL/MOL
REMARK 927      BINDING AFFINITY PREDICTED BY RF-SCORE:    0.00 PKD
ROOT
HETATM    1  C   UNL     1      -9.653  10.724  66.005  1.00  0.00    -0.201 C  
HETATM    2  C   UNL     1      -9.698   9.187  65.840  1.00  0.00    -0.336 C  
HETATM    3  C   UNL     1      -8.225  11.280  65.717  1.00  0.00     0.071 C  
HETATM    4  C   UNL     1      -7.177  11.287  66.843  1.00  0.00    -0.142 C  
HETATM    5  N   UNL     1      -7.569  12.084  67.992  1.00  0.00    -0.111 NA 
HETATM    6  C   UNL     1      -8.365  11.449  69.033  1.00  0.00     0.043 C  
HETATM    7  O   UNL     1     -12.030  12.181  66.307  1.00  0.00    -0.605 OA 
HETATM    8  C   UNL     1      -9.510  10.596  68.464  1.00  0.00    -0.176 C  
HETATM    9  C   UNL     1     -11.324  12.090  67.325  1.00  0.00    -0.330 C  
HETATM   10  N   UNL     1     -10.213  11.180  67.313  1.00  0.00    -0.188 N  
ENDROOT
BRANCH   5  11
HETATM   11  C   UNL     1      -7.279  13.397  68.147  1.00  0.00    -0.113 A  
HETATM   12  N   UNL     1      -7.831  14.235  69.006  1.00  0.00    -0.091 NA 
HETATM   13  C   UNL     1      -6.308  15.280  67.732  1.00  0.00    -0.160 A  
HETATM   14  C   UNL     1      -5.536  16.313  67.216  1.00  0.00    -0.127 A  
HETATM   15  C   UNL     1      -7.511  16.714  69.249  1.00  0.00    -0.165 A  
HETATM   16  C   UNL     1      -7.260  15.441  68.724  1.00  0.00    -0.128 A  
HETATM   17  O   UNL     1      -6.307  13.964  67.361  1.00  0.00    -0.320 OA 
HETATM   18 CL   UNL     1      -7.110  19.381  69.278  1.00  0.00    -0.381 Cl 
HETATM   19  C   UNL     1      -5.814  17.590  67.728  1.00  0.00    -0.150 A  
HETATM   20  C   UNL     1      -6.783  17.785  68.720  1.00  0.00    -0.235 A  
ENDBRANCH   5  11
BRANCH   9  21
HETATM   21  C   UNL     1     -11.739  12.944  68.543  1.00  0.00    -0.374 A  
HETATM   22  C   UNL     1     -12.344  12.346  69.656  1.00  0.00    -0.040 A  
HETATM   23  C   UNL     1     -12.944  12.109  72.064  1.00  0.00    -0.377 C  
HETATM   24  C   UNL     1     -11.642  14.353  68.648  1.00  0.00    -0.314 A  
HETATM   25  C   UNL     1     -12.601  14.346  70.935  1.00  0.00    -0.422 A  
HETATM   26  C   UNL     1     -12.150  15.030  69.805  1.00  0.00    -0.354 A  
HETATM   27  C   UNL     1     -12.648  12.974  70.873  1.00  0.00    -0.364 A  
BRANCH  24  28
HETATM   28  N   UNL     1     -11.030  15.214  67.697  1.00  0.00    -0.300 NA 
HETATM   29  N   UNL     1     -10.232  14.777  66.686  1.00  0.00    -0.264 NA 
HETATM   30  C   UNL     1     -10.154  16.997  66.970  1.00  0.00    -0.295 A  
HETATM   31  C   UNL     1      -9.740  15.917  66.194  1.00  0.00    -0.321 A  
HETATM   32  N   UNL     1     -10.929  16.563  67.962  1.00  0.00    -0.346 NA 
ENDBRANCH  24  28
ENDBRANCH   9  21
TORSDOF 3
ENDMDL
MODEL       17
REMARK 921   NORMALIZED FREE ENERGY PREDICTED BY IDOCK:   -6.20 KCAL/MOL
REMARK 922        TOTAL FREE ENERGY PREDICTED BY IDOCK:   -8.91 KCAL/MOL
REMARK 923 INTER-LIGAND FREE ENERGY PREDICTED BY IDOCK:   -7.44 KCAL/MOL
REMARK 924 INTRA-LIGAND FREE ENERGY PREDICTED BY IDOCK:   -1.47 KCAL/MOL
REMARK 927      BINDING AFFINITY PREDICTED BY RF-SCORE:    0.00 PKD
ROOT
HETATM    1  C   UNL     1      -6.314  14.678  69.913  1.00  0.00    -0.158 C  
HETATM    2  C   UNL     1      -5.165  15.635  69.518  1.00  0.00    -0.103 C  
HETATM    3  C   UNL     1      -5.760  13.341  70.495  1.00  0.00    -0.176 C  
HETATM    4  C   UNL     1      -5.360  12.210  69.533  1.00  0.00    -0.070 C  
HETATM    5  N   UNL     1      -6.459  11.732  68.713  1.00  0.00    -0.060 NA 
HETATM    6  C   UNL     1      -6.726  12.411  67.453  1.00  0.00    -0.152 C  
HETATM    7  O   UNL     1      -8.963  15.596  69.953  1.00  0.00    -0.142 OA 
HETATM    8  C   UNL     1      -6.687  13.942  67.588  1.00  0.00    -0.175 C  
HETATM    9  C   UNL     1      -8.682  14.814  69.030  1.00  0.00    -0.139 C  
HETATM   10  N   UNL     1      -7.302  14.479  68.810  1.00  0.00    -0.123 N  
ENDROOT
BRANCH   5  11
HETATM   11  C   UNL     1      -7.285  10.715  69.058  1.00  0.00    -0.095 A  
HETATM   12  N   UNL     1      -7.927   9.904  68.238  1.00  0.00    -0.099 NA 
HETATM   13  C   UNL     1      -8.406   9.426  70.377  1.00  0.00    -0.205 A  
HETATM   14  C   UNL     1      -8.998   8.800  71.466  1.00  0.00    -0.306 A  
HETATM   15  C   UNL     1      -9.621   8.123  68.755  1.00  0.00    -0.149 A  
HETATM   16  C   UNL     1      -8.677   9.112  69.056  1.00  0.00    -0.135 A  
HETATM   17  O   UNL     1      -7.503  10.453  70.387  1.00  0.00    -0.209 OA 
HETATM   18 CL   UNL     1     -11.495   6.335  69.508  1.00  0.00    -0.480 Cl 
HETATM   19  C   UNL     1      -9.963   7.830  71.155  1.00  0.00    -0.194 A  
HETATM   20  C   UNL     1     -10.270   7.503  69.828  1.00  0.00    -0.211 A  
ENDBRANCH   5  11
BRANCH   9  21
HETATM   21  C   UNL     1      -9.853  14.302  68.164  1.00  0.00    -0.226 A  
HETATM   22  C   UNL     1     -10.224  12.951  68.200  1.00  0.00    -0.239 A  
HETATM   23  C   UNL     1     -11.786  11.017  68.016  1.00  0.00    -0.257 C  
HETATM   24  C   UNL     1     -10.597  15.061  67.230  1.00  0.00    -0.279 A  
HETATM   25  C   UNL     1     -12.014  13.118  66.628  1.00  0.00    -0.451 A  
HETATM   26  C   UNL     1     -11.603  14.437  66.424  1.00  0.00    -0.383 A  
HETATM   27  C   UNL     1     -11.341  12.380  67.572  1.00  0.00    -0.375 A  
BRANCH  24  28
HETATM   28  N   UNL     1     -10.474  16.462  67.017  1.00  0.00    -0.301 NA 
HETATM   29  N   UNL     1     -10.817  17.400  67.940  1.00  0.00    -0.341 NA 
HETATM   30  C   UNL     1     -10.438  18.264  65.909  1.00  0.00    -0.307 A  
HETATM   31  C   UNL     1     -10.724  18.537  67.245  1.00  0.00    -0.374 A  
HETATM   32  N   UNL     1     -10.329  16.948  65.735  1.00  0.00    -0.527 NA 
ENDBRANCH  24  28
ENDBRANCH   9  21
TORSDOF 3
ENDMDL
MODEL       18
REMARK 921   NORMALIZED FREE ENERGY PREDICTED BY IDOCK:   -6.12 KCAL/MOL
REMARK 922        TOTAL FREE ENERGY PREDICTED BY IDOCK:   -8.82 KCAL/MOL
REMARK 923 INTER-LIGAND FREE ENERGY PREDICTED BY IDOCK:   -7.84 KCAL/MOL
REMARK 924 INTRA-LIGAND FREE ENERGY PREDICTED BY IDOCK:   -0.98 KCAL/MOL
REMARK 927      BINDING AFFINITY PREDICTED BY RF-SCORE:    0.00 PKD
ROOT
HETATM    1  C   UNL     1      -8.615   9.969  68.010  1.00  0.00    -0.121 C  
HETATM    2  C   UNL     1      -8.496   8.614  67.275  1.00  0.00    -0.115 C  
HETATM    3  C   UNL     1      -9.290   9.796  69.406  1.00  0.00    -0.212 C  
HETATM    4  C   UNL     1     -10.825   9.786  69.505  1.00  0.00    -0.240 C  
HETATM    5  N   UNL     1     -11.442  11.016  69.038  1.00  0.00    -0.272 NA 
HETATM    6  C   UNL     1     -11.752  11.138  67.621  1.00  0.00    -0.083 C  
HETATM    7  O   UNL     1      -7.300  12.236  67.014  1.00  0.00    -0.132 OA 
HETATM    8  C   UNL     1     -10.604  10.654  66.721  1.00  0.00    -0.237 C  
HETATM    9  C   UNL     1      -8.536  12.238  66.893  1.00  0.00    -0.159 C  
HETATM   10  N   UNL     1      -9.256  11.026  67.171  1.00  0.00    -0.152 N  
ENDROOT
BRANCH   5  11
HETATM   11  C   UNL     1     -11.715  12.081  69.828  1.00  0.00    -0.319 A  
HETATM   12  N   UNL     1     -12.578  12.127  70.827  1.00  0.00    -0.269 NA 
HETATM   13  C   UNL     1     -11.589  14.119  70.530  1.00  0.00    -0.141 A  
HETATM   14  C   UNL     1     -11.295  15.463  70.718  1.00  0.00    -0.376 A  
HETATM   15  C   UNL     1     -13.301  14.084  72.225  1.00  0.00    -0.574 A  
HETATM   16  C   UNL     1     -12.543  13.422  71.251  1.00  0.00    -0.322 A  
HETATM   17  O   UNL     1     -11.044  13.260  69.616  1.00  0.00    -0.099 OA 
HETATM   18 CL   UNL     1     -14.022  16.326  73.540  1.00  0.00     0.124 Cl 
HETATM   19  C   UNL     1     -12.079  16.125  71.676  1.00  0.00    -0.479 A  
HETATM   20  C   UNL     1     -13.063  15.450  72.409  1.00  0.00    -0.407 A  
ENDBRANCH   5  11
BRANCH   9  21
HETATM   21  C   UNL     1      -9.189  13.549  66.404  1.00  0.00    -0.136 A  
HETATM   22  C   UNL     1     -10.223  13.517  65.460  1.00  0.00    -0.308 A  
HETATM   23  C   UNL     1     -12.277  14.337  64.308  1.00  0.00    -0.451 C  
HETATM   24  C   UNL     1      -8.799  14.862  66.762  1.00  0.00    -0.261 A  
HETATM   25  C   UNL     1     -10.560  15.878  65.343  1.00  0.00    -0.439 A  
HETATM   26  C   UNL     1      -9.436  15.997  66.163  1.00  0.00    -0.371 A  
HETATM   27  C   UNL     1     -10.989  14.611  65.030  1.00  0.00    -0.415 A  
BRANCH  24  28
HETATM   28  N   UNL     1      -7.815  15.197  67.733  1.00  0.00    -0.135 NA 
HETATM   29  N   UNL     1      -6.477  15.160  67.496  1.00  0.00    -0.268 NA 
HETATM   30  C   UNL     1      -6.979  15.389  69.666  1.00  0.00    -0.184 A  
HETATM   31  C   UNL     1      -5.963  15.350  68.714  1.00  0.00    -0.095 A  
HETATM   32  N   UNL     1      -8.159  15.239  69.067  1.00  0.00    -0.185 NA 
ENDBRANCH  24  28
ENDBRANCH   9  21
TORSDOF 3
ENDMDL
MODEL       19
REMARK 921   NORMALIZED FREE ENERGY PREDICTED BY IDOCK:   -6.07 KCAL/MOL
REMARK 922        TOTAL FREE ENERGY PREDICTED BY IDOCK:   -8.76 KCAL/MOL
REMARK 923 INTER-LIGAND FREE ENERGY PREDICTED BY IDOCK:   -7.07 KCAL/MOL
REMARK 924 INTRA-LIGAND FREE ENERGY PREDICTED BY IDOCK:   -1.69 KCAL/MOL
REMARK 927      BINDING AFFINITY PREDICTED BY RF-SCORE:    0.00 PKD
ROOT
HETATM    1  C   UNL     1      -8.610   7.550  65.559  1.00  0.00    -0.083 C  
HETATM    2  C   UNL     1      -7.539   6.489  65.213  1.00  0.00    -0.088 C  
HETATM    3  C   UNL     1      -8.397   8.855  64.732  1.00  0.00    -0.184 C  
HETATM    4  C   UNL     1      -7.408   9.917  65.241  1.00  0.00    -0.131 C  
HETATM    5  N   UNL     1      -7.758  10.456  66.543  1.00  0.00    -0.116 NA 
HETATM    6  C   UNL     1      -7.282   9.759  67.730  1.00  0.00    -0.088 C  
HETATM    7  O   UNL     1     -10.832   6.856  67.122  1.00  0.00    -0.329 OA 
HETATM    8  C   UNL     1      -7.464   8.236  67.632  1.00  0.00    -0.094 C  
HETATM    9  C   UNL     1      -9.991   7.580  67.679  1.00  0.00    -0.171 C  
HETATM   10  N   UNL     1      -8.728   7.793  67.028  1.00  0.00    -0.127 N  
ENDROOT
BRANCH   5  11
HETATM   11  C   UNL     1      -8.536  11.548  66.735  1.00  0.00    -0.168 A  
HETATM   12  N   UNL     1      -8.137  12.746  67.122  1.00  0.00    -0.161 NA 
HETATM   13  C   UNL     1     -10.363  12.693  66.842  1.00  0.00    -0.233 A  
HETATM   14  C   UNL     1     -11.681  13.130  66.833  1.00  0.00    -0.441 A  
HETATM   15  C   UNL     1      -9.503  14.776  67.691  1.00  0.00    -0.204 A  
HETATM   16  C   UNL     1      -9.288  13.469  67.238  1.00  0.00    -0.233 A  
HETATM   17  O   UNL     1      -9.886  11.455  66.508  1.00  0.00    -0.200 OA 
HETATM   18 CL   UNL     1     -11.146  16.807  68.360  1.00  0.00    -0.330 Cl 
HETATM   19  C   UNL     1     -11.890  14.431  67.314  1.00  0.00    -0.434 A  
HETATM   20  C   UNL     1     -10.823  15.234  67.739  1.00  0.00    -0.295 A  
ENDBRANCH   5  11
BRANCH   9  21
HETATM   21  C   UNL     1     -10.369   8.158  69.060  1.00  0.00    -0.229 A  
HETATM   22  C   UNL     1     -10.849   9.470  69.173  1.00  0.00    -0.194 A  
HETATM   23  C   UNL     1     -12.154  11.333  70.193  1.00  0.00    -0.448 C  
HETATM   24  C   UNL     1     -10.212   7.510  70.309  1.00  0.00    -0.204 A  
HETATM   25  C   UNL     1     -11.138   9.451  71.543  1.00  0.00    -0.446 A  
HETATM   26  C   UNL     1     -10.522   8.198  71.527  1.00  0.00    -0.276 A  
HETATM   27  C   UNL     1     -11.350  10.072  70.336  1.00  0.00    -0.392 A  
BRANCH  24  28
HETATM   28  N   UNL     1      -9.794   6.164  70.496  1.00  0.00    -0.176 NA 
HETATM   29  N   UNL     1     -10.646   5.139  70.767  1.00  0.00    -0.188 NA 
HETATM   30  C   UNL     1      -8.494   4.593  71.057  1.00  0.00    -0.106 A  
HETATM   31  C   UNL     1      -9.810   4.137  71.053  1.00  0.00    -0.177 A  
HETATM   32  N   UNL     1      -8.469   5.891  70.758  1.00  0.00    -0.128 NA 
ENDBRANCH  24  28
ENDBRANCH   9  21
TORSDOF 3
ENDMDL
MODEL       20
REMARK 921   NORMALIZED FREE ENERGY PREDICTED BY IDOCK:   -6.07 KCAL/MOL
REMARK 922        TOTAL FREE ENERGY PREDICTED BY IDOCK:   -8.76 KCAL/MOL
REMARK 923 INTER-LIGAND FREE ENERGY PREDICTED BY IDOCK:   -7.51 KCAL/MOL
REMARK 924 INTRA-LIGAND FREE ENERGY PREDICTED BY IDOCK:   -1.25 KCAL/MOL
REMARK 927      BINDING AFFINITY PREDICTED BY RF-SCORE:    0.00 PKD
ROOT
HETATM    1  C   UNL     1      -7.504   8.688  68.463  1.00  0.00    -0.093 C  
HETATM    2  C   UNL     1      -6.926   7.308  68.072  1.00  0.00    -0.079 C  
HETATM    3  C   UNL     1      -8.226   8.626  69.844  1.00  0.00    -0.121 C  
HETATM    4  C   UNL     1      -9.694   8.169  69.906  1.00  0.00    -0.176 C  
HETATM    5  N   UNL     1     -10.596   9.018  69.148  1.00  0.00    -0.224 NA 
HETATM    6  C   UNL     1     -10.794   8.727  67.736  1.00  0.00    -0.016 C  
HETATM    7  O   UNL     1      -6.820  10.974  66.989  1.00  0.00    -0.093 OA 
HETATM    8  C   UNL     1      -9.475   8.433  67.003  1.00  0.00    -0.174 C  
HETATM    9  C   UNL     1      -7.986  10.571  66.843  1.00  0.00    -0.121 C  
HETATM   10  N   UNL     1      -8.343   9.289  67.383  1.00  0.00    -0.121 N  
ENDROOT
BRANCH   5  11
HETATM   11  C   UNL     1     -11.242  10.095  69.657  1.00  0.00    -0.261 A  
HETATM   12  N   UNL     1     -11.183  11.337  69.212  1.00  0.00    -0.251 NA 
HETATM   13  C   UNL     1     -12.502  11.195  71.022  1.00  0.00    -0.403 A  
HETATM   14  C   UNL     1     -13.333  11.602  72.057  1.00  0.00    -0.405 A  
HETATM   15  C   UNL     1     -12.176  13.430  70.183  1.00  0.00    -0.385 A  
HETATM   16  C   UNL     1     -11.938  12.053  70.093  1.00  0.00    -0.321 A  
HETATM   17  O   UNL     1     -12.064   9.929  70.743  1.00  0.00    -0.291 OA 
HETATM   18 CL   UNL     1     -13.232  15.570  71.439  1.00  0.00    -0.559 Cl 
HETATM   19  C   UNL     1     -13.543  12.985  72.156  1.00  0.00    -0.618 A  
HETATM   20  C   UNL     1     -12.973  13.879  71.241  1.00  0.00    -0.341 A  
ENDBRANCH   5  11
BRANCH   9  21
HETATM   21  C   UNL     1      -8.945  11.479  66.043  1.00  0.00    -0.181 A  
HETATM   22  C   UNL     1      -9.680  12.480  66.691  1.00  0.00    -0.244 A  
HETATM   23  C   UNL     1     -10.887  14.653  66.880  1.00  0.00    -0.305 C  
HETATM   24  C   UNL     1      -9.244  11.371  64.663  1.00  0.00    -0.015 A  
HETATM   25  C   UNL     1     -10.802  13.297  64.748  1.00  0.00    -0.374 A  
HETATM   26  C   UNL     1     -10.225  12.226  64.064  1.00  0.00    -0.399 A  
HETATM   27  C   UNL     1     -10.480  13.454  66.074  1.00  0.00    -0.294 A  
BRANCH  24  28
HETATM   28  N   UNL     1      -8.615  10.482  63.748  1.00  0.00    -0.170 NA 
HETATM   29  N   UNL     1      -9.264   9.474  63.106  1.00  0.00    -0.133 NA 
HETATM   30  C   UNL     1      -7.037   9.346  62.915  1.00  0.00    -0.099 A  
HETATM   31  C   UNL     1      -8.262   8.805  62.530  1.00  0.00    -0.192 A  
HETATM   32  N   UNL     1      -7.241  10.377  63.732  1.00  0.00    -0.051 NA 
ENDBRANCH  24  28
ENDBRANCH   9  21
TORSDOF 3
ENDMDL
MODEL       21
REMARK 921   NORMALIZED FREE ENERGY PREDICTED BY IDOCK:   -5.99 KCAL/MOL
REMARK 922        TOTAL FREE ENERGY PREDICTED BY IDOCK:   -8.67 KCAL/MOL
REMARK 923 INTER-LIGAND FREE ENERGY PREDICTED BY IDOCK:   -7.40 KCAL/MOL
REMARK 924 INTRA-LIGAND FREE ENERGY PREDICTED BY IDOCK:   -1.26 KCAL/MOL
REMARK 927      BINDING AFFINITY PREDICTED BY RF-SCORE:    0.00 PKD
ROOT
HETATM    1  C   UNL     1      -7.633   9.734  66.319  1.00  0.00    -0.100 C  
HETATM    2  C   UNL     1      -6.523   8.659  66.267  1.00  0.00    -0.061 C  
HETATM    3  C   UNL     1      -7.082  11.134  65.905  1.00  0.00     0.123 C  
HETATM    4  C   UNL     1      -6.396  12.016  66.962  1.00  0.00    -0.124 C  
HETATM    5  N   UNL     1      -7.262  12.366  68.074  1.00  0.00    -0.094 NA 
HETATM    6  C   UNL     1      -7.339  11.452  69.204  1.00  0.00    -0.081 C  
HETATM    7  O   UNL     1     -10.312   8.981  66.663  1.00  0.00    -0.263 OA 
HETATM    8  C   UNL     1      -7.471   9.983  68.768  1.00  0.00    -0.081 C  
HETATM    9  C   UNL     1      -9.782   9.537  67.639  1.00  0.00    -0.154 C  
HETATM   10  N   UNL     1      -8.361   9.748  67.623  1.00  0.00    -0.114 N  
ENDROOT
BRANCH   5  11
HETATM   11  C   UNL     1      -8.042  13.473  68.117  1.00  0.00    -0.154 A  
HETATM   12  N   UNL     1      -8.318  14.287  67.114  1.00  0.00    -0.200 NA 
HETATM   13  C   UNL     1      -9.293  14.989  69.010  1.00  0.00    -0.206 A  
HETATM   14  C   UNL     1     -10.030  15.792  69.869  1.00  0.00    -0.195 A  
HETATM   15  C   UNL     1      -9.583  16.457  67.121  1.00  0.00    -0.239 A  
HETATM   16  C   UNL     1      -9.070  15.277  67.674  1.00  0.00    -0.183 A  
HETATM   17  O   UNL     1      -8.640  13.823  69.301  1.00  0.00     0.307 OA 
HETATM   18 CL   UNL     1     -10.877  18.811  67.357  1.00  0.00    -0.481 Cl 
HETATM   19  C   UNL     1     -10.516  16.986  69.314  1.00  0.00    -0.293 A  
HETATM   20  C   UNL     1     -10.292  17.312  67.970  1.00  0.00    -0.353 A  
ENDBRANCH   5  11
BRANCH   9  21
HETATM   21  C   UNL     1     -10.708   9.915  68.816  1.00  0.00    -0.247 A  
HETATM   22  C   UNL     1     -10.784   9.095  69.950  1.00  0.00    -0.246 A  
HETATM   23  C   UNL     1     -11.146   8.579  72.362  1.00  0.00    -0.397 C  
HETATM   24  C   UNL     1     -11.596  11.016  68.862  1.00  0.00    -0.314 A  
HETATM   25  C   UNL     1     -12.373  10.423  71.140  1.00  0.00    -0.505 A  
HETATM   26  C   UNL     1     -12.467  11.200  69.984  1.00  0.00    -0.292 A  
HETATM   27  C   UNL     1     -11.475   9.382  71.137  1.00  0.00    -0.422 A  
BRANCH  24  28
HETATM   28  N   UNL     1     -11.697  12.039  67.878  1.00  0.00    -0.464 NA 
HETATM   29  N   UNL     1     -12.087  13.313  68.149  1.00  0.00    -0.289 NA 
HETATM   30  C   UNL     1     -12.026  12.861  65.957  1.00  0.00    -0.446 A  
HETATM   31  C   UNL     1     -12.225  13.838  66.929  1.00  0.00    -0.366 A  
HETATM   32  N   UNL     1     -11.744  11.699  66.543  1.00  0.00    -0.471 NA 
ENDBRANCH  24  28
ENDBRANCH   9  21
TORSDOF 3
ENDMDL
MODEL       22
REMARK 921   NORMALIZED FREE ENERGY PREDICTED BY IDOCK:   -5.97 KCAL/MOL
REMARK 922        TOTAL FREE ENERGY PREDICTED BY IDOCK:   -8.64 KCAL/MOL
REMARK 923 INTER-LIGAND FREE ENERGY PREDICTED BY IDOCK:   -7.67 KCAL/MOL
REMARK 924 INTRA-LIGAND FREE ENERGY PREDICTED BY IDOCK:   -0.97 KCAL/MOL
REMARK 927      BINDING AFFINITY PREDICTED BY RF-SCORE:    0.00 PKD
ROOT
HETATM    1  C   UNL     1     -10.115   6.747  67.231  1.00  0.00    -0.182 C  
HETATM    2  C   UNL     1      -9.229   5.967  66.232  1.00  0.00    -0.171 C  
HETATM    3  C   UNL     1     -10.642   8.073  66.601  1.00  0.00    -0.074 C  
HETATM    4  C   UNL     1      -9.758   9.331  66.647  1.00  0.00    -0.219 C  
HETATM    5  N   UNL     1      -9.434   9.762  67.995  1.00  0.00    -0.131 NA 
HETATM    6  C   UNL     1      -8.265   9.184  68.643  1.00  0.00    -0.114 C  
HETATM    7  O   UNL     1     -10.941   5.541  69.624  1.00  0.00    -0.306 OA 
HETATM    8  C   UNL     1      -8.177   7.661  68.453  1.00  0.00    -0.125 C  
HETATM    9  C   UNL     1     -10.089   6.436  69.742  1.00  0.00    -0.176 C  
HETATM   10  N   UNL     1      -9.455   6.943  68.557  1.00  0.00    -0.133 N  
ENDROOT
BRANCH   5  11
HETATM   11  C   UNL     1     -10.171  10.642  68.714  1.00  0.00    -0.190 A  
HETATM   12  N   UNL     1     -10.902  10.376  69.782  1.00  0.00    -0.274 NA 
HETATM   13  C   UNL     1     -11.049  12.546  69.228  1.00  0.00    -0.142 A  
HETATM   14  C   UNL     1     -11.457  13.872  69.275  1.00  0.00    -0.348 A  
HETATM   15  C   UNL     1     -12.450  11.877  71.071  1.00  0.00    -0.390 A  
HETATM   16  C   UNL     1     -11.501  11.562  70.091  1.00  0.00    -0.170 A  
HETATM   17  O   UNL     1     -10.185  11.963  68.343  1.00  0.00    -0.195 OA 
HETATM   18 CL   UNL     1     -14.140  13.613  72.255  1.00  0.00    -0.633 Cl 
HETATM   19  C   UNL     1     -12.429  14.173  70.242  1.00  0.00    -0.416 A  
HETATM   20  C   UNL     1     -12.917  13.194  71.117  1.00  0.00    -0.198 A  
ENDBRANCH   5  11
BRANCH   9  21
HETATM   21  C   UNL     1      -9.752   6.898  71.177  1.00  0.00    -0.177 A  
HETATM   22  C   UNL     1      -8.450   6.768  71.677  1.00  0.00    -0.115 A  
HETATM   23  C   UNL     1      -6.494   7.357  73.105  1.00  0.00    -0.064 C  
HETATM   24  C   UNL     1     -10.670   7.400  72.131  1.00  0.00    -0.225 A  
HETATM   25  C   UNL     1      -8.893   7.693  73.834  1.00  0.00    -0.311 A  
HETATM   26  C   UNL     1     -10.238   7.708  73.462  1.00  0.00    -0.332 A  
HETATM   27  C   UNL     1      -7.978   7.262  72.902  1.00  0.00    -0.118 A  
BRANCH  24  28
HETATM   28  N   UNL     1     -12.043   7.684  71.889  1.00  0.00    -0.289 NA 
HETATM   29  N   UNL     1     -12.642   8.858  72.221  1.00  0.00    -0.389 NA 
HETATM   30  C   UNL     1     -14.100   7.261  71.645  1.00  0.00    -0.384 A  
HETATM   31  C   UNL     1     -13.932   8.597  71.998  1.00  0.00    -0.446 A  
HETATM   32  N   UNL     1     -12.917   6.651  71.624  1.00  0.00    -0.237 NA 
ENDBRANCH  24  28
ENDBRANCH   9  21
TORSDOF 3
ENDMDL
MODEL       23
REMARK 921   NORMALIZED FREE ENERGY PREDICTED BY IDOCK:   -5.93 KCAL/MOL
REMARK 922        TOTAL FREE ENERGY PREDICTED BY IDOCK:   -8.60 KCAL/MOL
REMARK 923 INTER-LIGAND FREE ENERGY PREDICTED BY IDOCK:   -7.43 KCAL/MOL
REMARK 924 INTRA-LIGAND FREE ENERGY PREDICTED BY IDOCK:   -1.16 KCAL/MOL
REMARK 927      BINDING AFFINITY PREDICTED BY RF-SCORE:    0.00 PKD
ROOT
HETATM    1  C   UNL     1     -10.770  13.085  65.404  1.00  0.00    -0.291 C  
HETATM    2  C   UNL     1     -10.659  14.405  64.606  1.00  0.00    -0.331 C  
HETATM    3  C   UNL     1     -12.090  13.036  66.232  1.00  0.00    -0.453 C  
HETATM    4  C   UNL     1     -12.133  13.695  67.621  1.00  0.00    -0.293 C  
HETATM    5  N   UNL     1     -11.183  13.125  68.561  1.00  0.00    -0.255 NA 
HETATM    6  C   UNL     1      -9.831  13.664  68.588  1.00  0.00    -0.138 C  
HETATM    7  O   UNL     1      -8.976  10.986  64.914  1.00  0.00    -0.179 OA 
HETATM    8  C   UNL     1      -9.248  13.867  67.180  1.00  0.00    -0.239 C  
HETATM    9  C   UNL     1      -8.823  11.580  65.994  1.00  0.00    -0.143 C  
HETATM   10  N   UNL     1      -9.550  12.799  66.217  1.00  0.00    -0.258 N  
ENDROOT
BRANCH   5  11
HETATM   11  C   UNL     1     -11.456  12.093  69.393  1.00  0.00    -0.290 A  
HETATM   12  N   UNL     1     -10.821  10.937  69.457  1.00  0.00    -0.247 NA 
HETATM   13  C   UNL     1     -12.519  11.000  70.922  1.00  0.00    -0.410 A  
HETATM   14  C   UNL     1     -13.404  10.571  71.902  1.00  0.00    -0.461 A  
HETATM   15  C   UNL     1     -11.356   8.893  70.815  1.00  0.00    -0.325 A  
HETATM   16  C   UNL     1     -11.511  10.217  70.387  1.00  0.00    -0.335 A  
HETATM   17  O   UNL     1     -12.485  12.214  70.293  1.00  0.00    -0.198 OA 
HETATM   18 CL   UNL     1     -12.158   6.770  72.272  1.00  0.00    -0.262 Cl 
HETATM   19  C   UNL     1     -13.259   9.235  72.305  1.00  0.00    -0.535 A  
HETATM   20  C   UNL     1     -12.260   8.414  71.769  1.00  0.00    -0.330 A  
ENDBRANCH   5  11
BRANCH   9  21
HETATM   21  C   UNL     1      -7.818  10.968  66.994  1.00  0.00    -0.137 A  
HETATM   22  C   UNL     1      -6.806  11.757  67.555  1.00  0.00    -0.113 A  
HETATM   23  C   UNL     1      -5.156  12.440  69.295  1.00  0.00    -0.068 C  
HETATM   24  C   UNL     1      -7.747   9.608  67.382  1.00  0.00    -0.095 A  
HETATM   25  C   UNL     1      -5.824  10.034  68.887  1.00  0.00    -0.034 A  
HETATM   26  C   UNL     1      -6.703   9.155  68.253  1.00  0.00    -0.060 A  
HETATM   27  C   UNL     1      -5.915  11.368  68.567  1.00  0.00    -0.045 A  
BRANCH  24  28
HETATM   28  N   UNL     1      -8.671   8.592  67.010  1.00  0.00    -0.126 NA 
HETATM   29  N   UNL     1      -9.974   8.578  67.396  1.00  0.00    -0.195 NA 
HETATM   30  C   UNL     1      -9.310   6.648  66.476  1.00  0.00    -0.159 A  
HETATM   31  C   UNL     1     -10.382   7.372  66.992  1.00  0.00    -0.314 A  
HETATM   32  N   UNL     1      -8.204   7.387  66.530  1.00  0.00    -0.116 NA 
ENDBRANCH  24  28
ENDBRANCH   9  21
TORSDOF 3
ENDMDL
MODEL       24
REMARK 921   NORMALIZED FREE ENERGY PREDICTED BY IDOCK:   -5.91 KCAL/MOL
REMARK 922        TOTAL FREE ENERGY PREDICTED BY IDOCK:   -8.58 KCAL/MOL
REMARK 923 INTER-LIGAND FREE ENERGY PREDICTED BY IDOCK:   -6.84 KCAL/MOL
REMARK 924 INTRA-LIGAND FREE ENERGY PREDICTED BY IDOCK:   -1.73 KCAL/MOL
REMARK 927      BINDING AFFINITY PREDICTED BY RF-SCORE:    0.00 PKD
ROOT
HETATM    1  C   UNL     1     -10.860   9.482  70.920  1.00  0.00    -0.337 C  
HETATM    2  C   UNL     1     -11.564   8.123  71.139  1.00  0.00    -0.306 C  
HETATM    3  C   UNL     1     -11.889  10.654  70.902  1.00  0.00    -0.433 C  
HETATM    4  C   UNL     1     -12.616  10.998  69.591  1.00  0.00    -0.017 C  
HETATM    5  N   UNL     1     -11.719  11.387  68.517  1.00  0.00    -0.412 NA 
HETATM    6  C   UNL     1     -11.156  10.341  67.675  1.00  0.00    -0.251 C  
HETATM    7  O   UNL     1      -8.064   9.659  71.047  1.00  0.00    -0.287 OA 
HETATM    8  C   UNL     1     -10.649   9.139  68.486  1.00  0.00    -0.169 C  
HETATM    9  C   UNL     1      -8.557   9.776  69.913  1.00  0.00    -0.218 C  
HETATM   10  N   UNL     1      -9.950   9.475  69.734  1.00  0.00    -0.199 N  
ENDROOT
BRANCH   5  11
HETATM   11  C   UNL     1     -11.334  12.661  68.266  1.00  0.00    -0.295 A  
HETATM   12  N   UNL     1     -11.778  13.754  68.859  1.00  0.00    -0.313 NA 
HETATM   13  C   UNL     1     -10.269  14.257  67.276  1.00  0.00    -0.252 A  
HETATM   14  C   UNL     1      -9.464  15.028  66.449  1.00  0.00    -0.325 A  
HETATM   15  C   UNL     1     -11.282  16.163  68.347  1.00  0.00    -0.358 A  
HETATM   16  C   UNL     1     -11.147  14.775  68.212  1.00  0.00    -0.274 A  
HETATM   17  O   UNL     1     -10.377  12.894  67.310  1.00  0.00    -0.232 OA 
HETATM   18 CL   UNL     1     -10.705  18.681  67.572  1.00  0.00    -0.474 Cl 
HETATM   19  C   UNL     1      -9.626  16.417  66.572  1.00  0.00    -0.291 A  
HETATM   20  C   UNL     1     -10.519  16.970  67.498  1.00  0.00    -0.334 A  
ENDBRANCH   5  11
BRANCH   9  21
HETATM   21  C   UNL     1      -7.602  10.197  68.774  1.00  0.00    -0.089 A  
HETATM   22  C   UNL     1      -7.422  11.552  68.465  1.00  0.00    -0.115 A  
HETATM   23  C   UNL     1      -6.186  13.546  67.622  1.00  0.00    -0.139 C  
HETATM   24  C   UNL     1      -6.901   9.327  67.906  1.00  0.00    -0.072 A  
HETATM   25  C   UNL     1      -5.867  11.219  66.683  1.00  0.00    -0.138 A  
HETATM   26  C   UNL     1      -6.115   9.853  66.830  1.00  0.00    -0.060 A  
HETATM   27  C   UNL     1      -6.495  12.078  67.553  1.00  0.00    -0.124 A  
BRANCH  24  28
HETATM   28  N   UNL     1      -6.857   7.909  68.014  1.00  0.00    -0.070 NA 
HETATM   29  N   UNL     1      -7.793   7.081  67.477  1.00  0.00    -0.111 NA 
HETATM   30  C   UNL     1      -6.411   6.040  68.898  1.00  0.00    -0.041 A  
HETATM   31  C   UNL     1      -7.457   5.895  67.990  1.00  0.00    -0.085 A  
HETATM   32  N   UNL     1      -6.053   7.321  68.966  1.00  0.00    -0.026 NA 
ENDBRANCH  24  28
ENDBRANCH   9  21
TORSDOF 3
ENDMDL
MODEL       25
REMARK 921   NORMALIZED FREE ENERGY PREDICTED BY IDOCK:   -5.91 KCAL/MOL
REMARK 922        TOTAL FREE ENERGY PREDICTED BY IDOCK:   -8.57 KCAL/MOL
REMARK 923 INTER-LIGAND FREE ENERGY PREDICTED BY IDOCK:   -7.06 KCAL/MOL
REMARK 924 INTRA-LIGAND FREE ENERGY PREDICTED BY IDOCK:   -1.50 KCAL/MOL
REMARK 927      BINDING AFFINITY PREDICTED BY RF-SCORE:    0.00 PKD
ROOT
HETATM    1  C   UNL     1      -9.542   9.380  65.683  1.00  0.00    -0.274 C  
HETATM    2  C   UNL     1      -8.453   8.783  64.761  1.00  0.00    -0.179 C  
HETATM    3  C   UNL     1      -9.744  10.901  65.405  1.00  0.00    -0.287 C  
HETATM    4  C   UNL     1      -8.824  11.922  66.096  1.00  0.00    -0.063 C  
HETATM    5  N   UNL     1      -8.902  11.882  67.546  1.00  0.00    -0.162 NA 
HETATM    6  C   UNL     1      -8.040  10.950  68.258  1.00  0.00    -0.124 C  
HETATM    7  O   UNL     1     -11.159   7.692  67.232  1.00  0.00    -0.157 OA 
HETATM    8  C   UNL     1      -8.014   9.556  67.611  1.00  0.00    -0.106 C  
HETATM    9  C   UNL     1     -10.319   8.356  67.862  1.00  0.00    -0.221 C  
HETATM   10  N   UNL     1      -9.312   9.067  67.125  1.00  0.00    -0.143 N  
ENDROOT
BRANCH   5  11
HETATM   11  C   UNL     1      -9.756  12.628  68.286  1.00  0.00    -0.216 A  
HETATM   12  N   UNL     1     -10.831  12.202  68.924  1.00  0.00    -0.218 NA 
HETATM   13  C   UNL     1     -10.575  14.417  69.174  1.00  0.00    -0.218 A  
HETATM   14  C   UNL     1     -10.848  15.718  69.575  1.00  0.00    -0.287 A  
HETATM   15  C   UNL     1     -12.580  13.515  70.159  1.00  0.00    -0.178 A  
HETATM   16  C   UNL     1     -11.386  13.330  69.452  1.00  0.00    -0.219 A  
HETATM   17  O   UNL     1      -9.518  13.972  68.429  1.00  0.00    -0.209 OA 
HETATM   18 CL   UNL     1     -14.404  15.110  71.343  1.00  0.00    -0.604 Cl 
HETATM   19  C   UNL     1     -12.060  15.899  70.258  1.00  0.00    -0.294 A  
HETATM   20  C   UNL     1     -12.909  14.821  70.539  1.00  0.00    -0.322 A  
ENDBRANCH   5  11
BRANCH   9  21
HETATM   21  C   UNL     1     -10.410   8.317  69.403  1.00  0.00    -0.223 A  
HETATM   22  C   UNL     1     -11.160   9.278  70.094  1.00  0.00    -0.260 A  
HETATM   23  C   UNL     1     -12.544  10.165  71.968  1.00  0.00    -0.351 C  
HETATM   24  C   UNL     1      -9.728   7.419  70.259  1.00  0.00    -0.172 A  
HETATM   25  C   UNL     1     -10.720   8.442  72.287  1.00  0.00    -0.417 A  
HETATM   26  C   UNL     1      -9.832   7.552  71.682  1.00  0.00    -0.185 A  
HETATM   27  C   UNL     1     -11.434   9.285  71.470  1.00  0.00    -0.454 A  
BRANCH  24  28
HETATM   28  N   UNL     1      -8.937   6.314  69.838  1.00  0.00    -0.140 NA 
HETATM   29  N   UNL     1      -7.619   6.407  69.517  1.00  0.00    -0.093 NA 
HETATM   30  C   UNL     1      -8.532   4.452  68.921  1.00  0.00    -0.083 A  
HETATM   31  C   UNL     1      -7.361   5.202  69.002  1.00  0.00    -0.061 A  
HETATM   32  N   UNL     1      -9.552   5.163  69.397  1.00  0.00    -0.146 NA 
ENDBRANCH  24  28
ENDBRANCH   9  21
TORSDOF 3
ENDMDL
MODEL       26
REMARK 921   NORMALIZED FREE ENERGY PREDICTED BY IDOCK:   -5.90 KCAL/MOL
REMARK 922        TOTAL FREE ENERGY PREDICTED BY IDOCK:   -8.57 KCAL/MOL
REMARK 923 INTER-LIGAND FREE ENERGY PREDICTED BY IDOCK:   -7.06 KCAL/MOL
REMARK 924 INTRA-LIGAND FREE ENERGY PREDICTED BY IDOCK:   -1.51 KCAL/MOL
REMARK 927      BINDING AFFINITY PREDICTED BY RF-SCORE:    0.00 PKD
ROOT
HETATM    1  C   UNL     1     -10.451   9.655  70.709  1.00  0.00    -0.305 C  
HETATM    2  C   UNL     1     -11.068   8.283  71.071  1.00  0.00    -0.284 C  
HETATM    3  C   UNL     1     -11.539  10.772  70.682  1.00  0.00    -0.388 C  
HETATM    4  C   UNL     1     -12.369  10.984  69.404  1.00  0.00    -0.153 C  
HETATM    5  N   UNL     1     -11.566  11.337  68.246  1.00  0.00    -0.422 NA 
HETATM    6  C   UNL     1     -11.006  10.261  67.441  1.00  0.00    -0.252 C  
HETATM    7  O   UNL     1      -7.667   9.974  70.629  1.00  0.00    -0.268 OA 
HETATM    8  C   UNL     1     -10.384   9.146  68.296  1.00  0.00    -0.214 C  
HETATM    9  C   UNL     1      -8.239   9.984  69.527  1.00  0.00    -0.167 C  
HETATM   10  N   UNL     1      -9.623   9.605  69.467  1.00  0.00    -0.185 N  
ENDROOT
BRANCH   5  11
HETATM   11  C   UNL     1     -11.266  12.606  67.881  1.00  0.00    -0.266 A  
HETATM   12  N   UNL     1     -11.338  13.686  68.637  1.00  0.00    -0.266 NA 
HETATM   13  C   UNL     1     -10.672  14.206  66.558  1.00  0.00    -0.289 A  
HETATM   14  C   UNL     1     -10.281  14.985  65.478  1.00  0.00    -0.406 A  
HETATM   15  C   UNL     1     -10.994  16.096  68.018  1.00  0.00    -0.338 A  
HETATM   16  C   UNL     1     -11.009  14.712  67.802  1.00  0.00    -0.286 A  
HETATM   17  O   UNL     1     -10.827  12.848  66.603  1.00  0.00    -0.263 OA 
HETATM   18 CL   UNL     1     -10.690  18.624  67.131  1.00  0.00    -0.459 Cl 
HETATM   19  C   UNL     1     -10.296  16.372  65.695  1.00  0.00    -0.371 A  
HETATM   20  C   UNL     1     -10.649  16.914  66.937  1.00  0.00    -0.214 A  
ENDBRANCH   5  11
BRANCH   9  21
HETATM   21  C   UNL     1      -7.385  10.367  68.298  1.00  0.00    -0.088 A  
HETATM   22  C   UNL     1      -7.068   9.407  67.328  1.00  0.00    -0.086 A  
HETATM   23  C   UNL     1      -6.495   8.585  65.045  1.00  0.00    -0.060 C  
HETATM   24  C   UNL     1      -6.787  11.626  68.055  1.00  0.00    -0.072 A  
HETATM   25  C   UNL     1      -5.798  10.855  65.916  1.00  0.00    -0.130 A  
HETATM   26  C   UNL     1      -5.941  11.820  66.915  1.00  0.00    -0.140 A  
HETATM   27  C   UNL     1      -6.419   9.644  66.107  1.00  0.00    -0.071 A  
BRANCH  24  28
HETATM   28  N   UNL     1      -6.973  12.797  68.841  1.00  0.00    -0.097 NA 
HETATM   29  N   UNL     1      -7.682  13.881  68.426  1.00  0.00    -0.132 NA 
HETATM   30  C   UNL     1      -6.488  14.269  70.280  1.00  0.00    -0.102 A  
HETATM   31  C   UNL     1      -7.420  14.779  69.380  1.00  0.00    -0.147 A  
HETATM   32  N   UNL     1      -6.153  13.031  69.923  1.00  0.00    -0.136 NA 
ENDBRANCH  24  28
ENDBRANCH   9  21
TORSDOF 3
ENDMDL
MODEL       27
REMARK 921   NORMALIZED FREE ENERGY PREDICTED BY IDOCK:   -5.88 KCAL/MOL
REMARK 922        TOTAL FREE ENERGY PREDICTED BY IDOCK:   -8.54 KCAL/MOL
REMARK 923 INTER-LIGAND FREE ENERGY PREDICTED BY IDOCK:   -6.87 KCAL/MOL
REMARK 924 INTRA-LIGAND FREE ENERGY PREDICTED BY IDOCK:   -1.67 KCAL/MOL
REMARK 927      BINDING AFFINITY PREDICTED BY RF-SCORE:    0.00 PKD
ROOT
HETATM    1  C   UNL     1      -9.523   5.209  72.100  1.00  0.00    -0.140 C  
HETATM    2  C   UNL     1      -9.654   3.669  72.151  1.00  0.00    -0.211 C  
HETATM    3  C   UNL     1     -10.682   5.899  72.882  1.00  0.00    -0.281 C  
HETATM    4  C   UNL     1     -12.025   6.148  72.174  1.00  0.00    -0.260 C  
HETATM    5  N   UNL     1     -11.914   7.007  71.008  1.00  0.00    -0.346 NA 
HETATM    6  C   UNL     1     -11.601   6.393  69.726  1.00  0.00    -0.327 C  
HETATM    7  O   UNL     1      -7.185   6.394  71.104  1.00  0.00    -0.075 OA 
HETATM    8  C   UNL     1     -10.471   5.355  69.828  1.00  0.00    -0.307 C  
HETATM    9  C   UNL     1      -8.188   6.495  70.378  1.00  0.00    -0.125 C  
HETATM   10  N   UNL     1      -9.356   5.728  70.709  1.00  0.00    -0.161 N  
ENDROOT
BRANCH   5  11
HETATM   11  C   UNL     1     -12.042   8.355  71.037  1.00  0.00    -0.198 A  
HETATM   12  N   UNL     1     -12.725   9.067  71.914  1.00  0.00    -0.354 NA 
HETATM   13  C   UNL     1     -11.782  10.390  70.366  1.00  0.00    -0.331 A  
HETATM   14  C   UNL     1     -11.450  11.550  69.678  1.00  0.00    -0.373 A  
HETATM   15  C   UNL     1     -13.188  11.536  71.952  1.00  0.00    -0.479 A  
HETATM   16  C   UNL     1     -12.609  10.353  71.476  1.00  0.00    -0.439 A  
HETATM   17  O   UNL     1     -11.406   9.106  70.081  1.00  0.00    -0.231 OA 
HETATM   18 CL   UNL     1     -13.660  14.184  71.756  1.00  0.00    -0.452 Cl 
HETATM   19  C   UNL     1     -12.057  12.725  70.145  1.00  0.00    -0.370 A  
HETATM   20  C   UNL     1     -12.911  12.716  71.255  1.00  0.00    -0.250 A  
ENDBRANCH   5  11
BRANCH   9  21
HETATM   21  C   UNL     1      -8.068   7.415  69.144  1.00  0.00    -0.120 A  
HETATM   22  C   UNL     1      -8.224   8.801  69.275  1.00  0.00    -0.108 A  
HETATM   23  C   UNL     1      -7.863  11.195  68.680  1.00  0.00    -0.138 C  
HETATM   24  C   UNL     1      -7.882   6.997  67.804  1.00  0.00    -0.113 A  
HETATM   25  C   UNL     1      -7.889   9.331  66.970  1.00  0.00    -0.098 A  
HETATM   26  C   UNL     1      -7.879   7.955  66.739  1.00  0.00    -0.103 A  
HETATM   27  C   UNL     1      -8.012   9.758  68.271  1.00  0.00    -0.096 A  
BRANCH  24  28
HETATM   28  N   UNL     1      -7.647   5.660  67.379  1.00  0.00    -0.088 NA 
HETATM   29  N   UNL     1      -6.416   5.084  67.344  1.00  0.00    -0.044 NA 
HETATM   30  C   UNL     1      -7.978   3.884  66.280  1.00  0.00    -0.094 A  
HETATM   31  C   UNL     1      -6.653   3.934  66.707  1.00  0.00    -0.046 A  
HETATM   32  N   UNL     1      -8.610   4.996  66.651  1.00  0.00    -0.110 NA 
ENDBRANCH  24  28
ENDBRANCH   9  21
TORSDOF 3
ENDMDL
MODEL       28
REMARK 921   NORMALIZED FREE ENERGY PREDICTED BY IDOCK:   -5.85 KCAL/MOL
REMARK 922        TOTAL FREE ENERGY PREDICTED BY IDOCK:   -8.51 KCAL/MOL
REMARK 923 INTER-LIGAND FREE ENERGY PREDICTED BY IDOCK:   -8.16 KCAL/MOL
REMARK 924 INTRA-LIGAND FREE ENERGY PREDICTED BY IDOCK:   -0.35 KCAL/MOL
REMARK 927      BINDING AFFINITY PREDICTED BY RF-SCORE:    0.00 PKD
ROOT
HETATM    1  C   UNL     1     -11.095  13.334  64.195  1.00  0.00    -0.365 C  
HETATM    2  C   UNL     1     -12.280  13.037  63.246  1.00  0.00    -0.464 C  
HETATM    3  C   UNL     1     -10.102  12.133  64.249  1.00  0.00    -0.317 C  
HETATM    4  C   UNL     1     -10.380  10.969  65.216  1.00  0.00    -0.275 C  
HETATM    5  N   UNL     1     -10.419  11.372  66.610  1.00  0.00    -0.234 NA 
HETATM    6  C   UNL     1     -11.684  11.840  67.158  1.00  0.00    -0.188 C  
HETATM    7  O   UNL     1     -10.712  15.921  65.208  1.00  0.00    -0.397 OA 
HETATM    8  C   UNL     1     -12.407  12.820  66.220  1.00  0.00    -0.050 C  
HETATM    9  C   UNL     1     -11.108  15.077  66.029  1.00  0.00    -0.329 C  
HETATM   10  N   UNL     1     -11.540  13.796  65.544  1.00  0.00    -0.318 N  
ENDROOT
BRANCH   5  11
HETATM   11  C   UNL     1      -9.345  11.381  67.435  1.00  0.00    -0.167 A  
HETATM   12  N   UNL     1      -8.932  10.394  68.209  1.00  0.00    -0.132 NA 
HETATM   13  C   UNL     1      -7.621  12.200  68.445  1.00  0.00    -0.128 A  
HETATM   14  C   UNL     1      -6.602  13.010  68.927  1.00  0.00    -0.094 A  
HETATM   15  C   UNL     1      -7.083  10.364  69.909  1.00  0.00    -0.160 A  
HETATM   16  C   UNL     1      -7.870  10.913  68.889  1.00  0.00    -0.142 A  
HETATM   17  O   UNL     1      -8.563  12.506  67.501  1.00  0.00    -0.163 OA 
HETATM   18 CL   UNL     1      -5.129  10.567  71.757  1.00  0.00    -0.073 Cl 
HETATM   19  C   UNL     1      -5.836  12.462  69.968  1.00  0.00    -0.151 A  
HETATM   20  C   UNL     1      -6.075  11.169  70.450  1.00  0.00    -0.126 A  
ENDBRANCH   5  11
BRANCH   9  21
HETATM   21  C   UNL     1     -11.142  15.506  67.512  1.00  0.00    -0.305 A  
HETATM   22  C   UNL     1     -11.829  14.734  68.458  1.00  0.00    -0.340 A  
HETATM   23  C   UNL     1     -12.307  13.811  70.724  1.00  0.00    -0.451 C  
HETATM   24  C   UNL     1     -10.591  16.693  68.052  1.00  0.00    -0.338 A  
HETATM   25  C   UNL     1     -11.341  16.117  70.343  1.00  0.00    -0.377 A  
HETATM   26  C   UNL     1     -10.773  17.013  69.437  1.00  0.00    -0.184 A  
HETATM   27  C   UNL     1     -11.831  14.933  69.847  1.00  0.00    -0.355 A  
BRANCH  24  28
HETATM   28  N   UNL     1      -9.800  17.637  67.340  1.00  0.00    -0.296 NA 
HETATM   29  N   UNL     1      -8.442  17.605  67.294  1.00  0.00    -0.213 NA 
HETATM   30  C   UNL     1      -9.301  19.513  66.499  1.00  0.00    -0.370 A  
HETATM   31  C   UNL     1      -8.145  18.763  66.701  1.00  0.00    -0.275 A  
HETATM   32  N   UNL     1     -10.357  18.836  66.948  1.00  0.00    -0.382 NA 
ENDBRANCH  24  28
ENDBRANCH   9  21
TORSDOF 3
ENDMDL
MODEL       29
REMARK 921   NORMALIZED FREE ENERGY PREDICTED BY IDOCK:   -5.80 KCAL/MOL
REMARK 922        TOTAL FREE ENERGY PREDICTED BY IDOCK:   -8.44 KCAL/MOL
REMARK 923 INTER-LIGAND FREE ENERGY PREDICTED BY IDOCK:   -8.27 KCAL/MOL
REMARK 924 INTRA-LIGAND FREE ENERGY PREDICTED BY IDOCK:   -0.17 KCAL/MOL
REMARK 927      BINDING AFFINITY PREDICTED BY RF-SCORE:    0.00 PKD
ROOT
HETATM    1  C   UNL     1     -10.069  17.190  68.408  1.00  0.00    -0.314 C  
HETATM    2  C   UNL     1     -10.733  18.231  67.477  1.00  0.00    -0.381 C  
HETATM    3  C   UNL     1      -8.595  16.910  67.981  1.00  0.00    -0.214 C  
HETATM    4  C   UNL     1      -8.315  15.872  66.880  1.00  0.00    -0.246 C  
HETATM    5  N   UNL     1      -8.775  14.536  67.214  1.00  0.00    -0.198 NA 
HETATM    6  C   UNL     1     -10.150  14.180  66.894  1.00  0.00    -0.258 C  
HETATM    7  O   UNL     1     -11.347  16.396  70.775  1.00  0.00    -0.373 OA 
HETATM    8  C   UNL     1     -11.150  15.283  67.278  1.00  0.00    -0.325 C  
HETATM    9  C   UNL     1     -11.319  15.546  69.870  1.00  0.00    -0.314 C  
HETATM   10  N   UNL     1     -10.887  15.949  68.560  1.00  0.00    -0.282 N  
ENDROOT
BRANCH   5  11
HETATM   11  C   UNL     1      -8.023  13.602  67.844  1.00  0.00    -0.161 A  
HETATM   12  N   UNL     1      -8.164  12.291  67.773  1.00  0.00    -0.149 NA 
HETATM   13  C   UNL     1      -6.483  12.843  69.153  1.00  0.00    -0.108 A  
HETATM   14  C   UNL     1      -5.441  12.685  70.057  1.00  0.00    -0.114 A  
HETATM   15  C   UNL     1      -6.961  10.485  69.037  1.00  0.00    -0.076 A  
HETATM   16  C   UNL     1      -7.227  11.798  68.632  1.00  0.00    -0.112 A  
HETATM   17  O   UNL     1      -6.985  14.009  68.644  1.00  0.00    -0.092 OA 
HETATM   18 CL   UNL     1      -5.633   8.705  70.567  1.00  0.00    -0.027 Cl 
HETATM   19  C   UNL     1      -5.200  11.368  70.478  1.00  0.00    -0.110 A  
HETATM   20  C   UNL     1      -5.947  10.293  69.981  1.00  0.00    -0.063 A  
ENDBRANCH   5  11
BRANCH   9  21
HETATM   21  C   UNL     1     -11.803  14.124  70.230  1.00  0.00    -0.373 A  
HETATM   22  C   UNL     1     -11.579  13.055  69.352  1.00  0.00    -0.360 A  
HETATM   23  C   UNL     1     -11.208  10.673  68.720  1.00  0.00    -0.337 C  
HETATM   24  C   UNL     1     -12.553  13.761  71.374  1.00  0.00    -0.348 A  
HETATM   25  C   UNL     1     -12.621  11.378  70.696  1.00  0.00    -0.360 A  
HETATM   26  C   UNL     1     -13.016  12.415  71.542  1.00  0.00    -0.385 A  
HETATM   27  C   UNL     1     -11.845  11.702  69.609  1.00  0.00    -0.419 A  
BRANCH  24  28
HETATM   28  N   UNL     1     -12.884  14.625  72.455  1.00  0.00    -0.366 NA 
HETATM   29  N   UNL     1     -13.929  15.494  72.435  1.00  0.00    -0.556 NA 
HETATM   30  C   UNL     1     -12.530  15.841  74.148  1.00  0.00    -0.655 A  
HETATM   31  C   UNL     1     -13.730  16.211  73.544  1.00  0.00     0.091 A  
HETATM   32  N   UNL     1     -11.953  14.873  73.441  1.00  0.00    -0.282 NA 
ENDBRANCH  24  28
ENDBRANCH   9  21
TORSDOF 3
ENDMDL
MODEL       30
REMARK 921   NORMALIZED FREE ENERGY PREDICTED BY IDOCK:   -5.78 KCAL/MOL
REMARK 922        TOTAL FREE ENERGY PREDICTED BY IDOCK:   -8.42 KCAL/MOL
REMARK 923 INTER-LIGAND FREE ENERGY PREDICTED BY IDOCK:   -7.04 KCAL/MOL
REMARK 924 INTRA-LIGAND FREE ENERGY PREDICTED BY IDOCK:   -1.38 KCAL/MOL
REMARK 927      BINDING AFFINITY PREDICTED BY RF-SCORE:    0.00 PKD
ROOT
HETATM    1  C   UNL     1     -10.229  13.071  65.778  1.00  0.00    -0.290 C  
HETATM    2  C   UNL     1     -10.308  14.374  64.949  1.00  0.00    -0.419 C  
HETATM    3  C   UNL     1     -11.649  12.591  66.211  1.00  0.00    -0.449 C  
HETATM    4  C   UNL     1     -12.286  13.176  67.483  1.00  0.00    -0.116 C  
HETATM    5  N   UNL     1     -11.516  12.917  68.687  1.00  0.00    -0.285 NA 
HETATM    6  C   UNL     1     -10.462  13.855  69.047  1.00  0.00    -0.131 C  
HETATM    7  O   UNL     1      -7.815  11.656  65.956  1.00  0.00     0.105 OA 
HETATM    8  C   UNL     1      -9.594  14.259  67.844  1.00  0.00    -0.221 C  
HETATM    9  C   UNL     1      -8.167  12.246  66.990  1.00  0.00    -0.155 C  
HETATM   10  N   UNL     1      -9.265  13.169  66.915  1.00  0.00    -0.232 N  
ENDROOT
BRANCH   5  11
HETATM   11  C   UNL     1     -11.683  11.835  69.484  1.00  0.00    -0.343 A  
HETATM   12  N   UNL     1     -11.021  10.694  69.420  1.00  0.00    -0.237 NA 
HETATM   13  C   UNL     1     -12.565  10.636  71.048  1.00  0.00    -0.416 A  
HETATM   14  C   UNL     1     -13.338  10.132  72.085  1.00  0.00    -0.431 A  
HETATM   15  C   UNL     1     -11.375   8.568  70.709  1.00  0.00    -0.296 A  
HETATM   16  C   UNL     1     -11.599   9.908  70.372  1.00  0.00    -0.282 A  
HETATM   17  O   UNL     1     -12.619  11.882  70.486  1.00  0.00    -0.227 OA 
HETATM   18 CL   UNL     1     -11.984   6.350  72.118  1.00  0.00    -0.367 Cl 
HETATM   19  C   UNL     1     -13.126   8.781  72.397  1.00  0.00    -0.444 A  
HETATM   20  C   UNL     1     -12.169   8.015  71.720  1.00  0.00    -0.316 A  
ENDBRANCH   5  11
BRANCH   9  21
HETATM   21  C   UNL     1      -7.351  11.963  68.270  1.00  0.00    -0.093 A  
HETATM   22  C   UNL     1      -7.393  10.699  68.873  1.00  0.00    -0.099 A  
HETATM   23  C   UNL     1      -6.519   8.793  70.222  1.00  0.00    -0.039 C  
HETATM   24  C   UNL     1      -6.576  12.902  68.992  1.00  0.00    -0.102 A  
HETATM   25  C   UNL     1      -5.907  11.206  70.672  1.00  0.00    -0.103 A  
HETATM   26  C   UNL     1      -5.939  12.526  70.220  1.00  0.00    -0.126 A  
HETATM   27  C   UNL     1      -6.607  10.268  69.952  1.00  0.00    -0.114 A  
BRANCH  24  28
HETATM   28  N   UNL     1      -6.314  14.241  68.592  1.00  0.00    -0.083 NA 
HETATM   29  N   UNL     1      -5.497  14.575  67.558  1.00  0.00    -0.342 NA 
HETATM   30  C   UNL     1      -6.058  16.326  68.835  1.00  0.00    -0.131 A  
HETATM   31  C   UNL     1      -5.399  15.901  67.684  1.00  0.00    -0.114 A  
HETATM   32  N   UNL     1      -6.599  15.279  69.454  1.00  0.00    -0.140 NA 
ENDBRANCH  24  28
ENDBRANCH   9  21
TORSDOF 3
ENDMDL
MODEL       31
REMARK 921   NORMALIZED FREE ENERGY PREDICTED BY IDOCK:   -5.77 KCAL/MOL
REMARK 922        TOTAL FREE ENERGY PREDICTED BY IDOCK:   -8.40 KCAL/MOL
REMARK 923 INTER-LIGAND FREE ENERGY PREDICTED BY IDOCK:   -7.20 KCAL/MOL
REMARK 924 INTRA-LIGAND FREE ENERGY PREDICTED BY IDOCK:   -1.21 KCAL/MOL
REMARK 927      BINDING AFFINITY PREDICTED BY RF-SCORE:    0.00 PKD
ROOT
HETATM    1  C   UNL     1      -9.067  10.104  65.911  1.00  0.00    -0.156 C  
HETATM    2  C   UNL     1      -9.173   8.643  65.417  1.00  0.00    -0.103 C  
HETATM    3  C   UNL     1      -7.580  10.568  65.987  1.00  0.00    -0.140 C  
HETATM    4  C   UNL     1      -6.754  10.249  67.245  1.00  0.00    -0.073 C  
HETATM    5  N   UNL     1      -7.298  10.833  68.457  1.00  0.00    -0.090 NA 
HETATM    6  C   UNL     1      -8.305  10.083  69.194  1.00  0.00    -0.146 C  
HETATM    7  O   UNL     1     -11.368  11.692  66.124  1.00  0.00    -0.303 OA 
HETATM    8  C   UNL     1      -9.378   9.475  68.276  1.00  0.00    -0.133 C  
HETATM    9  C   UNL     1     -10.864  11.333  67.201  1.00  0.00    -0.270 C  
HETATM   10  N   UNL     1      -9.825  10.341  67.176  1.00  0.00    -0.179 N  
ENDROOT
BRANCH   5  11
HETATM   11  C   UNL     1      -6.963  12.055  68.935  1.00  0.00    -0.104 A  
HETATM   12  N   UNL     1      -7.303  13.225  68.425  1.00  0.00    -0.105 NA 
HETATM   13  C   UNL     1      -6.006  13.486  70.238  1.00  0.00    -0.146 A  
HETATM   14  C   UNL     1      -5.264  14.126  71.222  1.00  0.00    -0.158 A  
HETATM   15  C   UNL     1      -6.585  15.534  69.108  1.00  0.00    -0.136 A  
HETATM   16  C   UNL     1      -6.666  14.140  69.212  1.00  0.00    -0.122 A  
HETATM   17  O   UNL     1      -6.199  12.142  70.071  1.00  0.00    -0.147 OA 
HETATM   18 CL   UNL     1      -5.614  17.913  69.927  1.00  0.00    -0.228 Cl 
HETATM   19  C   UNL     1      -5.165  15.520  71.094  1.00  0.00    -0.104 A  
HETATM   20  C   UNL     1      -5.808  16.207  70.057  1.00  0.00    -0.179 A  
ENDBRANCH   5  11
BRANCH   9  21
HETATM   21  C   UNL     1     -11.440  11.962  68.488  1.00  0.00    -0.349 A  
HETATM   22  C   UNL     1     -12.066  11.160  69.451  1.00  0.00    -0.396 A  
HETATM   23  C   UNL     1     -12.813  10.523  71.743  1.00  0.00    -0.559 C  
HETATM   24  C   UNL     1     -11.479  13.343  68.799  1.00  0.00    -0.305 A  
HETATM   25  C   UNL     1     -12.594  12.923  70.973  1.00  0.00    -0.376 A  
HETATM   26  C   UNL     1     -12.127  13.800  69.993  1.00  0.00    -0.416 A  
HETATM   27  C   UNL     1     -12.513  11.575  70.714  1.00  0.00    -0.444 A  
BRANCH  24  28
HETATM   28  N   UNL     1     -10.880  14.381  68.033  1.00  0.00    -0.240 NA 
HETATM   29  N   UNL     1      -9.998  15.282  68.541  1.00  0.00    -0.217 NA 
HETATM   30  C   UNL     1     -10.742  15.834  66.503  1.00  0.00    -0.283 A  
HETATM   31  C   UNL     1      -9.869  16.156  67.539  1.00  0.00    -0.237 A  
HETATM   32  N   UNL     1     -11.432  14.741  66.822  1.00  0.00    -0.353 NA 
ENDBRANCH  24  28
ENDBRANCH   9  21
TORSDOF 3
ENDMDL
MODEL       32
REMARK 921   NORMALIZED FREE ENERGY PREDICTED BY IDOCK:   -5.69 KCAL/MOL
REMARK 922        TOTAL FREE ENERGY PREDICTED BY IDOCK:   -8.31 KCAL/MOL
REMARK 923 INTER-LIGAND FREE ENERGY PREDICTED BY IDOCK:   -6.69 KCAL/MOL
REMARK 924 INTRA-LIGAND FREE ENERGY PREDICTED BY IDOCK:   -1.62 KCAL/MOL
REMARK 927      BINDING AFFINITY PREDICTED BY RF-SCORE:    0.00 PKD
ROOT
HETATM    1  C   UNL     1     -11.504  14.837  64.543  1.00  0.00    -0.329 C  
HETATM    2  C   UNL     1     -12.782  15.705  64.469  1.00  0.00     0.626 C  
HETATM    3  C   UNL     1     -11.754  13.413  63.958  1.00  0.00    -0.465 C  
HETATM    4  C   UNL     1     -12.356  12.323  64.860  1.00  0.00    -0.299 C  
HETATM    5  N   UNL     1     -11.539  12.016  66.020  1.00  0.00    -0.441 NA 
HETATM    6  C   UNL     1     -11.727  12.810  67.226  1.00  0.00    -0.378 C  
HETATM    7  O   UNL     1      -9.045  16.003  65.222  1.00  0.00    -0.081 OA 
HETATM    8  C   UNL     1     -11.827  14.316  66.932  1.00  0.00    -0.433 C  
HETATM    9  C   UNL     1      -9.547  15.267  66.088  1.00  0.00    -0.321 C  
HETATM   10  N   UNL     1     -10.899  14.817  65.909  1.00  0.00    -0.319 N  
ENDROOT
BRANCH   5  11
HETATM   11  C   UNL     1     -10.578  11.062  66.049  1.00  0.00    -0.213 A  
HETATM   12  N   UNL     1     -10.098  10.391  65.018  1.00  0.00    -0.323 NA 
HETATM   13  C   UNL     1      -9.135   9.721  66.931  1.00  0.00    -0.142 A  
HETATM   14  C   UNL     1      -8.321   8.993  67.789  1.00  0.00    -0.117 A  
HETATM   15  C   UNL     1      -8.467   8.480  64.976  1.00  0.00    -0.183 A  
HETATM   16  C   UNL     1      -9.217   9.506  65.566  1.00  0.00    -0.234 A  
HETATM   17  O   UNL     1     -10.003  10.728  67.249  1.00  0.00    -0.178 OA 
HETATM   18 CL   UNL     1      -6.790   6.376  65.152  1.00  0.00    -0.046 Cl 
HETATM   19  C   UNL     1      -7.595   7.950  67.194  1.00  0.00    -0.100 A  
HETATM   20  C   UNL     1      -7.671   7.697  65.818  1.00  0.00    -0.100 A  
ENDBRANCH   5  11
BRANCH   9  21
HETATM   21  C   UNL     1      -8.672  14.937  67.318  1.00  0.00    -0.224 A  
HETATM   22  C   UNL     1      -8.100  13.666  67.460  1.00  0.00    -0.190 A  
HETATM   23  C   UNL     1      -6.404  12.010  68.233  1.00  0.00    -0.052 C  
HETATM   24  C   UNL     1      -8.422  15.790  68.420  1.00  0.00    -0.170 A  
HETATM   25  C   UNL     1      -7.001  14.093  69.537  1.00  0.00    -0.042 A  
HETATM   26  C   UNL     1      -7.663  15.322  69.541  1.00  0.00    -0.212 A  
HETATM   27  C   UNL     1      -7.186  13.274  68.449  1.00  0.00    -0.110 A  
BRANCH  24  28
HETATM   28  N   UNL     1      -8.834  17.147  68.525  1.00  0.00    -0.259 NA 
HETATM   29  N   UNL     1     -10.133  17.538  68.618  1.00  0.00    -0.343 NA 
HETATM   30  C   UNL     1      -8.730  19.238  68.224  1.00  0.00    -0.338 A  
HETATM   31  C   UNL     1     -10.044  18.865  68.495  1.00  0.00    -0.402 A  
HETATM   32  N   UNL     1      -7.956  18.155  68.186  1.00  0.00    -0.274 NA 
ENDBRANCH  24  28
ENDBRANCH   9  21
TORSDOF 3
ENDMDL
MODEL       33
REMARK 921   NORMALIZED FREE ENERGY PREDICTED BY IDOCK:   -5.68 KCAL/MOL
REMARK 922        TOTAL FREE ENERGY PREDICTED BY IDOCK:   -8.30 KCAL/MOL
REMARK 923 INTER-LIGAND FREE ENERGY PREDICTED BY IDOCK:   -7.30 KCAL/MOL
REMARK 924 INTRA-LIGAND FREE ENERGY PREDICTED BY IDOCK:   -1.01 KCAL/MOL
REMARK 927      BINDING AFFINITY PREDICTED BY RF-SCORE:    0.00 PKD
ROOT
HETATM    1  C   UNL     1      -9.229   9.610  64.994  1.00  0.00    -0.250 C  
HETATM    2  C   UNL     1      -8.402   9.697  63.691  1.00  0.00    -0.172 C  
HETATM    3  C   UNL     1     -10.421  10.615  64.974  1.00  0.00    -0.278 C  
HETATM    4  C   UNL     1     -10.185  12.072  65.407  1.00  0.00    -0.263 C  
HETATM    5  N   UNL     1      -9.726  12.200  66.779  1.00  0.00    -0.203 NA 
HETATM    6  C   UNL     1      -8.295  12.122  67.037  1.00  0.00    -0.173 C  
HETATM    7  O   UNL     1      -8.776   7.526  66.816  1.00  0.00    -0.124 OA 
HETATM    8  C   UNL     1      -7.619  10.972  66.273  1.00  0.00    -0.111 C  
HETATM    9  C   UNL     1      -8.392   8.650  67.181  1.00  0.00    -0.107 C  
HETATM   10  N   UNL     1      -8.384   9.719  66.222  1.00  0.00    -0.116 N  
ENDROOT
BRANCH   5  11
HETATM   11  C   UNL     1     -10.542  12.348  67.849  1.00  0.00    -0.213 A  
HETATM   12  N   UNL     1     -11.051  13.478  68.307  1.00  0.00    -0.249 NA 
HETATM   13  C   UNL     1     -11.681  11.741  69.580  1.00  0.00    -0.343 A  
HETATM   14  C   UNL     1     -12.282  11.044  70.620  1.00  0.00    -0.481 A  
HETATM   15  C   UNL     1     -12.410  13.894  70.378  1.00  0.00    -0.433 A  
HETATM   16  C   UNL     1     -11.736  13.116  69.429  1.00  0.00    -0.327 A  
HETATM   17  O   UNL     1     -10.920  11.237  68.561  1.00  0.00    -0.188 OA 
HETATM   18 CL   UNL     1     -13.763  14.148  72.697  1.00  0.00    -0.597 Cl 
HETATM   19  C   UNL     1     -12.932  11.834  71.581  1.00  0.00    -0.467 A  
HETATM   20  C   UNL     1     -12.989  13.229  71.463  1.00  0.00    -0.337 A  
ENDBRANCH   5  11
BRANCH   9  21
HETATM   21  C   UNL     1      -7.911   8.784  68.642  1.00  0.00    -0.103 A  
HETATM   22  C   UNL     1      -6.793   9.570  68.951  1.00  0.00    -0.055 A  
HETATM   23  C   UNL     1      -5.360  11.022  70.385  1.00  0.00    -0.092 C  
HETATM   24  C   UNL     1      -8.451   8.113  69.766  1.00  0.00    -0.125 A  
HETATM   25  C   UNL     1      -6.828   9.180  71.307  1.00  0.00    -0.070 A  
HETATM   26  C   UNL     1      -7.848   8.261  71.057  1.00  0.00    -0.097 A  
HETATM   27  C   UNL     1      -6.329   9.884  70.237  1.00  0.00    -0.094 A  
BRANCH  24  28
HETATM   28  N   UNL     1      -9.612   7.293  69.760  1.00  0.00    -0.163 NA 
HETATM   29  N   UNL     1     -10.850   7.732  70.113  1.00  0.00    -0.245 NA 
HETATM   30  C   UNL     1     -10.728   5.504  69.929  1.00  0.00    -0.288 A  
HETATM   31  C   UNL     1     -11.559   6.601  70.149  1.00  0.00    -0.386 A  
HETATM   32  N   UNL     1      -9.479   5.921  69.734  1.00  0.00    -0.146 NA 
ENDBRANCH  24  28
ENDBRANCH   9  21
TORSDOF 3
ENDMDL
MODEL       34
REMARK 921   NORMALIZED FREE ENERGY PREDICTED BY IDOCK:   -5.68 KCAL/MOL
REMARK 922        TOTAL FREE ENERGY PREDICTED BY IDOCK:   -8.30 KCAL/MOL
REMARK 923 INTER-LIGAND FREE ENERGY PREDICTED BY IDOCK:   -6.65 KCAL/MOL
REMARK 924 INTRA-LIGAND FREE ENERGY PREDICTED BY IDOCK:   -1.65 KCAL/MOL
REMARK 927      BINDING AFFINITY PREDICTED BY RF-SCORE:    0.00 PKD
ROOT
HETATM    1  C   UNL     1      -9.349   6.349  72.451  1.00  0.00    -0.140 C  
HETATM    2  C   UNL     1      -9.605   4.980  73.123  1.00  0.00    -0.156 C  
HETATM    3  C   UNL     1     -10.196   7.473  73.123  1.00  0.00    -0.382 C  
HETATM    4  C   UNL     1     -11.648   7.697  72.665  1.00  0.00    -0.317 C  
HETATM    5  N   UNL     1     -11.764   8.050  71.261  1.00  0.00    -0.279 NA 
HETATM    6  C   UNL     1     -11.853   6.974  70.284  1.00  0.00    -0.194 C  
HETATM    7  O   UNL     1      -7.250   6.650  70.616  1.00  0.00    -0.070 OA 
HETATM    8  C   UNL     1     -10.837   5.851  70.548  1.00  0.00    -0.296 C  
HETATM    9  C   UNL     1      -8.393   6.670  70.131  1.00  0.00    -0.135 C  
HETATM   10  N   UNL     1      -9.502   6.300  70.966  1.00  0.00    -0.174 N  
ENDROOT
BRANCH   5  11
HETATM   11  C   UNL     1     -11.754   9.319  70.788  1.00  0.00    -0.269 A  
HETATM   12  N   UNL     1     -12.058  10.416  71.457  1.00  0.00    -0.326 NA 
HETATM   13  C   UNL     1     -11.538  10.894  69.327  1.00  0.00    -0.318 A  
HETATM   14  C   UNL     1     -11.337  11.647  68.178  1.00  0.00    -0.358 A  
HETATM   15  C   UNL     1     -12.261  12.782  70.638  1.00  0.00    -0.374 A  
HETATM   16  C   UNL     1     -11.971  11.416  70.534  1.00  0.00    -0.356 A  
HETATM   17  O   UNL     1     -11.388   9.544  69.485  1.00  0.00    -0.135 OA 
HETATM   18 CL   UNL     1     -12.530  15.232  69.543  1.00  0.00    -0.189 Cl 
HETATM   19  C   UNL     1     -11.656  13.009  68.283  1.00  0.00    -0.375 A  
HETATM   20  C   UNL     1     -12.113  13.562  69.486  1.00  0.00    -0.297 A  
ENDBRANCH   5  11
BRANCH   9  21
HETATM   21  C   UNL     1      -8.514   7.052  68.639  1.00  0.00    -0.121 A  
HETATM   22  C   UNL     1      -8.575   8.398  68.255  1.00  0.00    -0.139 A  
HETATM   23  C   UNL     1      -8.254  10.344  66.730  1.00  0.00    -0.126 C  
HETATM   24  C   UNL     1      -8.650   6.154  67.554  1.00  0.00    -0.106 A  
HETATM   25  C   UNL     1      -8.743   8.004  65.906  1.00  0.00    -0.184 A  
HETATM   26  C   UNL     1      -8.844   6.648  66.223  1.00  0.00    -0.156 A  
HETATM   27  C   UNL     1      -8.553   8.888  66.941  1.00  0.00    -0.121 A  
BRANCH  24  28
HETATM   28  N   UNL     1      -8.574   4.736  67.639  1.00  0.00    -0.104 NA 
HETATM   29  N   UNL     1      -9.663   3.923  67.698  1.00  0.00    -0.150 NA 
HETATM   30  C   UNL     1      -7.747   2.863  68.168  1.00  0.00    -0.056 A  
HETATM   31  C   UNL     1      -9.119   2.733  67.966  1.00  0.00    -0.182 A  
HETATM   32  N   UNL     1      -7.392   4.137  68.017  1.00  0.00    -0.063 NA 
ENDBRANCH  24  28
ENDBRANCH   9  21
TORSDOF 3
ENDMDL
MODEL       35
REMARK 921   NORMALIZED FREE ENERGY PREDICTED BY IDOCK:   -5.64 KCAL/MOL
REMARK 922        TOTAL FREE ENERGY PREDICTED BY IDOCK:   -8.26 KCAL/MOL
REMARK 923 INTER-LIGAND FREE ENERGY PREDICTED BY IDOCK:   -7.16 KCAL/MOL
REMARK 924 INTRA-LIGAND FREE ENERGY PREDICTED BY IDOCK:   -1.10 KCAL/MOL
REMARK 927      BINDING AFFINITY PREDICTED BY RF-SCORE:    0.00 PKD
ROOT
HETATM    1  C   UNL     1     -13.053   9.341  71.115  1.00  0.00    -0.190 C  
HETATM    2  C   UNL     1     -13.405  10.032  72.453  1.00  0.00    -0.261 C  
HETATM    3  C   UNL     1     -13.238   7.796  71.213  1.00  0.00    -0.240 C  
HETATM    4  C   UNL     1     -12.096   6.934  71.777  1.00  0.00    -0.346 C  
HETATM    5  N   UNL     1     -10.867   7.028  71.009  1.00  0.00    -0.233 NA 
HETATM    6  C   UNL     1      -9.930   8.094  71.333  1.00  0.00    -0.180 C  
HETATM    7  O   UNL     1     -12.629  10.872  68.804  1.00  0.00    -0.317 OA 
HETATM    8  C   UNL     1     -10.625   9.449  71.537  1.00  0.00    -0.261 C  
HETATM    9  C   UNL     1     -11.614  10.352  69.295  1.00  0.00    -0.176 C  
HETATM   10  N   UNL     1     -11.712   9.744  70.593  1.00  0.00    -0.286 N  
ENDROOT
BRANCH   5  11
HETATM   11  C   UNL     1     -10.546   6.211  69.977  1.00  0.00    -0.261 A  
HETATM   12  N   UNL     1      -9.829   5.104  70.036  1.00  0.00    -0.203 NA 
HETATM   13  C   UNL     1     -10.460   5.539  67.927  1.00  0.00    -0.178 A  
HETATM   14  C   UNL     1     -10.571   5.396  66.551  1.00  0.00    -0.353 A  
HETATM   15  C   UNL     1      -9.015   3.626  68.175  1.00  0.00    -0.171 A  
HETATM   16  C   UNL     1      -9.726   4.692  68.741  1.00  0.00    -0.160 A  
HETATM   17  O   UNL     1     -10.998   6.516  68.718  1.00  0.00    -0.282 OA 
HETATM   18 CL   UNL     1      -8.151   2.232  66.035  1.00  0.00    -0.082 Cl 
HETATM   19  C   UNL     1      -9.834   4.343  65.990  1.00  0.00    -0.241 A  
HETATM   20  C   UNL     1      -9.069   3.480  66.785  1.00  0.00    -0.164 A  
ENDBRANCH   5  11
BRANCH   9  21
HETATM   21  C   UNL     1     -10.310  10.446  68.472  1.00  0.00    -0.197 A  
HETATM   22  C   UNL     1      -9.444   9.348  68.387  1.00  0.00    -0.148 A  
HETATM   23  C   UNL     1      -7.718   7.891  67.332  1.00  0.00    -0.109 C  
HETATM   24  C   UNL     1      -9.819  11.599  67.813  1.00  0.00    -0.179 A  
HETATM   25  C   UNL     1      -7.814  10.395  66.990  1.00  0.00    -0.112 A  
HETATM   26  C   UNL     1      -8.546  11.572  67.158  1.00  0.00    -0.155 A  
HETATM   27  C   UNL     1      -8.304   9.252  67.575  1.00  0.00    -0.119 A  
BRANCH  24  28
HETATM   28  N   UNL     1     -10.506  12.838  67.691  1.00  0.00    -0.218 NA 
HETATM   29  N   UNL     1     -10.579  13.763  68.685  1.00  0.00    -0.251 NA 
HETATM   30  C   UNL     1     -11.986  14.179  66.994  1.00  0.00    -0.439 A  
HETATM   31  C   UNL     1     -11.465  14.638  68.202  1.00  0.00    -0.323 A  
HETATM   32  N   UNL     1     -11.428  13.011  66.681  1.00  0.00    -0.319 NA 
ENDBRANCH  24  28
ENDBRANCH   9  21
TORSDOF 3
ENDMDL
MODEL       36
REMARK 921   NORMALIZED FREE ENERGY PREDICTED BY IDOCK:   -5.64 KCAL/MOL
REMARK 922        TOTAL FREE ENERGY PREDICTED BY IDOCK:   -8.25 KCAL/MOL
REMARK 923 INTER-LIGAND FREE ENERGY PREDICTED BY IDOCK:   -6.67 KCAL/MOL
REMARK 924 INTRA-LIGAND FREE ENERGY PREDICTED BY IDOCK:   -1.59 KCAL/MOL
REMARK 927      BINDING AFFINITY PREDICTED BY RF-SCORE:    0.00 PKD
ROOT
HETATM    1  C   UNL     1     -10.107   6.225  69.726  1.00  0.00    -0.176 C  
HETATM    2  C   UNL     1      -9.800   4.710  69.784  1.00  0.00    -0.296 C  
HETATM    3  C   UNL     1     -11.159   6.544  68.619  1.00  0.00    -0.348 C  
HETATM    4  C   UNL     1     -10.689   6.744  67.168  1.00  0.00    -0.371 C  
HETATM    5  N   UNL     1      -9.760   7.848  67.008  1.00  0.00    -0.188 NA 
HETATM    6  C   UNL     1      -8.340   7.589  67.201  1.00  0.00    -0.121 C  
HETATM    7  O   UNL     1      -9.166   7.934  71.739  1.00  0.00    -0.138 OA 
HETATM    8  C   UNL     1      -8.060   6.733  68.447  1.00  0.00    -0.119 C  
HETATM    9  C   UNL     1      -8.605   8.045  70.637  1.00  0.00    -0.130 C  
HETATM   10  N   UNL     1      -8.872   7.060  69.627  1.00  0.00    -0.141 N  
ENDROOT
BRANCH   5  11
HETATM   11  C   UNL     1     -10.126   9.121  66.728  1.00  0.00    -0.271 A  
HETATM   12  N   UNL     1      -9.855   9.800  65.629  1.00  0.00    -0.296 NA 
HETATM   13  C   UNL     1     -11.012  11.058  67.083  1.00  0.00    -0.283 A  
HETATM   14  C   UNL     1     -11.650  12.170  67.616  1.00  0.00    -0.413 A  
HETATM   15  C   UNL     1     -10.313  12.210  65.086  1.00  0.00    -0.311 A  
HETATM   16  C   UNL     1     -10.369  11.043  65.857  1.00  0.00    -0.257 A  
HETATM   17  O   UNL     1     -10.867   9.821  67.648  1.00  0.00    -0.282 OA 
HETATM   18 CL   UNL     1     -10.798  14.840  64.737  1.00  0.00    -0.414 Cl 
HETATM   19  C   UNL     1     -11.565  13.342  66.849  1.00  0.00    -0.408 A  
HETATM   20  C   UNL     1     -10.906  13.361  65.613  1.00  0.00    -0.283 A  
ENDBRANCH   5  11
BRANCH   9  21
HETATM   21  C   UNL     1      -7.623   9.225  70.467  1.00  0.00    -0.147 A  
HETATM   22  C   UNL     1      -7.826  10.178  69.460  1.00  0.00    -0.165 A  
HETATM   23  C   UNL     1      -7.677  12.427  68.395  1.00  0.00    -0.144 C  
HETATM   24  C   UNL     1      -6.431   9.434  71.203  1.00  0.00    -0.067 A  
HETATM   25  C   UNL     1      -5.913  11.517  69.962  1.00  0.00    -0.143 A  
HETATM   26  C   UNL     1      -5.562  10.526  70.881  1.00  0.00    -0.092 A  
HETATM   27  C   UNL     1      -7.094  11.361  69.277  1.00  0.00    -0.100 A  
BRANCH  24  28
HETATM   28  N   UNL     1      -5.998   8.658  72.313  1.00  0.00    -0.067 NA 
HETATM   29  N   UNL     1      -5.467   7.411  72.203  1.00  0.00    -0.036 NA 
HETATM   30  C   UNL     1      -5.984   7.962  74.310  1.00  0.00    -0.086 A  
HETATM   31  C   UNL     1      -5.402   7.012  73.476  1.00  0.00    -0.042 A  
HETATM   32  N   UNL     1      -6.417   8.990  73.584  1.00  0.00    -0.332 NA 
ENDBRANCH  24  28
ENDBRANCH   9  21
TORSDOF 3
ENDMDL
MODEL       37
REMARK 921   NORMALIZED FREE ENERGY PREDICTED BY IDOCK:   -5.64 KCAL/MOL
REMARK 922        TOTAL FREE ENERGY PREDICTED BY IDOCK:   -8.25 KCAL/MOL
REMARK 923 INTER-LIGAND FREE ENERGY PREDICTED BY IDOCK:   -6.58 KCAL/MOL
REMARK 924 INTRA-LIGAND FREE ENERGY PREDICTED BY IDOCK:   -1.68 KCAL/MOL
REMARK 927      BINDING AFFINITY PREDICTED BY RF-SCORE:    0.00 PKD
ROOT
HETATM    1  C   UNL     1      -6.278  10.188  66.609  1.00  0.00    -0.070 C  
HETATM    2  C   UNL     1      -5.757  10.426  65.173  1.00  0.00    -0.138 C  
HETATM    3  C   UNL     1      -5.896   8.764  67.118  1.00  0.00    -0.043 C  
HETATM    4  C   UNL     1      -6.798   7.570  66.762  1.00  0.00    -0.070 C  
HETATM    5  N   UNL     1      -8.154   7.700  67.265  1.00  0.00    -0.117 NA 
HETATM    6  C   UNL     1      -9.130   8.401  66.443  1.00  0.00    -0.187 C  
HETATM    7  O   UNL     1      -7.319  12.320  68.105  1.00  0.00    -0.088 OA 
HETATM    8  C   UNL     1      -8.574   9.704  65.848  1.00  0.00    -0.134 C  
HETATM    9  C   UNL     1      -8.151  11.487  67.707  1.00  0.00    -0.133 C  
HETATM   10  N   UNL     1      -7.732  10.498  66.754  1.00  0.00    -0.113 N  
ENDROOT
BRANCH   5  11
HETATM   11  C   UNL     1      -8.570   7.246  68.471  1.00  0.00    -0.124 A  
HETATM   12  N   UNL     1      -9.312   6.179  68.703  1.00  0.00    -0.122 NA 
HETATM   13  C   UNL     1      -8.820   7.244  70.615  1.00  0.00    -0.148 A  
HETATM   14  C   UNL     1      -8.809   7.536  71.973  1.00  0.00    -0.142 A  
HETATM   15  C   UNL     1     -10.296   5.357  70.863  1.00  0.00    -0.312 A  
HETATM   16  C   UNL     1      -9.518   6.190  70.051  1.00  0.00    -0.154 A  
HETATM   17  O   UNL     1      -8.199   7.925  69.604  1.00  0.00    -0.119 OA 
HETATM   18 CL   UNL     1     -11.349   4.701  73.258  1.00  0.00    -0.407 Cl 
HETATM   19  C   UNL     1      -9.614   6.713  72.775  1.00  0.00    -0.157 A  
HETATM   20  C   UNL     1     -10.345   5.650  72.230  1.00  0.00    -0.206 A  
ENDBRANCH   5  11
BRANCH   9  21
HETATM   21  C   UNL     1      -9.591  11.624  68.249  1.00  0.00    -0.198 A  
HETATM   22  C   UNL     1     -10.089  10.701  69.178  1.00  0.00    -0.234 A  
HETATM   23  C   UNL     1     -11.524   9.921  71.062  1.00  0.00    -0.466 C  
HETATM   24  C   UNL     1     -10.550  12.582  67.842  1.00  0.00    -0.218 A  
HETATM   25  C   UNL     1     -12.256  11.681  69.398  1.00  0.00    -0.246 A  
HETATM   26  C   UNL     1     -11.884  12.540  68.363  1.00  0.00    -0.353 A  
HETATM   27  C   UNL     1     -11.320  10.780  69.847  1.00  0.00    -0.385 A  
BRANCH  24  28
HETATM   28  N   UNL     1     -10.311  13.666  66.953  1.00  0.00    -0.260 NA 
HETATM   29  N   UNL     1     -10.181  14.959  67.354  1.00  0.00    -0.233 NA 
HETATM   30  C   UNL     1     -10.405  14.745  65.136  1.00  0.00    -0.410 A  
HETATM   31  C   UNL     1     -10.174  15.621  66.194  1.00  0.00    -0.311 A  
HETATM   32  N   UNL     1     -10.549  13.507  65.604  1.00  0.00    -0.278 NA 
ENDBRANCH  24  28
ENDBRANCH   9  21
TORSDOF 3
ENDMDL
MODEL       38
REMARK 921   NORMALIZED FREE ENERGY PREDICTED BY IDOCK:   -5.61 KCAL/MOL
REMARK 922        TOTAL FREE ENERGY PREDICTED BY IDOCK:   -8.22 KCAL/MOL
REMARK 923 INTER-LIGAND FREE ENERGY PREDICTED BY IDOCK:   -6.71 KCAL/MOL
REMARK 924 INTRA-LIGAND FREE ENERGY PREDICTED BY IDOCK:   -1.51 KCAL/MOL
REMARK 927      BINDING AFFINITY PREDICTED BY RF-SCORE:    0.00 PKD
ROOT
HETATM    1  C   UNL     1     -10.751   9.256  71.020  1.00  0.00    -0.316 C  
HETATM    2  C   UNL     1     -11.303   7.822  71.199  1.00  0.00    -0.290 C  
HETATM    3  C   UNL     1     -11.890  10.316  71.124  1.00  0.00    -0.455 C  
HETATM    4  C   UNL     1     -12.723  10.650  69.875  1.00  0.00    -0.015 C  
HETATM    5  N   UNL     1     -11.934  11.184  68.779  1.00  0.00    -0.523 NA 
HETATM    6  C   UNL     1     -11.320  10.246  67.850  1.00  0.00    -0.105 C  
HETATM    7  O   UNL     1      -7.984   9.711  71.010  1.00  0.00    -0.301 OA 
HETATM    8  C   UNL     1     -10.649   9.062  68.564  1.00  0.00    -0.155 C  
HETATM    9  C   UNL     1      -8.551   9.835  69.912  1.00  0.00    -0.218 C  
HETATM   10  N   UNL     1      -9.916   9.403  69.790  1.00  0.00    -0.187 N  
ENDROOT
BRANCH   5  11
HETATM   11  C   UNL     1     -11.692  12.502  68.581  1.00  0.00    -0.325 A  
HETATM   12  N   UNL     1     -11.416  13.093  67.433  1.00  0.00    -0.312 NA 
HETATM   13  C   UNL     1     -11.402  14.572  69.121  1.00  0.00    -0.277 A  
HETATM   14  C   UNL     1     -11.260  15.784  69.782  1.00  0.00    -0.330 A  
HETATM   15  C   UNL     1     -10.767  15.477  66.980  1.00  0.00    -0.321 A  
HETATM   16  C   UNL     1     -11.184  14.395  67.765  1.00  0.00    -0.300 A  
HETATM   17  O   UNL     1     -11.738  13.358  69.653  1.00  0.00    -0.294 OA 
HETATM   18 CL   UNL     1      -9.984  18.044  66.715  1.00  0.00    -0.327 Cl 
HETATM   19  C   UNL     1     -10.815  16.856  68.993  1.00  0.00    -0.255 A  
HETATM   20  C   UNL     1     -10.570  16.703  67.623  1.00  0.00    -0.321 A  
ENDBRANCH   5  11
BRANCH   9  21
HETATM   21  C   UNL     1      -7.711  10.410  68.750  1.00  0.00    -0.104 A  
HETATM   22  C   UNL     1      -7.754  11.779  68.454  1.00  0.00    -0.131 A  
HETATM   23  C   UNL     1      -6.871  13.948  67.600  1.00  0.00    -0.193 C  
HETATM   24  C   UNL     1      -6.911   9.667  67.850  1.00  0.00    -0.074 A  
HETATM   25  C   UNL     1      -6.224  11.708  66.621  1.00  0.00    -0.079 A  
HETATM   26  C   UNL     1      -6.252  10.319  66.757  1.00  0.00    -0.070 A  
HETATM   27  C   UNL     1      -6.950  12.451  67.521  1.00  0.00    -0.142 A  
BRANCH  24  28
HETATM   28  N   UNL     1      -6.643   8.273  67.937  1.00  0.00    -0.060 NA 
HETATM   29  N   UNL     1      -7.575   7.309  67.711  1.00  0.00    -0.108 NA 
HETATM   30  C   UNL     1      -5.699   6.516  68.640  1.00  0.00    -0.017 A  
HETATM   31  C   UNL     1      -6.941   6.198  68.096  1.00  0.00    -0.080 A  
HETATM   32  N   UNL     1      -5.515   7.834  68.597  1.00  0.00    -0.026 NA 
ENDBRANCH  24  28
ENDBRANCH   9  21
TORSDOF 3
ENDMDL
MODEL       39
REMARK 921   NORMALIZED FREE ENERGY PREDICTED BY IDOCK:   -5.60 KCAL/MOL
REMARK 922        TOTAL FREE ENERGY PREDICTED BY IDOCK:   -8.21 KCAL/MOL
REMARK 923 INTER-LIGAND FREE ENERGY PREDICTED BY IDOCK:   -6.49 KCAL/MOL
REMARK 924 INTRA-LIGAND FREE ENERGY PREDICTED BY IDOCK:   -1.72 KCAL/MOL
REMARK 927      BINDING AFFINITY PREDICTED BY RF-SCORE:    0.00 PKD
ROOT
HETATM    1  C   UNL     1      -6.392  14.593  70.206  1.00  0.00    -0.171 C  
HETATM    2  C   UNL     1      -5.178  15.547  70.300  1.00  0.00    -0.129 C  
HETATM    3  C   UNL     1      -6.036  13.173  70.743  1.00  0.00    -0.019 C  
HETATM    4  C   UNL     1      -5.365  12.158  69.801  1.00  0.00    -0.083 C  
HETATM    5  N   UNL     1      -6.169  11.832  68.636  1.00  0.00    -0.052 NA 
HETATM    6  C   UNL     1      -6.049  12.676  67.456  1.00  0.00    -0.157 C  
HETATM    7  O   UNL     1      -8.933  15.601  69.582  1.00  0.00    -0.262 OA 
HETATM    8  C   UNL     1      -6.054  14.174  67.799  1.00  0.00    -0.122 C  
HETATM    9  C   UNL     1      -8.388  14.932  68.689  1.00  0.00    -0.164 C  
HETATM   10  N   UNL     1      -7.006  14.574  68.844  1.00  0.00    -0.104 N  
ENDROOT
BRANCH   5  11
HETATM   11  C   UNL     1      -7.059  10.813  68.583  1.00  0.00    -0.078 A  
HETATM   12  N   UNL     1      -6.978   9.728  67.833  1.00  0.00    -0.077 NA 
HETATM   13  C   UNL     1      -8.868   9.727  69.043  1.00  0.00    -0.153 A  
HETATM   14  C   UNL     1     -10.098   9.304  69.528  1.00  0.00    -0.205 A  
HETATM   15  C   UNL     1      -8.649   7.881  67.511  1.00  0.00    -0.122 A  
HETATM   16  C   UNL     1      -8.137   9.054  68.079  1.00  0.00    -0.105 A  
HETATM   17  O   UNL     1      -8.175  10.858  69.379  1.00  0.00    -0.091 OA 
HETATM   18 CL   UNL     1     -10.613   6.055  67.221  1.00  0.00    -0.317 Cl 
HETATM   19  C   UNL     1     -10.615   8.143  68.934  1.00  0.00    -0.161 A  
HETATM   20  C   UNL     1      -9.907   7.450  67.944  1.00  0.00    -0.148 A  
ENDBRANCH   5  11
BRANCH   9  21
HETATM   21  C   UNL     1      -9.248  14.580  67.455  1.00  0.00    -0.194 A  
HETATM   22  C   UNL     1      -9.669  13.261  67.237  1.00  0.00    -0.231 A  
HETATM   23  C   UNL     1     -11.175  11.468  66.383  1.00  0.00    -0.307 C  
HETATM   24  C   UNL     1      -9.624  15.466  66.418  1.00  0.00    -0.293 A  
HETATM   25  C   UNL     1     -10.862  13.688  65.212  1.00  0.00    -0.324 A  
HETATM   26  C   UNL     1     -10.351  14.985  65.280  1.00  0.00    -0.424 A  
HETATM   27  C   UNL     1     -10.555  12.828  66.239  1.00  0.00    -0.275 A  
BRANCH  24  28
HETATM   28  N   UNL     1      -9.379  16.867  66.397  1.00  0.00    -0.266 NA 
HETATM   29  N   UNL     1      -8.182  17.420  66.068  1.00  0.00    -0.536 NA 
HETATM   30  C   UNL     1      -9.606  18.888  66.977  1.00  0.00    -0.312 A  
HETATM   31  C   UNL     1      -8.363  18.707  66.376  1.00  0.00    -0.276 A  
HETATM   32  N   UNL     1     -10.243  17.721  67.048  1.00  0.00    -0.333 NA 
ENDBRANCH  24  28
ENDBRANCH   9  21
TORSDOF 3
ENDMDL
MODEL       40
REMARK 921   NORMALIZED FREE ENERGY PREDICTED BY IDOCK:   -5.60 KCAL/MOL
REMARK 922        TOTAL FREE ENERGY PREDICTED BY IDOCK:   -8.21 KCAL/MOL
REMARK 923 INTER-LIGAND FREE ENERGY PREDICTED BY IDOCK:   -6.91 KCAL/MOL
REMARK 924 INTRA-LIGAND FREE ENERGY PREDICTED BY IDOCK:   -1.29 KCAL/MOL
REMARK 927      BINDING AFFINITY PREDICTED BY RF-SCORE:    0.00 PKD
ROOT
HETATM    1  C   UNL     1      -6.783   7.707  69.040  1.00  0.00    -0.049 C  
HETATM    2  C   UNL     1      -5.532   7.290  69.848  1.00  0.00    -0.023 C  
HETATM    3  C   UNL     1      -6.384   8.386  67.694  1.00  0.00    -0.053 C  
HETATM    4  C   UNL     1      -6.063   9.890  67.675  1.00  0.00    -0.054 C  
HETATM    5  N   UNL     1      -7.175  10.724  68.097  1.00  0.00    -0.081 NA 
HETATM    6  C   UNL     1      -7.331  10.998  69.519  1.00  0.00    -0.061 C  
HETATM    7  O   UNL     1      -9.329   6.838  69.831  1.00  0.00    -0.156 OA 
HETATM    8  C   UNL     1      -7.146   9.742  70.386  1.00  0.00    -0.141 C  
HETATM    9  C   UNL     1      -9.094   8.043  70.015  1.00  0.00    -0.152 C  
HETATM   10  N   UNL     1      -7.748   8.515  69.847  1.00  0.00    -0.088 N  
ENDROOT
BRANCH   5  11
HETATM   11  C   UNL     1      -8.109  11.236  67.261  1.00  0.00    -0.140 A  
HETATM   12  N   UNL     1      -8.786  10.582  66.334  1.00  0.00    -0.141 NA 
HETATM   13  C   UNL     1      -9.342  12.756  66.351  1.00  0.00    -0.194 A  
HETATM   14  C   UNL     1      -9.965  13.939  65.976  1.00  0.00    -0.325 A  
HETATM   15  C   UNL     1     -10.387  11.460  64.610  1.00  0.00    -0.362 A  
HETATM   16  C   UNL     1      -9.536  11.540  65.719  1.00  0.00    -0.235 A  
HETATM   17  O   UNL     1      -8.429  12.567  67.351  1.00  0.00    -0.163 OA 
HETATM   18 CL   UNL     1     -11.991  12.610  62.771  1.00  0.00     0.238 Cl 
HETATM   19  C   UNL     1     -10.794  13.855  64.847  1.00  0.00    -0.413 A  
HETATM   20  C   UNL     1     -10.996  12.642  64.177  1.00  0.00    -0.387 A  
ENDBRANCH   5  11
BRANCH   9  21
HETATM   21  C   UNL     1     -10.280   8.928  70.457  1.00  0.00    -0.247 A  
HETATM   22  C   UNL     1     -10.588  10.102  69.757  1.00  0.00    -0.298 A  
HETATM   23  C   UNL     1     -12.069  11.914  68.898  1.00  0.00    -0.213 C  
HETATM   24  C   UNL     1     -11.098   8.723  71.594  1.00  0.00    -0.327 A  
HETATM   25  C   UNL     1     -12.453  10.741  71.106  1.00  0.00    -0.519 A  
HETATM   26  C   UNL     1     -12.111   9.676  71.940  1.00  0.00    -0.380 A  
HETATM   27  C   UNL     1     -11.706  10.923  69.966  1.00  0.00    -0.427 A  
BRANCH  24  28
HETATM   28  N   UNL     1     -11.047   7.594  72.458  1.00  0.00    -0.307 NA 
HETATM   29  N   UNL     1     -10.130   7.443  73.451  1.00  0.00    -0.309 NA 
HETATM   30  C   UNL     1     -11.282   5.571  73.027  1.00  0.00    -0.293 A  
HETATM   31  C   UNL     1     -10.337   6.184  73.845  1.00  0.00    -0.294 A  
HETATM   32  N   UNL     1     -11.704   6.435  72.106  1.00  0.00    -0.316 NA 
ENDBRANCH  24  28
ENDBRANCH   9  21
TORSDOF 3
ENDMDL
MODEL       41
REMARK 921   NORMALIZED FREE ENERGY PREDICTED BY IDOCK:   -5.58 KCAL/MOL
REMARK 922        TOTAL FREE ENERGY PREDICTED BY IDOCK:   -8.19 KCAL/MOL
REMARK 923 INTER-LIGAND FREE ENERGY PREDICTED BY IDOCK:   -6.62 KCAL/MOL
REMARK 924 INTRA-LIGAND FREE ENERGY PREDICTED BY IDOCK:   -1.56 KCAL/MOL
REMARK 927      BINDING AFFINITY PREDICTED BY RF-SCORE:    0.00 PKD
ROOT
HETATM    1  C   UNL     1     -12.641  12.733  65.200  1.00  0.00    -0.444 C  
HETATM    2  C   UNL     1     -13.150  11.870  64.022  1.00  0.00    -0.050 C  
HETATM    3  C   UNL     1     -12.810  14.254  64.899  1.00  0.00    -0.126 C  
HETATM    4  C   UNL     1     -11.722  14.988  64.097  1.00  0.00    -0.110 C  
HETATM    5  N   UNL     1     -10.418  14.965  64.736  1.00  0.00    -0.350 NA 
HETATM    6  C   UNL     1      -9.540  13.834  64.473  1.00  0.00     1.030 C  
HETATM    7  O   UNL     1     -11.992  11.534  67.651  1.00  0.00    -0.630 OA 
HETATM    8  C   UNL     1     -10.277  12.486  64.543  1.00  0.00    -0.307 C  
HETATM    9  C   UNL     1     -11.029  11.946  66.984  1.00  0.00    -0.278 C  
HETATM   10  N   UNL     1     -11.258  12.365  65.629  1.00  0.00    -0.309 N  
ENDROOT
BRANCH   5  11
HETATM   11  C   UNL     1      -9.972  15.910  65.598  1.00  0.00    -0.334 A  
HETATM   12  N   UNL     1      -8.714  16.236  65.834  1.00  0.00    -0.397 NA 
HETATM   13  C   UNL     1     -10.109  17.445  67.110  1.00  0.00    -0.307 A  
HETATM   14  C   UNL     1     -10.530  18.360  68.066  1.00  0.00    -0.390 A  
HETATM   15  C   UNL     1      -7.769  17.823  67.536  1.00  0.00    -0.214 A  
HETATM   16  C   UNL     1      -8.783  17.174  66.822  1.00  0.00    -0.244 A  
HETATM   17  O   UNL     1     -10.883  16.640  66.319  1.00  0.00    -0.174 OA 
HETATM   18 CL   UNL     1      -6.947  19.484  69.495  1.00  0.00    -0.345 Cl 
HETATM   19  C   UNL     1      -9.507  18.985  68.795  1.00  0.00    -0.433 A  
HETATM   20  C   UNL     1      -8.157  18.718  68.538  1.00  0.00    -0.346 A  
ENDBRANCH   5  11
BRANCH   9  21
HETATM   21  C   UNL     1      -9.645  11.927  67.669  1.00  0.00    -0.185 A  
HETATM   22  C   UNL     1      -8.978  13.126  67.954  1.00  0.00    -0.200 A  
HETATM   23  C   UNL     1      -7.423  14.621  69.204  1.00  0.00    -0.139 C  
HETATM   24  C   UNL     1      -8.890  10.776  67.998  1.00  0.00    -0.132 A  
HETATM   25  C   UNL     1      -7.045  12.134  68.945  1.00  0.00    -0.098 A  
HETATM   26  C   UNL     1      -7.575  10.904  68.552  1.00  0.00    -0.111 A  
HETATM   27  C   UNL     1      -7.788  13.260  68.685  1.00  0.00    -0.063 A  
BRANCH  24  28
HETATM   28  N   UNL     1      -9.334   9.431  67.868  1.00  0.00    -0.129 NA 
HETATM   29  N   UNL     1      -9.445   8.784  66.677  1.00  0.00    -0.185 NA 
HETATM   30  C   UNL     1     -10.419   7.686  68.368  1.00  0.00    -0.169 A  
HETATM   31  C   UNL     1     -10.071   7.654  67.020  1.00  0.00    -0.268 A  
HETATM   32  N   UNL     1     -10.007   8.830  68.910  1.00  0.00    -0.186 NA 
ENDBRANCH  24  28
ENDBRANCH   9  21
TORSDOF 3
ENDMDL
MODEL       42
REMARK 921   NORMALIZED FREE ENERGY PREDICTED BY IDOCK:   -5.57 KCAL/MOL
REMARK 922        TOTAL FREE ENERGY PREDICTED BY IDOCK:   -8.17 KCAL/MOL
REMARK 923 INTER-LIGAND FREE ENERGY PREDICTED BY IDOCK:   -7.73 KCAL/MOL
REMARK 924 INTRA-LIGAND FREE ENERGY PREDICTED BY IDOCK:   -0.44 KCAL/MOL
REMARK 927      BINDING AFFINITY PREDICTED BY RF-SCORE:    0.00 PKD
ROOT
HETATM    1  C   UNL     1     -10.348  18.172  67.894  1.00  0.00    -0.396 C  
HETATM    2  C   UNL     1     -10.785  19.157  66.784  1.00  0.00    -0.488 C  
HETATM    3  C   UNL     1      -8.864  18.414  68.309  1.00  0.00    -0.323 C  
HETATM    4  C   UNL     1      -7.737  17.752  67.496  1.00  0.00    -0.206 C  
HETATM    5  N   UNL     1      -7.802  16.301  67.493  1.00  0.00    -0.140 NA 
HETATM    6  C   UNL     1      -8.618  15.649  66.479  1.00  0.00    -0.300 C  
HETATM    7  O   UNL     1     -12.250  16.572  69.191  1.00  0.00     0.174 OA 
HETATM    8  C   UNL     1      -9.990  16.320  66.304  1.00  0.00    -0.317 C  
HETATM    9  C   UNL     1     -11.488  15.974  68.414  1.00  0.00    -0.331 C  
HETATM   10  N   UNL     1     -10.642  16.748  67.549  1.00  0.00    -0.324 N  
ENDROOT
BRANCH   5  11
HETATM   11  C   UNL     1      -7.183  15.506  68.398  1.00  0.00    -0.114 A  
HETATM   12  N   UNL     1      -7.043  14.195  68.334  1.00  0.00    -0.094 NA 
HETATM   13  C   UNL     1      -6.138  15.008  70.220  1.00  0.00    -0.144 A  
HETATM   14  C   UNL     1      -5.503  15.020  71.455  1.00  0.00     0.002 A  
HETATM   15  C   UNL     1      -6.092  12.607  70.032  1.00  0.00    -0.115 A  
HETATM   16  C   UNL     1      -6.424  13.859  69.502  1.00  0.00    -0.115 A  
HETATM   17  O   UNL     1      -6.617  16.075  69.511  1.00  0.00    -0.184 OA 
HETATM   18 CL   UNL     1      -5.133  11.060  72.023  1.00  0.00     0.037 Cl 
HETATM   19  C   UNL     1      -5.199  13.759  71.991  1.00  0.00    -0.196 A  
HETATM   20  C   UNL     1      -5.492  12.579  71.296  1.00  0.00    -0.037 A  
ENDBRANCH   5  11
BRANCH   9  21
HETATM   21  C   UNL     1     -11.554  14.431  68.418  1.00  0.00    -0.351 A  
HETATM   22  C   UNL     1     -11.336  13.709  67.238  1.00  0.00    -0.346 A  
HETATM   23  C   UNL     1     -10.638  11.744  65.871  1.00  0.00    -0.314 C  
HETATM   24  C   UNL     1     -11.899  13.612  69.520  1.00  0.00    -0.337 A  
HETATM   25  C   UNL     1     -11.629  11.538  68.189  1.00  0.00    -0.378 A  
HETATM   26  C   UNL     1     -12.010  12.192  69.362  1.00  0.00    -0.329 A  
HETATM   27  C   UNL     1     -11.235  12.314  67.125  1.00  0.00    -0.365 A  
BRANCH  24  28
HETATM   28  N   UNL     1     -12.124  14.064  70.849  1.00  0.00    -0.341 NA 
HETATM   29  N   UNL     1     -13.343  14.066  71.451  1.00  0.00    -0.335 NA 
HETATM   30  C   UNL     1     -11.802  15.226  72.587  1.00  0.00    -0.429 A  
HETATM   31  C   UNL     1     -13.109  14.744  72.578  1.00  0.00    -0.402 A  
HETATM   32  N   UNL     1     -11.179  14.851  71.472  1.00  0.00    -0.185 NA 
ENDBRANCH  24  28
ENDBRANCH   9  21
TORSDOF 3
ENDMDL
MODEL       43
REMARK 921   NORMALIZED FREE ENERGY PREDICTED BY IDOCK:   -5.54 KCAL/MOL
REMARK 922        TOTAL FREE ENERGY PREDICTED BY IDOCK:   -8.13 KCAL/MOL
REMARK 923 INTER-LIGAND FREE ENERGY PREDICTED BY IDOCK:   -6.40 KCAL/MOL
REMARK 924 INTRA-LIGAND FREE ENERGY PREDICTED BY IDOCK:   -1.73 KCAL/MOL
REMARK 927      BINDING AFFINITY PREDICTED BY RF-SCORE:    0.00 PKD
ROOT
HETATM    1  C   UNL     1     -11.734  11.200  70.420  1.00  0.00    -0.320 C  
HETATM    2  C   UNL     1     -13.068  10.455  70.662  1.00  0.00    -0.293 C  
HETATM    3  C   UNL     1     -11.931  12.746  70.487  1.00  0.00    -0.277 C  
HETATM    4  C   UNL     1     -12.398  13.500  69.230  1.00  0.00    -0.081 C  
HETATM    5  N   UNL     1     -11.484  13.375  68.108  1.00  0.00    -0.284 NA 
HETATM    6  C   UNL     1     -11.639  12.236  67.215  1.00  0.00    -0.357 C  
HETATM    7  O   UNL     1      -9.315   9.782  70.373  1.00  0.00    -0.242 OA 
HETATM    8  C   UNL     1     -11.857  10.916  67.973  1.00  0.00     0.012 C  
HETATM    9  C   UNL     1      -9.707  10.209  69.275  1.00  0.00    -0.224 C  
HETATM   10  N   UNL     1     -11.036  10.745  69.180  1.00  0.00    -0.229 N  
ENDROOT
BRANCH   5  11
HETATM   11  C   UNL     1     -10.464  14.229  67.854  1.00  0.00    -0.240 A  
HETATM   12  N   UNL     1     -10.422  15.156  66.915  1.00  0.00    -0.277 NA 
HETATM   13  C   UNL     1      -8.506  15.110  68.082  1.00  0.00    -0.152 A  
HETATM   14  C   UNL     1      -7.212  15.435  68.465  1.00  0.00    -0.114 A  
HETATM   15  C   UNL     1      -8.525  16.654  66.233  1.00  0.00    -0.355 A  
HETATM   16  C   UNL     1      -9.172  15.691  67.016  1.00  0.00    -0.222 A  
HETATM   17  O   UNL     1      -9.335  14.172  68.633  1.00  0.00    -0.201 OA 
HETATM   18 CL   UNL     1      -6.339  18.094  65.582  1.00  0.00    -0.293 Cl 
HETATM   19  C   UNL     1      -6.561  16.380  67.657  1.00  0.00    -0.172 A  
HETATM   20  C   UNL     1      -7.203  16.972  66.562  1.00  0.00    -0.276 A  
ENDBRANCH   5  11
BRANCH   9  21
HETATM   21  C   UNL     1      -8.730  10.082  68.086  1.00  0.00    -0.122 A  
HETATM   22  C   UNL     1      -7.849  11.126  67.777  1.00  0.00    -0.114 A  
HETATM   23  C   UNL     1      -5.759  12.146  66.879  1.00  0.00    -0.009 C  
HETATM   24  C   UNL     1      -8.663   9.004  67.171  1.00  0.00    -0.116 A  
HETATM   25  C   UNL     1      -6.815  10.064  65.904  1.00  0.00    -0.108 A  
HETATM   26  C   UNL     1      -7.767   9.055  66.054  1.00  0.00    -0.095 A  
HETATM   27  C   UNL     1      -6.827  11.092  66.816  1.00  0.00    -0.134 A  
BRANCH  24  28
HETATM   28  N   UNL     1      -9.402   7.792  67.264  1.00  0.00    -0.140 NA 
HETATM   29  N   UNL     1     -10.690   7.658  66.849  1.00  0.00    -0.314 NA 
HETATM   30  C   UNL     1      -9.976   5.924  68.072  1.00  0.00    -0.137 A  
HETATM   31  C   UNL     1     -11.016   6.447  67.308  1.00  0.00    -0.392 A  
HETATM   32  N   UNL     1      -8.963   6.788  68.100  1.00  0.00    -0.120 NA 
ENDBRANCH  24  28
ENDBRANCH   9  21
TORSDOF 3
ENDMDL
MODEL       44
REMARK 921   NORMALIZED FREE ENERGY PREDICTED BY IDOCK:   -5.51 KCAL/MOL
REMARK 922        TOTAL FREE ENERGY PREDICTED BY IDOCK:   -8.10 KCAL/MOL
REMARK 923 INTER-LIGAND FREE ENERGY PREDICTED BY IDOCK:   -6.74 KCAL/MOL
REMARK 924 INTRA-LIGAND FREE ENERGY PREDICTED BY IDOCK:   -1.36 KCAL/MOL
REMARK 927      BINDING AFFINITY PREDICTED BY RF-SCORE:    0.00 PKD
ROOT
HETATM    1  C   UNL     1      -9.264   6.431  72.721  1.00  0.00    -0.137 C  
HETATM    2  C   UNL     1      -9.545   5.163  73.560  1.00  0.00    -0.143 C  
HETATM    3  C   UNL     1     -10.078   7.651  73.252  1.00  0.00    -0.393 C  
HETATM    4  C   UNL     1     -11.528   7.852  72.780  1.00  0.00    -0.368 C  
HETATM    5  N   UNL     1     -11.650   8.029  71.344  1.00  0.00    -0.260 NA 
HETATM    6  C   UNL     1     -11.774   6.842  70.510  1.00  0.00    -0.350 C  
HETATM    7  O   UNL     1      -7.177   6.449  70.847  1.00  0.00    -0.068 OA 
HETATM    8  C   UNL     1     -10.782   5.736  70.905  1.00  0.00    -0.264 C  
HETATM    9  C   UNL     1      -8.324   6.436  70.371  1.00  0.00    -0.126 C  
HETATM   10  N   UNL     1      -9.433   6.200  71.254  1.00  0.00    -0.163 N  
ENDROOT
BRANCH   5  11
HETATM   11  C   UNL     1     -11.616   9.228  70.716  1.00  0.00    -0.285 A  
HETATM   12  N   UNL     1     -11.893  10.407  71.243  1.00  0.00    -0.332 NA 
HETATM   13  C   UNL     1     -11.372  10.603  69.069  1.00  0.00    -0.277 A  
HETATM   14  C   UNL     1     -11.160  11.201  67.834  1.00  0.00    -0.331 A  
HETATM   15  C   UNL     1     -12.048  12.655  70.134  1.00  0.00    -0.368 A  
HETATM   16  C   UNL     1     -11.788  11.281  70.202  1.00  0.00    -0.364 A  
HETATM   17  O   UNL     1     -11.251   9.280  69.394  1.00  0.00    -0.107 OA 
HETATM   18 CL   UNL     1     -12.270  14.955  68.742  1.00  0.00    -0.191 Cl 
HETATM   19  C   UNL     1     -11.450  12.573  67.769  1.00  0.00    -0.378 A  
HETATM   20  C   UNL     1     -11.889  13.282  68.894  1.00  0.00    -0.327 A  
ENDBRANCH   5  11
BRANCH   9  21
HETATM   21  C   UNL     1      -8.451   6.632  68.845  1.00  0.00    -0.123 A  
HETATM   22  C   UNL     1      -9.117   5.681  68.060  1.00  0.00    -0.107 A  
HETATM   23  C   UNL     1     -10.445   4.867  66.114  1.00  0.00    -0.346 C  
HETATM   24  C   UNL     1      -7.880   7.682  68.086  1.00  0.00    -0.121 A  
HETATM   25  C   UNL     1      -8.808   6.790  65.968  1.00  0.00    -0.150 A  
HETATM   26  C   UNL     1      -8.000   7.695  66.659  1.00  0.00    -0.107 A  
HETATM   27  C   UNL     1      -9.418   5.796  66.695  1.00  0.00    -0.161 A  
BRANCH  24  28
HETATM   28  N   UNL     1      -7.194   8.809  68.618  1.00  0.00    -0.072 NA 
HETATM   29  N   UNL     1      -5.851   8.849  68.822  1.00  0.00    -0.041 NA 
HETATM   30  C   UNL     1      -6.936  10.552  69.787  1.00  0.00    -0.144 A  
HETATM   31  C   UNL     1      -5.695   9.988  69.502  1.00  0.00    -0.037 A  
HETATM   32  N   UNL     1      -7.902   9.789  69.281  1.00  0.00    -0.095 NA 
ENDBRANCH  24  28
ENDBRANCH   9  21
TORSDOF 3
ENDMDL
MODEL       45
REMARK 921   NORMALIZED FREE ENERGY PREDICTED BY IDOCK:   -5.49 KCAL/MOL
REMARK 922        TOTAL FREE ENERGY PREDICTED BY IDOCK:   -8.08 KCAL/MOL
REMARK 923 INTER-LIGAND FREE ENERGY PREDICTED BY IDOCK:   -6.46 KCAL/MOL
REMARK 924 INTRA-LIGAND FREE ENERGY PREDICTED BY IDOCK:   -1.62 KCAL/MOL
REMARK 927      BINDING AFFINITY PREDICTED BY RF-SCORE:    0.00 PKD
ROOT
HETATM    1  C   UNL     1      -6.299  13.517  68.592  1.00  0.00    -0.091 C  
HETATM    2  C   UNL     1      -5.290  13.926  67.493  1.00  0.00     0.171 C  
HETATM    3  C   UNL     1      -6.287  11.975  68.822  1.00  0.00    -0.071 C  
HETATM    4  C   UNL     1      -7.145  11.072  67.919  1.00  0.00    -0.081 C  
HETATM    5  N   UNL     1      -8.566  11.363  67.994  1.00  0.00    -0.140 NA 
HETATM    6  C   UNL     1      -9.108  12.387  67.113  1.00  0.00    -0.199 C  
HETATM    7  O   UNL     1      -7.532  15.476  70.175  1.00  0.00     0.041 OA 
HETATM    8  C   UNL     1      -8.230  13.648  67.064  1.00  0.00    -0.037 C  
HETATM    9  C   UNL     1      -8.268  14.916  69.346  1.00  0.00    -0.084 C  
HETATM   10  N   UNL     1      -7.666  14.070  68.353  1.00  0.00    -0.130 N  
ENDROOT
BRANCH   5  11
HETATM   11  C   UNL     1      -9.423  10.772  68.860  1.00  0.00    -0.181 A  
HETATM   12  N   UNL     1     -10.728  10.962  68.938  1.00  0.00    -0.201 NA 
HETATM   13  C   UNL     1     -10.035   9.510  70.502  1.00  0.00    -0.273 A  
HETATM   14  C   UNL     1     -10.094   8.642  71.584  1.00  0.00    -0.365 A  
HETATM   15  C   UNL     1     -12.374  10.075  70.614  1.00  0.00    -0.342 A  
HETATM   16  C   UNL     1     -11.122  10.206  70.002  1.00  0.00    -0.308 A  
HETATM   17  O   UNL     1      -8.937   9.863  69.766  1.00  0.00    -0.207 OA 
HETATM   18 CL   UNL     1     -13.961   9.107  72.569  1.00  0.00    -0.510 Cl 
HETATM   19  C   UNL     1     -11.346   8.537  72.208  1.00  0.00    -0.441 A  
HETATM   20  C   UNL     1     -12.460   9.243  71.735  1.00  0.00    -0.381 A  
ENDBRANCH   5  11
BRANCH   9  21
HETATM   21  C   UNL     1      -9.779  15.221  69.433  1.00  0.00    -0.248 A  
HETATM   22  C   UNL     1     -10.641  14.351  70.113  1.00  0.00     0.305 A  
HETATM   23  C   UNL     1     -12.664  13.721  71.425  1.00  0.00    -0.450 C  
HETATM   24  C   UNL     1     -10.451  16.301  68.810  1.00  0.00    -0.282 A  
HETATM   25  C   UNL     1     -12.644  15.590  69.722  1.00  0.00    -0.097 A  
HETATM   26  C   UNL     1     -11.877  16.416  68.899  1.00  0.00     0.066 A  
HETATM   27  C   UNL     1     -12.000  14.570  70.380  1.00  0.00    -0.386 A  
BRANCH  24  28
HETATM   28  N   UNL     1      -9.829  17.363  68.098  1.00  0.00    -0.287 NA 
HETATM   29  N   UNL     1      -9.315  18.472  68.693  1.00  0.00    -0.333 NA 
HETATM   30  C   UNL     1      -9.471  18.661  66.467  1.00  0.00    -0.322 A  
HETATM   31  C   UNL     1      -9.031  19.255  67.648  1.00  0.00    -0.298 A  
HETATM   32  N   UNL     1     -10.030  17.484  66.740  1.00  0.00    -0.300 NA 
ENDBRANCH  24  28
ENDBRANCH   9  21
TORSDOF 3
ENDMDL
MODEL       46
REMARK 921   NORMALIZED FREE ENERGY PREDICTED BY IDOCK:   -5.48 KCAL/MOL
REMARK 922        TOTAL FREE ENERGY PREDICTED BY IDOCK:   -8.07 KCAL/MOL
REMARK 923 INTER-LIGAND FREE ENERGY PREDICTED BY IDOCK:   -7.16 KCAL/MOL
REMARK 924 INTRA-LIGAND FREE ENERGY PREDICTED BY IDOCK:   -0.90 KCAL/MOL
REMARK 927      BINDING AFFINITY PREDICTED BY RF-SCORE:    0.00 PKD
ROOT
HETATM    1  C   UNL     1      -6.443  14.415  69.437  1.00  0.00    -0.132 C  
HETATM    2  C   UNL     1      -5.149  15.069  68.899  1.00  0.00    -0.096 C  
HETATM    3  C   UNL     1      -6.120  13.305  70.484  1.00  0.00    -0.039 C  
HETATM    4  C   UNL     1      -5.792  11.883  69.997  1.00  0.00    -0.150 C  
HETATM    5  N   UNL     1      -6.872  11.266  69.247  1.00  0.00    -0.106 NA 
HETATM    6  C   UNL     1      -6.940  11.505  67.813  1.00  0.00    -0.078 C  
HETATM    7  O   UNL     1      -8.942  15.544  68.852  1.00  0.00    -0.187 OA 
HETATM    8  C   UNL     1      -6.712  12.981  67.449  1.00  0.00    -0.115 C  
HETATM    9  C   UNL     1      -8.689  14.474  68.274  1.00  0.00    -0.173 C  
HETATM   10  N   UNL     1      -7.352  13.953  68.346  1.00  0.00    -0.106 N  
ENDROOT
BRANCH   5  11
HETATM   11  C   UNL     1      -7.850  10.509  69.798  1.00  0.00    -0.034 A  
HETATM   12  N   UNL     1      -7.712   9.607  70.752  1.00  0.00    -0.311 NA 
HETATM   13  C   UNL     1      -9.846   9.731  70.070  1.00  0.00    -0.251 A  
HETATM   14  C   UNL     1     -11.200   9.437  69.984  1.00  0.00    -0.217 A  
HETATM   15  C   UNL     1      -9.408   8.020  71.708  1.00  0.00    -0.218 A  
HETATM   16  C   UNL     1      -8.957   9.073  70.903  1.00  0.00    -0.243 A  
HETATM   17  O   UNL     1      -9.141  10.664  69.360  1.00  0.00    -0.152 OA 
HETATM   18 CL   UNL     1     -11.343   6.328  72.525  1.00  0.00    -0.311 Cl 
HETATM   19  C   UNL     1     -11.637   8.362  70.773  1.00  0.00    -0.252 A  
HETATM   20  C   UNL     1     -10.758   7.667  71.613  1.00  0.00    -0.211 A  
ENDBRANCH   5  11
BRANCH   9  21
HETATM   21  C   UNL     1      -9.841  13.816  67.483  1.00  0.00    -0.230 A  
HETATM   22  C   UNL     1      -9.601  13.240  66.229  1.00  0.00    -0.244 A  
HETATM   23  C   UNL     1      -9.989  11.656  64.343  1.00  0.00    -0.298 C  
HETATM   24  C   UNL     1     -11.205  13.785  67.862  1.00  0.00    -0.274 A  
HETATM   25  C   UNL     1     -11.845  12.529  65.823  1.00  0.00    -0.494 A  
HETATM   26  C   UNL     1     -12.188  13.217  66.988  1.00  0.00    -0.310 A  
HETATM   27  C   UNL     1     -10.518  12.499  65.467  1.00  0.00    -0.305 A  
BRANCH  24  28
HETATM   28  N   UNL     1     -11.730  14.247  69.100  1.00  0.00    -0.299 NA 
HETATM   29  N   UNL     1     -12.240  13.428  70.058  1.00  0.00    -0.321 NA 
HETATM   30  C   UNL     1     -12.686  15.592  70.424  1.00  0.00    -0.338 A  
HETATM   31  C   UNL     1     -12.781  14.294  70.920  1.00  0.00    -0.357 A  
HETATM   32  N   UNL     1     -12.070  15.576  69.244  1.00  0.00    -0.309 NA 
ENDBRANCH  24  28
ENDBRANCH   9  21
TORSDOF 3
ENDMDL
MODEL       47
REMARK 921   NORMALIZED FREE ENERGY PREDICTED BY IDOCK:   -5.48 KCAL/MOL
REMARK 922        TOTAL FREE ENERGY PREDICTED BY IDOCK:   -8.06 KCAL/MOL
REMARK 923 INTER-LIGAND FREE ENERGY PREDICTED BY IDOCK:   -6.76 KCAL/MOL
REMARK 924 INTRA-LIGAND FREE ENERGY PREDICTED BY IDOCK:   -1.30 KCAL/MOL
REMARK 927      BINDING AFFINITY PREDICTED BY RF-SCORE:    0.00 PKD
ROOT
HETATM    1  C   UNL     1      -7.824   9.755  64.502  1.00  0.00    -0.137 C  
HETATM    2  C   UNL     1      -7.449   8.292  64.168  1.00  0.00    -0.108 C  
HETATM    3  C   UNL     1      -6.558  10.666  64.540  1.00  0.00     0.163 C  
HETATM    4  C   UNL     1      -5.728  10.750  65.832  1.00  0.00    -0.145 C  
HETATM    5  N   UNL     1      -6.478  11.253  66.969  1.00  0.00    -0.101 NA 
HETATM    6  C   UNL     1      -7.232  10.302  67.774  1.00  0.00    -0.086 C  
HETATM    7  O   UNL     1     -10.511  10.554  64.522  1.00  0.00    -0.310 OA 
HETATM    8  C   UNL     1      -8.023   9.300  66.918  1.00  0.00    -0.105 C  
HETATM    9  C   UNL     1      -9.966  10.481  65.635  1.00  0.00    -0.270 C  
HETATM   10  N   UNL     1      -8.671   9.868  65.727  1.00  0.00    -0.136 N  
ENDROOT
BRANCH   5  11
HETATM   11  C   UNL     1      -6.559  12.560  67.315  1.00  0.00    -0.123 A  
HETATM   12  N   UNL     1      -7.633  13.202  67.738  1.00  0.00    -0.139 NA 
HETATM   13  C   UNL     1      -5.872  14.586  67.602  1.00  0.00     0.002 A  
HETATM   14  C   UNL     1      -5.140  15.765  67.658  1.00  0.00    -0.097 A  
HETATM   15  C   UNL     1      -7.944  15.647  68.219  1.00  0.00    -0.129 A  
HETATM   16  C   UNL     1      -7.225  14.495  67.880  1.00  0.00    -0.158 A  
HETATM   17  O   UNL     1      -5.433  13.341  67.244  1.00  0.00    -0.351 OA 
HETATM   18 CL   UNL     1      -8.104  18.315  68.579  1.00  0.00    -0.325 Cl 
HETATM   19  C   UNL     1      -5.875  16.918  67.972  1.00  0.00    -0.126 A  
HETATM   20  C   UNL     1      -7.248  16.860  68.242  1.00  0.00    -0.186 A  
ENDBRANCH   5  11
BRANCH   9  21
HETATM   21  C   UNL     1     -10.763  11.023  66.842  1.00  0.00    -0.325 A  
HETATM   22  C   UNL     1     -10.958  10.228  67.978  1.00  0.00    -0.345 A  
HETATM   23  C   UNL     1     -11.334   9.779  70.402  1.00  0.00    -0.362 C  
HETATM   24  C   UNL     1     -11.422  12.274  66.915  1.00  0.00    -0.356 A  
HETATM   25  C   UNL     1     -12.223  11.830  69.218  1.00  0.00    -0.202 A  
HETATM   26  C   UNL     1     -12.204  12.616  68.065  1.00  0.00     0.061 A  
HETATM   27  C   UNL     1     -11.542  10.636  69.187  1.00  0.00    -0.342 A  
BRANCH  24  28
HETATM   28  N   UNL     1     -11.357  13.302  65.934  1.00  0.00    -0.305 NA 
HETATM   29  N   UNL     1     -10.425  14.291  65.935  1.00  0.00    -0.296 NA 
HETATM   30  C   UNL     1     -12.099  14.664  64.496  1.00  0.00    -0.475 A  
HETATM   31  C   UNL     1     -10.869  15.109  64.977  1.00  0.00    -0.440 A  
HETATM   32  N   UNL     1     -12.450  13.548  65.130  1.00  0.00    -0.509 NA 
ENDBRANCH  24  28
ENDBRANCH   9  21
TORSDOF 3
ENDMDL
MODEL       48
REMARK 921   NORMALIZED FREE ENERGY PREDICTED BY IDOCK:   -5.44 KCAL/MOL
REMARK 922        TOTAL FREE ENERGY PREDICTED BY IDOCK:   -8.02 KCAL/MOL
REMARK 923 INTER-LIGAND FREE ENERGY PREDICTED BY IDOCK:   -7.32 KCAL/MOL
REMARK 924 INTRA-LIGAND FREE ENERGY PREDICTED BY IDOCK:   -0.70 KCAL/MOL
REMARK 927      BINDING AFFINITY PREDICTED BY RF-SCORE:    0.00 PKD
ROOT
HETATM    1  C   UNL     1     -10.365  17.378  68.111  1.00  0.00    -0.366 C  
HETATM    2  C   UNL     1     -10.778  18.429  67.054  1.00  0.00    -0.330 C  
HETATM    3  C   UNL     1      -8.920  17.643  68.635  1.00  0.00    -0.261 C  
HETATM    4  C   UNL     1      -7.721  17.090  67.847  1.00  0.00    -0.175 C  
HETATM    5  N   UNL     1      -7.723  15.642  67.730  1.00  0.00    -0.134 NA 
HETATM    6  C   UNL     1      -8.449  15.040  66.621  1.00  0.00    -0.157 C  
HETATM    7  O   UNL     1     -12.272  15.611  69.163  1.00  0.00    -0.298 OA 
HETATM    8  C   UNL     1      -9.836  15.671  66.412  1.00  0.00    -0.274 C  
HETATM    9  C   UNL     1     -11.440  15.105  68.393  1.00  0.00    -0.332 C  
HETATM   10  N   UNL     1     -10.578  15.975  67.643  1.00  0.00    -0.304 N  
ENDROOT
BRANCH   5  11
HETATM   11  C   UNL     1      -7.126  14.803  68.610  1.00  0.00    -0.112 A  
HETATM   12  N   UNL     1      -7.071  13.486  68.535  1.00  0.00    -0.100 NA 
HETATM   13  C   UNL     1      -6.054  14.227  70.393  1.00  0.00    -0.176 A  
HETATM   14  C   UNL     1      -5.378  14.190  71.605  1.00  0.00    -0.203 A  
HETATM   15  C   UNL     1      -6.166  11.829  70.192  1.00  0.00    -0.104 A  
HETATM   16  C   UNL     1      -6.436  13.104  69.680  1.00  0.00    -0.047 A  
HETATM   17  O   UNL     1      -6.487  15.327  69.706  1.00  0.00    -0.149 OA 
HETATM   18 CL   UNL     1      -5.241  10.210  72.141  1.00  0.00    -0.028 Cl 
HETATM   19  C   UNL     1      -5.136  12.909  72.124  1.00  0.00    -0.008 A  
HETATM   20  C   UNL     1      -5.526  11.754  71.434  1.00  0.00     0.124 A  
ENDBRANCH   5  11
BRANCH   9  21
HETATM   21  C   UNL     1     -11.440  13.565  68.276  1.00  0.00    -0.345 A  
HETATM   22  C   UNL     1     -11.344  12.767  69.424  1.00  0.00    -0.267 A  
HETATM   23  C   UNL     1     -11.706  10.727  70.811  1.00  0.00    -0.400 C  
HETATM   24  C   UNL     1     -11.453  12.817  67.075  1.00  0.00    -0.341 A  
HETATM   25  C   UNL     1     -11.419  10.661  68.299  1.00  0.00    -0.318 A  
HETATM   26  C   UNL     1     -11.359  11.387  67.108  1.00  0.00    -0.327 A  
HETATM   27  C   UNL     1     -11.465  11.370  69.476  1.00  0.00    -0.381 A  
BRANCH  24  28
HETATM   28  N   UNL     1     -11.595  13.356  65.766  1.00  0.00    -0.322 NA 
HETATM   29  N   UNL     1     -12.682  14.058  65.352  1.00  0.00    -0.651 NA 
HETATM   30  C   UNL     1     -11.327  13.467  63.671  1.00  0.00    -0.060 A  
HETATM   31  C   UNL     1     -12.465  14.179  64.039  1.00  0.00    -0.163 A  
HETATM   32  N   UNL     1     -10.791  12.892  64.746  1.00  0.00    -0.310 NA 
ENDBRANCH  24  28
ENDBRANCH   9  21
TORSDOF 3
ENDMDL
MODEL       49
REMARK 921   NORMALIZED FREE ENERGY PREDICTED BY IDOCK:   -5.44 KCAL/MOL
REMARK 922        TOTAL FREE ENERGY PREDICTED BY IDOCK:   -8.02 KCAL/MOL
REMARK 923 INTER-LIGAND FREE ENERGY PREDICTED BY IDOCK:   -7.46 KCAL/MOL
REMARK 924 INTRA-LIGAND FREE ENERGY PREDICTED BY IDOCK:   -0.55 KCAL/MOL
REMARK 927      BINDING AFFINITY PREDICTED BY RF-SCORE:    0.00 PKD
ROOT
HETATM    1  C   UNL     1     -10.531   8.833  69.622  1.00  0.00    -0.220 C  
HETATM    2  C   UNL     1      -9.998   9.435  70.943  1.00  0.00    -0.353 C  
HETATM    3  C   UNL     1     -10.493   7.274  69.657  1.00  0.00    -0.239 C  
HETATM    4  C   UNL     1      -9.193   6.544  69.281  1.00  0.00    -0.139 C  
HETATM    5  N   UNL     1      -8.752   6.811  67.923  1.00  0.00    -0.121 NA 
HETATM    6  C   UNL     1      -7.909   7.974  67.687  1.00  0.00    -0.122 C  
HETATM    7  O   UNL     1     -11.802  10.473  67.735  1.00  0.00    -0.361 OA 
HETATM    8  C   UNL     1      -8.413   9.227  68.422  1.00  0.00    -0.120 C  
HETATM    9  C   UNL     1     -10.672  10.067  67.418  1.00  0.00    -0.274 C  
HETATM   10  N   UNL     1      -9.871   9.414  68.415  1.00  0.00    -0.156 N  
ENDROOT
BRANCH   5  11
HETATM   11  C   UNL     1      -9.105   6.071  66.845  1.00  0.00    -0.125 A  
HETATM   12  N   UNL     1     -10.232   5.404  66.676  1.00  0.00    -0.217 NA 
HETATM   13  C   UNL     1      -8.871   5.136  64.913  1.00  0.00    -0.118 A  
HETATM   14  C   UNL     1      -8.410   4.673  63.688  1.00  0.00    -0.117 A  
HETATM   15  C   UNL     1     -10.909   3.856  64.818  1.00  0.00    -0.034 A  
HETATM   16  C   UNL     1     -10.080   4.770  65.479  1.00  0.00    -0.136 A  
HETATM   17  O   UNL     1      -8.240   5.982  65.784  1.00  0.00    -0.122 OA 
HETATM   18 CL   UNL     1     -11.403   2.149  62.789  1.00  0.00    -0.223 Cl 
HETATM   19  C   UNL     1      -9.234   3.737  63.046  1.00  0.00    -0.107 A  
HETATM   20  C   UNL     1     -10.455   3.334  63.602  1.00  0.00    -0.244 A  
ENDBRANCH   5  11
BRANCH   9  21
HETATM   21  C   UNL     1     -10.210  10.346  65.971  1.00  0.00    -0.295 A  
HETATM   22  C   UNL     1      -9.294   9.492  65.342  1.00  0.00    -0.324 A  
HETATM   23  C   UNL     1      -8.204   8.353  63.411  1.00  0.00    -0.114 C  
HETATM   24  C   UNL     1     -10.564  11.466  65.181  1.00  0.00    -0.293 A  
HETATM   25  C   UNL     1      -9.201  10.673  63.268  1.00  0.00    -0.295 A  
HETATM   26  C   UNL     1      -9.989  11.648  63.881  1.00  0.00    -0.358 A  
HETATM   27  C   UNL     1      -8.892   9.551  63.999  1.00  0.00    -0.243 A  
BRANCH  24  28
HETATM   28  N   UNL     1     -11.509  12.466  65.540  1.00  0.00    -0.346 NA 
HETATM   29  N   UNL     1     -12.715  12.620  64.931  1.00  0.00    -0.778 NA 
HETATM   30  C   UNL     1     -12.177  14.339  66.261  1.00  0.00    -0.410 A  
HETATM   31  C   UNL     1     -13.154  13.771  65.447  1.00  0.00    -0.164 A  
HETATM   32  N   UNL     1     -11.104  13.550  66.288  1.00  0.00    -0.299 NA 
ENDBRANCH  24  28
ENDBRANCH   9  21
TORSDOF 3
ENDMDL
MODEL       50
REMARK 921   NORMALIZED FREE ENERGY PREDICTED BY IDOCK:   -5.42 KCAL/MOL
REMARK 922        TOTAL FREE ENERGY PREDICTED BY IDOCK:   -8.00 KCAL/MOL
REMARK 923 INTER-LIGAND FREE ENERGY PREDICTED BY IDOCK:   -6.91 KCAL/MOL
REMARK 924 INTRA-LIGAND FREE ENERGY PREDICTED BY IDOCK:   -1.09 KCAL/MOL
REMARK 927      BINDING AFFINITY PREDICTED BY RF-SCORE:    0.00 PKD
ROOT
HETATM    1  C   UNL     1      -9.859  16.183  66.154  1.00  0.00    -0.333 C  
HETATM    2  C   UNL     1     -10.482  17.598  66.162  1.00  0.00    -0.295 C  
HETATM    3  C   UNL     1     -10.896  15.113  65.692  1.00  0.00    -0.367 C  
HETATM    4  C   UNL     1     -11.864  14.509  66.724  1.00  0.00    -0.371 C  
HETATM    5  N   UNL     1     -11.193  13.811  67.806  1.00  0.00    -0.278 NA 
HETATM    6  C   UNL     1     -10.779  14.579  68.971  1.00  0.00    -0.251 C  
HETATM    7  O   UNL     1      -7.093  15.856  66.484  1.00  0.00    -0.143 OA 
HETATM    8  C   UNL     1     -10.103  15.907  68.592  1.00  0.00    -0.216 C  
HETATM    9  C   UNL     1      -7.793  15.499  67.446  1.00  0.00    -0.186 C  
HETATM   10  N   UNL     1      -9.189  15.840  67.444  1.00  0.00    -0.200 N  
ENDROOT
BRANCH   5  11
HETATM   11  C   UNL     1     -10.888  12.491  67.793  1.00  0.00    -0.225 A  
HETATM   12  N   UNL     1     -10.931  11.679  66.752  1.00  0.00    -0.278 NA 
HETATM   13  C   UNL     1     -10.308  10.577  68.605  1.00  0.00    -0.185 A  
HETATM   14  C   UNL     1      -9.934   9.518  69.420  1.00  0.00    -0.199 A  
HETATM   15  C   UNL     1     -10.576   9.195  66.650  1.00  0.00    -0.157 A  
HETATM   16  C   UNL     1     -10.611  10.455  67.259  1.00  0.00    -0.267 A  
HETATM   17  O   UNL     1     -10.476  11.889  68.954  1.00  0.00    -0.202 OA 
HETATM   18 CL   UNL     1     -10.266   6.518  66.768  1.00  0.00    -0.260 Cl 
HETATM   19  C   UNL     1      -9.929   8.255  68.808  1.00  0.00    -0.193 A  
HETATM   20  C   UNL     1     -10.247   8.098  67.453  1.00  0.00    -0.258 A  
ENDBRANCH   5  11
BRANCH   9  21
HETATM   21  C   UNL     1      -7.079  14.751  68.592  1.00  0.00    -0.112 A  
HETATM   22  C   UNL     1      -7.181  13.357  68.701  1.00  0.00    -0.107 A  
HETATM   23  C   UNL     1      -6.433  11.066  69.337  1.00  0.00    -0.095 C  
HETATM   24  C   UNL     1      -6.349  15.343  69.651  1.00  0.00    -0.160 A  
HETATM   25  C   UNL     1      -5.828  13.138  70.657  1.00  0.00    -0.143 A  
HETATM   26  C   UNL     1      -5.810  14.532  70.703  1.00  0.00    -0.179 A  
HETATM   27  C   UNL     1      -6.483  12.543  69.605  1.00  0.00    -0.057 A  
BRANCH  24  28
HETATM   28  N   UNL     1      -6.042  16.726  69.772  1.00  0.00    -0.225 NA 
HETATM   29  N   UNL     1      -5.178  17.231  70.692  1.00  0.00    -0.256 NA 
HETATM   30  C   UNL     1      -6.390  18.810  69.667  1.00  0.00    -0.221 A  
HETATM   31  C   UNL     1      -5.359  18.548  70.567  1.00  0.00    -0.247 A  
HETATM   32  N   UNL     1      -6.872  17.662  69.193  1.00  0.00    -0.248 NA 
ENDBRANCH  24  28
ENDBRANCH   9  21
TORSDOF 3
ENDMDL
MODEL       51
REMARK 921   NORMALIZED FREE ENERGY PREDICTED BY IDOCK:   -5.41 KCAL/MOL
REMARK 922        TOTAL FREE ENERGY PREDICTED BY IDOCK:   -7.99 KCAL/MOL
REMARK 923 INTER-LIGAND FREE ENERGY PREDICTED BY IDOCK:   -6.74 KCAL/MOL
REMARK 924 INTRA-LIGAND FREE ENERGY PREDICTED BY IDOCK:   -1.25 KCAL/MOL
REMARK 927      BINDING AFFINITY PREDICTED BY RF-SCORE:    0.00 PKD
ROOT
HETATM    1  C   UNL     1      -9.871  16.587  65.784  1.00  0.00    -0.243 C  
HETATM    2  C   UNL     1     -10.545  17.968  65.955  1.00  0.00    -0.258 C  
HETATM    3  C   UNL     1     -10.838  15.568  65.107  1.00  0.00    -0.452 C  
HETATM    4  C   UNL     1     -11.844  14.793  65.975  1.00  0.00    -0.200 C  
HETATM    5  N   UNL     1     -11.216  13.963  66.988  1.00  0.00    -0.304 NA 
HETATM    6  C   UNL     1     -10.901  14.565  68.276  1.00  0.00    -0.241 C  
HETATM    7  O   UNL     1      -7.120  16.293  66.245  1.00  0.00    -0.074 OA 
HETATM    8  C   UNL     1     -10.253  15.952  68.137  1.00  0.00    -0.232 C  
HETATM    9  C   UNL     1      -7.864  15.780  67.098  1.00  0.00    -0.212 C  
HETATM   10  N   UNL     1      -9.269  16.078  67.053  1.00  0.00    -0.206 N  
ENDROOT
BRANCH   5  11
HETATM   11  C   UNL     1     -10.862  12.669  66.805  1.00  0.00    -0.250 A  
HETATM   12  N   UNL     1     -11.365  11.615  67.421  1.00  0.00    -0.353 NA 
HETATM   13  C   UNL     1      -9.745  11.010  65.991  1.00  0.00    -0.224 A  
HETATM   14  C   UNL     1      -8.858  10.190  65.307  1.00  0.00    -0.201 A  
HETATM   15  C   UNL     1     -10.659   9.208  67.303  1.00  0.00    -0.303 A  
HETATM   16  C   UNL     1     -10.637  10.563  66.951  1.00  0.00    -0.243 A  
HETATM   17  O   UNL     1      -9.890  12.366  65.885  1.00  0.00    -0.253 OA 
HETATM   18 CL   UNL     1      -9.683   6.700  67.119  1.00  0.00    -0.164 Cl 
HETATM   19  C   UNL     1      -8.868   8.839  65.686  1.00  0.00    -0.239 A  
HETATM   20  C   UNL     1      -9.747   8.360  66.666  1.00  0.00    -0.251 A  
ENDBRANCH   5  11
BRANCH   9  21
HETATM   21  C   UNL     1      -7.194  14.892  68.169  1.00  0.00    -0.124 A  
HETATM   22  C   UNL     1      -7.341  13.499  68.129  1.00  0.00    -0.121 A  
HETATM   23  C   UNL     1      -6.676  11.130  68.531  1.00  0.00    -0.062 C  
HETATM   24  C   UNL     1      -6.465  15.345  69.294  1.00  0.00    -0.137 A  
HETATM   25  C   UNL     1      -6.031  13.031  70.070  1.00  0.00    -0.140 A  
HETATM   26  C   UNL     1      -5.970  14.412  70.263  1.00  0.00    -0.160 A  
HETATM   27  C   UNL     1      -6.686  12.572  68.952  1.00  0.00    -0.098 A  
BRANCH  24  28
HETATM   28  N   UNL     1      -6.117  16.698  69.565  1.00  0.00    -0.202 NA 
HETATM   29  N   UNL     1      -5.142  17.067  70.437  1.00  0.00    -0.203 NA 
HETATM   30  C   UNL     1      -6.431  18.778  69.785  1.00  0.00    -0.123 A  
HETATM   31  C   UNL     1      -5.309  18.390  70.514  1.00  0.00    -0.252 A  
HETATM   32  N   UNL     1      -6.988  17.709  69.220  1.00  0.00    -0.212 NA 
ENDBRANCH  24  28
ENDBRANCH   9  21
TORSDOF 3
ENDMDL
MODEL       52
REMARK 921   NORMALIZED FREE ENERGY PREDICTED BY IDOCK:   -5.39 KCAL/MOL
REMARK 922        TOTAL FREE ENERGY PREDICTED BY IDOCK:   -7.97 KCAL/MOL
REMARK 923 INTER-LIGAND FREE ENERGY PREDICTED BY IDOCK:   -7.31 KCAL/MOL
REMARK 924 INTRA-LIGAND FREE ENERGY PREDICTED BY IDOCK:   -0.66 KCAL/MOL
REMARK 927      BINDING AFFINITY PREDICTED BY RF-SCORE:    0.00 PKD
ROOT
HETATM    1  C   UNL     1      -9.045  19.664  66.682  1.00  0.00    -0.363 C  
HETATM    2  C   UNL     1      -9.442  21.092  67.124  1.00  0.00    -0.194 C  
HETATM    3  C   UNL     1     -10.240  18.933  65.997  1.00  0.00    -0.437 C  
HETATM    4  C   UNL     1     -11.277  18.204  66.868  1.00  0.00     0.590 C  
HETATM    5  N   UNL     1     -10.710  17.136  67.671  1.00  0.00    -0.336 NA 
HETATM    6  C   UNL     1     -10.167  17.469  68.981  1.00  0.00    -0.314 C  
HETATM    7  O   UNL     1      -6.359  18.861  66.753  1.00  0.00    -0.184 OA 
HETATM    8  C   UNL     1      -9.300  18.738  68.954  1.00  0.00    -0.260 C  
HETATM    9  C   UNL     1      -7.094  18.348  67.613  1.00  0.00    -0.209 C  
HETATM   10  N   UNL     1      -8.421  18.872  67.785  1.00  0.00    -0.279 N  
ENDROOT
BRANCH   5  11
HETATM   11  C   UNL     1     -10.612  15.846  67.269  1.00  0.00    -0.314 A  
HETATM   12  N   UNL     1      -9.885  15.381  66.270  1.00  0.00    -0.276 NA 
HETATM   13  C   UNL     1     -11.037  13.729  67.260  1.00  0.00    -0.304 A  
HETATM   14  C   UNL     1     -11.527  12.453  67.502  1.00  0.00    -0.410 A  
HETATM   15  C   UNL     1      -9.776  13.058  65.320  1.00  0.00     0.003 A  
HETATM   16  C   UNL     1     -10.179  14.050  66.222  1.00  0.00    -0.296 A  
HETATM   17  O   UNL     1     -11.314  14.880  67.945  1.00  0.00    -0.302 OA 
HETATM   18 CL   UNL     1      -9.882  10.533  64.380  1.00  0.00    -0.382 Cl 
HETATM   19  C   UNL     1     -11.141  11.471  66.577  1.00  0.00    -0.341 A  
HETATM   20  C   UNL     1     -10.287  11.770  65.507  1.00  0.00    -0.262 A  
ENDBRANCH   5  11
BRANCH   9  21
HETATM   21  C   UNL     1      -6.490  17.206  68.460  1.00  0.00    -0.164 A  
HETATM   22  C   UNL     1      -6.566  15.879  68.018  1.00  0.00    -0.143 A  
HETATM   23  C   UNL     1      -5.831  13.506  67.814  1.00  0.00    -0.120 C  
HETATM   24  C   UNL     1      -5.897  17.338  69.738  1.00  0.00    -0.236 A  
HETATM   25  C   UNL     1      -5.431  14.907  69.881  1.00  0.00    -0.102 A  
HETATM   26  C   UNL     1      -5.456  16.179  70.456  1.00  0.00    -0.140 A  
HETATM   27  C   UNL     1      -5.950  14.769  68.616  1.00  0.00    -0.089 A  
BRANCH  24  28
HETATM   28  N   UNL     1      -5.643  18.565  70.410  1.00  0.00    -0.230 NA 
HETATM   29  N   UNL     1      -5.219  18.647  71.700  1.00  0.00    -0.519 NA 
HETATM   30  C   UNL     1      -5.882  20.617  70.866  1.00  0.00    -0.030 A  
HETATM   31  C   UNL     1      -5.312  19.956  71.951  1.00  0.00    -0.363 A  
HETATM   32  N   UNL     1      -6.149  19.741  69.899  1.00  0.00    -0.302 NA 
ENDBRANCH  24  28
ENDBRANCH   9  21
TORSDOF 3
ENDMDL
MODEL       53
REMARK 921   NORMALIZED FREE ENERGY PREDICTED BY IDOCK:   -5.33 KCAL/MOL
REMARK 922        TOTAL FREE ENERGY PREDICTED BY IDOCK:   -7.89 KCAL/MOL
REMARK 923 INTER-LIGAND FREE ENERGY PREDICTED BY IDOCK:   -7.32 KCAL/MOL
REMARK 924 INTRA-LIGAND FREE ENERGY PREDICTED BY IDOCK:   -0.56 KCAL/MOL
REMARK 927      BINDING AFFINITY PREDICTED BY RF-SCORE:    0.00 PKD
ROOT
HETATM    1  C   UNL     1     -10.840   7.064  72.446  1.00  0.00    -0.240 C  
HETATM    2  C   UNL     1     -10.468   7.237  73.937  1.00  0.00    -0.221 C  
HETATM    3  C   UNL     1     -10.246   5.743  71.866  1.00  0.00    -0.246 C  
HETATM    4  C   UNL     1      -8.800   5.734  71.343  1.00  0.00    -0.140 C  
HETATM    5  N   UNL     1      -8.577   6.656  70.244  1.00  0.00    -0.138 NA 
HETATM    6  C   UNL     1      -8.222   8.032  70.558  1.00  0.00    -0.118 C  
HETATM    7  O   UNL     1     -12.737   8.754  71.260  1.00  0.00    -0.305 OA 
HETATM    8  C   UNL     1      -9.089   8.623  71.682  1.00  0.00    -0.247 C  
HETATM    9  C   UNL     1     -11.561   8.936  70.904  1.00  0.00    -0.283 C  
HETATM   10  N   UNL     1     -10.514   8.269  71.626  1.00  0.00    -0.222 N  
ENDROOT
BRANCH   5  11
HETATM   11  C   UNL     1      -8.715   6.334  68.935  1.00  0.00    -0.125 A  
HETATM   12  N   UNL     1      -9.628   5.539  68.407  1.00  0.00    -0.118 NA 
HETATM   13  C   UNL     1      -8.227   6.309  66.832  1.00  0.00    -0.109 A  
HETATM   14  C   UNL     1      -7.650   6.482  65.582  1.00  0.00    -0.086 A  
HETATM   15  C   UNL     1      -9.861   4.724  66.043  1.00  0.00    -0.229 A  
HETATM   16  C   UNL     1      -9.304   5.477  67.084  1.00  0.00    -0.115 A  
HETATM   17  O   UNL     1      -7.846   6.871  68.020  1.00  0.00    -0.110 OA 
HETATM   18 CL   UNL     1      -9.876   3.879  63.482  1.00  0.00    -0.159 Cl 
HETATM   19  C   UNL     1      -8.196   5.704  64.550  1.00  0.00    -0.125 A  
HETATM   20  C   UNL     1      -9.275   4.841  64.778  1.00  0.00    -0.097 A  
ENDBRANCH   5  11
BRANCH   9  21
HETATM   21  C   UNL     1     -11.328   9.911  69.730  1.00  0.00    -0.241 A  
HETATM   22  C   UNL     1     -10.716   9.467  68.550  1.00  0.00    -0.203 A  
HETATM   23  C   UNL     1     -10.228   9.461  66.105  1.00  0.00    -0.264 C  
HETATM   24  C   UNL     1     -11.608  11.298  69.726  1.00  0.00    -0.333 A  
HETATM   25  C   UNL     1     -10.788  11.560  67.402  1.00  0.00    -0.294 A  
HETATM   26  C   UNL     1     -11.257  12.107  68.597  1.00  0.00    -0.318 A  
HETATM   27  C   UNL     1     -10.563  10.204  67.366  1.00  0.00    -0.329 A  
BRANCH  24  28
HETATM   28  N   UNL     1     -12.270  12.011  70.764  1.00  0.00    -0.357 NA 
HETATM   29  N   UNL     1     -13.142  11.440  71.637  1.00  0.00    -0.450 NA 
HETATM   30  C   UNL     1     -13.164  13.677  71.713  1.00  0.00    -0.394 A  
HETATM   31  C   UNL     1     -13.648  12.498  72.275  1.00  0.00    -0.342 A  
HETATM   32  N   UNL     1     -12.329  13.388  70.716  1.00  0.00    -0.365 NA 
ENDBRANCH  24  28
ENDBRANCH   9  21
TORSDOF 3
ENDMDL
MODEL       54
REMARK 921   NORMALIZED FREE ENERGY PREDICTED BY IDOCK:   -5.24 KCAL/MOL
REMARK 922        TOTAL FREE ENERGY PREDICTED BY IDOCK:   -7.78 KCAL/MOL
REMARK 923 INTER-LIGAND FREE ENERGY PREDICTED BY IDOCK:   -6.45 KCAL/MOL
REMARK 924 INTRA-LIGAND FREE ENERGY PREDICTED BY IDOCK:   -1.33 KCAL/MOL
REMARK 927      BINDING AFFINITY PREDICTED BY RF-SCORE:    0.00 PKD
ROOT
HETATM    1  C   UNL     1     -12.526   8.894  71.004  1.00  0.00    -0.140 C  
HETATM    2  C   UNL     1     -12.625   9.323  72.487  1.00  0.00    -0.266 C  
HETATM    3  C   UNL     1     -12.490   7.340  70.868  1.00  0.00    -0.266 C  
HETATM    4  C   UNL     1     -11.147   6.604  71.008  1.00  0.00    -0.282 C  
HETATM    5  N   UNL     1     -10.163   7.002  70.016  1.00  0.00    -0.191 NA 
HETATM    6  C   UNL     1      -9.315   8.149  70.307  1.00  0.00    -0.155 C  
HETATM    7  O   UNL     1     -12.871  10.784  68.962  1.00  0.00    -0.044 OA 
HETATM    8  C   UNL     1     -10.101   9.332  70.893  1.00  0.00    -0.302 C  
HETATM    9  C   UNL     1     -11.710  10.370  69.118  1.00  0.00    -0.119 C  
HETATM   10  N   UNL     1     -11.413   9.578  70.279  1.00  0.00    -0.237 N  
ENDROOT
BRANCH   5  11
HETATM   11  C   UNL     1     -10.005   6.402  68.812  1.00  0.00    -0.147 A  
HETATM   12  N   UNL     1     -10.936   6.202  67.898  1.00  0.00    -0.328 NA 
HETATM   13  C   UNL     1      -8.965   5.360  67.232  1.00  0.00    -0.111 A  
HETATM   14  C   UNL     1      -8.038   4.703  66.435  1.00  0.00    -0.103 A  
HETATM   15  C   UNL     1     -10.802   4.940  65.730  1.00  0.00    -0.121 A  
HETATM   16  C   UNL     1     -10.305   5.503  66.912  1.00  0.00    -0.265 A  
HETATM   17  O   UNL     1      -8.762   5.944  68.452  1.00  0.00    -0.113 OA 
HETATM   18 CL   UNL     1     -10.483   3.456  63.501  1.00  0.00    -0.227 Cl 
HETATM   19  C   UNL     1      -8.550   4.118  65.267  1.00  0.00    -0.119 A  
HETATM   20  C   UNL     1      -9.904   4.231  64.926  1.00  0.00    -0.175 A  
ENDBRANCH   5  11
BRANCH   9  21
HETATM   21  C   UNL     1     -10.668  10.789  68.058  1.00  0.00    -0.270 A  
HETATM   22  C   UNL     1      -9.981   9.818  67.317  1.00  0.00    -0.242 A  
HETATM   23  C   UNL     1      -8.764   8.906  65.342  1.00  0.00    -0.224 C  
HETATM   24  C   UNL     1     -10.247  12.110  67.776  1.00  0.00    -0.201 A  
HETATM   25  C   UNL     1      -8.674  11.340  66.021  1.00  0.00    -0.165 A  
HETATM   26  C   UNL     1      -9.202  12.351  66.825  1.00  0.00    -0.212 A  
HETATM   27  C   UNL     1      -9.113  10.057  66.241  1.00  0.00    -0.180 A  
BRANCH  24  28
HETATM   28  N   UNL     1     -10.802  13.293  68.337  1.00  0.00    -0.250 NA 
HETATM   29  N   UNL     1     -12.016  13.797  67.988  1.00  0.00    -0.371 NA 
HETATM   30  C   UNL     1     -10.793  15.220  69.210  1.00  0.00    -0.257 A  
HETATM   31  C   UNL     1     -12.023  14.983  68.602  1.00  0.00    -0.246 A  
HETATM   32  N   UNL     1      -9.986  14.180  69.006  1.00  0.00    -0.124 NA 
ENDBRANCH  24  28
ENDBRANCH   9  21
TORSDOF 3
ENDMDL
MODEL       55
REMARK 921   NORMALIZED FREE ENERGY PREDICTED BY IDOCK:   -5.20 KCAL/MOL
REMARK 922        TOTAL FREE ENERGY PREDICTED BY IDOCK:   -7.74 KCAL/MOL
REMARK 923 INTER-LIGAND FREE ENERGY PREDICTED BY IDOCK:   -6.25 KCAL/MOL
REMARK 924 INTRA-LIGAND FREE ENERGY PREDICTED BY IDOCK:   -1.49 KCAL/MOL
REMARK 927      BINDING AFFINITY PREDICTED BY RF-SCORE:    0.00 PKD
ROOT
HETATM    1  C   UNL     1     -11.690  11.135  70.428  1.00  0.00    -0.320 C  
HETATM    2  C   UNL     1     -12.946  10.249  70.591  1.00  0.00    -0.338 C  
HETATM    3  C   UNL     1     -12.029  12.641  70.656  1.00  0.00    -0.196 C  
HETATM    4  C   UNL     1     -12.576  13.475  69.486  1.00  0.00     0.188 C  
HETATM    5  N   UNL     1     -11.667  13.554  68.357  1.00  0.00    -0.338 NA 
HETATM    6  C   UNL     1     -11.725  12.505  67.349  1.00  0.00    -0.366 C  
HETATM    7  O   UNL     1      -9.151   9.962  70.231  1.00  0.00    -0.208 OA 
HETATM    8  C   UNL     1     -11.811  11.099  67.965  1.00  0.00    -0.126 C  
HETATM    9  C   UNL     1      -9.592  10.463  69.184  1.00  0.00    -0.213 C  
HETATM   10  N   UNL     1     -10.966  10.880  69.146  1.00  0.00    -0.221 N  
ENDROOT
BRANCH   5  11
HETATM   11  C   UNL     1     -10.733  14.521  68.193  1.00  0.00    -0.239 A  
HETATM   12  N   UNL     1     -10.361  15.422  69.084  1.00  0.00    -0.227 NA 
HETATM   13  C   UNL     1      -9.255  15.701  67.151  1.00  0.00    -0.212 A  
HETATM   14  C   UNL     1      -8.390  16.260  66.220  1.00  0.00    -0.343 A  
HETATM   15  C   UNL     1      -8.791  17.367  68.829  1.00  0.00    -0.220 A  
HETATM   16  C   UNL     1      -9.460  16.205  68.424  1.00  0.00    -0.210 A  
HETATM   17  O   UNL     1     -10.066  14.610  66.997  1.00  0.00    -0.245 OA 
HETATM   18 CL   UNL     1      -7.161  19.455  68.323  1.00  0.00    -0.319 Cl 
HETATM   19  C   UNL     1      -7.746  17.439  66.624  1.00  0.00    -0.293 A  
HETATM   20  C   UNL     1      -7.947  17.982  67.899  1.00  0.00    -0.241 A  
ENDBRANCH   5  11
BRANCH   9  21
HETATM   21  C   UNL     1      -8.620  10.553  67.987  1.00  0.00    -0.121 A  
HETATM   22  C   UNL     1      -8.832   9.774  66.841  1.00  0.00    -0.150 A  
HETATM   23  C   UNL     1      -8.703   9.219  64.414  1.00  0.00    -0.211 C  
HETATM   24  C   UNL     1      -7.430  11.317  67.931  1.00  0.00    -0.094 A  
HETATM   25  C   UNL     1      -6.930  10.555  65.626  1.00  0.00    -0.113 A  
HETATM   26  C   UNL     1      -6.569  11.239  66.788  1.00  0.00    -0.140 A  
HETATM   27  C   UNL     1      -8.111   9.852  65.640  1.00  0.00    -0.128 A  
BRANCH  24  28
HETATM   28  N   UNL     1      -6.988  12.235  68.924  1.00  0.00    -0.102 NA 
HETATM   29  N   UNL     1      -7.080  13.586  68.800  1.00  0.00    -0.102 NA 
HETATM   30  C   UNL     1      -5.794  12.947  70.518  1.00  0.00    -0.138 A  
HETATM   31  C   UNL     1      -6.378  14.021  69.850  1.00  0.00    -0.128 A  
HETATM   32  N   UNL     1      -6.126  11.809  69.912  1.00  0.00    -0.139 NA 
ENDBRANCH  24  28
ENDBRANCH   9  21
TORSDOF 3
ENDMDL
MODEL       56
REMARK 921   NORMALIZED FREE ENERGY PREDICTED BY IDOCK:   -5.20 KCAL/MOL
REMARK 922        TOTAL FREE ENERGY PREDICTED BY IDOCK:   -7.74 KCAL/MOL
REMARK 923 INTER-LIGAND FREE ENERGY PREDICTED BY IDOCK:   -6.07 KCAL/MOL
REMARK 924 INTRA-LIGAND FREE ENERGY PREDICTED BY IDOCK:   -1.67 KCAL/MOL
REMARK 927      BINDING AFFINITY PREDICTED BY RF-SCORE:    0.00 PKD
ROOT
HETATM    1  C   UNL     1      -6.299   5.462  67.729  1.00  0.00    -0.039 C  
HETATM    2  C   UNL     1      -5.607   4.320  66.949  1.00  0.00    -0.018 C  
HETATM    3  C   UNL     1      -6.930   4.938  69.055  1.00  0.00    -0.052 C  
HETATM    4  C   UNL     1      -8.337   4.318  69.026  1.00  0.00    -0.078 C  
HETATM    5  N   UNL     1      -9.364   5.236  68.564  1.00  0.00    -0.117 NA 
HETATM    6  C   UNL     1      -9.613   5.328  67.132  1.00  0.00    -0.141 C  
HETATM    7  O   UNL     1      -5.937   8.129  66.942  1.00  0.00    -0.050 OA 
HETATM    8  C   UNL     1      -8.316   5.400  66.310  1.00  0.00    -0.115 C  
HETATM    9  C   UNL     1      -7.062   7.653  66.719  1.00  0.00    -0.083 C  
HETATM   10  N   UNL     1      -7.256   6.240  66.885  1.00  0.00    -0.073 N  
ENDROOT
BRANCH   5  11
HETATM   11  C   UNL     1     -10.084   6.048  69.373  1.00  0.00    -0.192 A  
HETATM   12  N   UNL     1     -11.270   5.796  69.896  1.00  0.00    -0.272 NA 
HETATM   13  C   UNL     1     -10.552   7.839  70.484  1.00  0.00    -0.226 A  
HETATM   14  C   UNL     1     -10.561   9.101  71.064  1.00  0.00    -0.362 A  
HETATM   15  C   UNL     1     -12.773   7.293  71.241  1.00  0.00    -0.400 A  
HETATM   16  C   UNL     1     -11.600   6.938  70.564  1.00  0.00    -0.346 A  
HETATM   17  O   UNL     1      -9.567   7.270  69.724  1.00  0.00    -0.163 OA 
HETATM   18 CL   UNL     1     -14.283   9.085  72.577  1.00  0.00    -0.468 Cl 
HETATM   19  C   UNL     1     -11.751   9.458  71.717  1.00  0.00    -0.444 A  
HETATM   20  C   UNL     1     -12.834   8.574  71.799  1.00  0.00    -0.348 A  
ENDBRANCH   5  11
BRANCH   9  21
HETATM   21  C   UNL     1      -8.153   8.633  66.234  1.00  0.00    -0.103 A  
HETATM   22  C   UNL     1      -9.085   9.160  67.138  1.00  0.00    -0.146 A  
HETATM   23  C   UNL     1     -10.690  10.851  68.021  1.00  0.00    -0.263 C  
HETATM   24  C   UNL     1      -8.385   9.031  64.896  1.00  0.00    -0.169 A  
HETATM   25  C   UNL     1     -10.285  10.482  65.552  1.00  0.00    -0.325 A  
HETATM   26  C   UNL     1      -9.493   9.879  64.573  1.00  0.00    -0.328 A  
HETATM   27  C   UNL     1     -10.038  10.152  66.863  1.00  0.00    -0.279 A  
BRANCH  24  28
HETATM   28  N   UNL     1      -7.571   8.693  63.779  1.00  0.00    -0.120 NA 
HETATM   29  N   UNL     1      -7.591   7.477  63.171  1.00  0.00    -0.108 NA 
HETATM   30  C   UNL     1      -5.868   8.754  62.527  1.00  0.00    -0.083 A  
HETATM   31  C   UNL     1      -6.552   7.556  62.335  1.00  0.00    -0.071 A  
HETATM   32  N   UNL     1      -6.470   9.465  63.478  1.00  0.00    -0.092 NA 
ENDBRANCH  24  28
ENDBRANCH   9  21
TORSDOF 3
ENDMDL
MODEL       57
REMARK 921   NORMALIZED FREE ENERGY PREDICTED BY IDOCK:   -5.16 KCAL/MOL
REMARK 922        TOTAL FREE ENERGY PREDICTED BY IDOCK:   -7.69 KCAL/MOL
REMARK 923 INTER-LIGAND FREE ENERGY PREDICTED BY IDOCK:   -6.91 KCAL/MOL
REMARK 924 INTRA-LIGAND FREE ENERGY PREDICTED BY IDOCK:   -0.78 KCAL/MOL
REMARK 927      BINDING AFFINITY PREDICTED BY RF-SCORE:    0.00 PKD
ROOT
HETATM    1  C   UNL     1      -7.001  15.237  69.547  1.00  0.00    -0.191 C  
HETATM    2  C   UNL     1      -5.868  16.180  69.080  1.00  0.00    -0.123 C  
HETATM    3  C   UNL     1      -6.446  14.091  70.447  1.00  0.00     0.001 C  
HETATM    4  C   UNL     1      -5.877  12.823  69.787  1.00  0.00    -0.123 C  
HETATM    5  N   UNL     1      -6.847  12.107  68.978  1.00  0.00    -0.101 NA 
HETATM    6  C   UNL     1      -7.005  12.498  67.584  1.00  0.00    -0.139 C  
HETATM    7  O   UNL     1      -9.684  15.939  69.128  1.00  0.00    -0.218 OA 
HETATM    8  C   UNL     1      -7.065  14.023  67.401  1.00  0.00    -0.073 C  
HETATM    9  C   UNL     1      -9.256  15.011  68.422  1.00  0.00    -0.193 C  
HETATM   10  N   UNL     1      -7.844  14.745  68.416  1.00  0.00    -0.121 N  
ENDROOT
BRANCH   5  11
HETATM   11  C   UNL     1      -7.651  11.121  69.441  1.00  0.00    -0.008 A  
HETATM   12  N   UNL     1      -8.881  10.851  69.046  1.00  0.00    -0.136 NA 
HETATM   13  C   UNL     1      -8.240   9.456  70.683  1.00  0.00    -0.168 A  
HETATM   14  C   UNL     1      -8.316   8.439  71.625  1.00  0.00    -0.202 A  
HETATM   15  C   UNL     1     -10.522   9.183  69.960  1.00  0.00    -0.244 A  
HETATM   16  C   UNL     1      -9.285   9.830  69.855  1.00  0.00    -0.234 A  
HETATM   17  O   UNL     1      -7.180  10.278  70.416  1.00  0.00    -0.257 OA 
HETATM   18 CL   UNL     1     -12.171   7.412  71.151  1.00  0.00    -0.359 Cl 
HETATM   19  C   UNL     1      -9.567   7.816  71.743  1.00  0.00    -0.204 A  
HETATM   20  C   UNL     1     -10.647   8.184  70.931  1.00  0.00    -0.209 A  
ENDBRANCH   5  11
BRANCH   9  21
HETATM   21  C   UNL     1     -10.291  14.247  67.567  1.00  0.00    -0.248 A  
HETATM   22  C   UNL     1      -9.977  13.847  66.262  1.00  0.00    -0.315 A  
HETATM   23  C   UNL     1     -10.119  12.414  64.227  1.00  0.00    -0.305 C  
HETATM   24  C   UNL     1     -11.624  13.946  67.939  1.00  0.00    -0.342 A  
HETATM   25  C   UNL     1     -12.073  12.808  65.784  1.00  0.00    -0.505 A  
HETATM   26  C   UNL     1     -12.509  13.308  67.011  1.00  0.00    -0.000 A  
HETATM   27  C   UNL     1     -10.766  13.040  65.429  1.00  0.00    -0.309 A  
BRANCH  24  28
HETATM   28  N   UNL     1     -12.201  14.188  69.216  1.00  0.00    -0.317 NA 
HETATM   29  N   UNL     1     -12.622  15.411  69.636  1.00  0.00    -0.133 NA 
HETATM   30  C   UNL     1     -12.532  13.899  71.285  1.00  0.00    -0.359 A  
HETATM   31  C   UNL     1     -12.891  15.196  70.927  1.00  0.00    -0.419 A  
HETATM   32  N   UNL     1     -12.041  13.261  70.224  1.00  0.00    -0.355 NA 
ENDBRANCH  24  28
ENDBRANCH   9  21
TORSDOF 3
ENDMDL
MODEL       58
REMARK 921   NORMALIZED FREE ENERGY PREDICTED BY IDOCK:   -5.03 KCAL/MOL
REMARK 922        TOTAL FREE ENERGY PREDICTED BY IDOCK:   -7.54 KCAL/MOL
REMARK 923 INTER-LIGAND FREE ENERGY PREDICTED BY IDOCK:   -6.18 KCAL/MOL
REMARK 924 INTRA-LIGAND FREE ENERGY PREDICTED BY IDOCK:   -1.36 KCAL/MOL
REMARK 927      BINDING AFFINITY PREDICTED BY RF-SCORE:    0.00 PKD
ROOT
HETATM    1  C   UNL     1     -10.626   5.557  72.088  1.00  0.00    -0.226 C  
HETATM    2  C   UNL     1     -11.105   4.860  73.383  1.00  0.00    -0.415 C  
HETATM    3  C   UNL     1      -9.122   5.256  71.809  1.00  0.00    -0.154 C  
HETATM    4  C   UNL     1      -8.043   6.119  72.486  1.00  0.00    -0.104 C  
HETATM    5  N   UNL     1      -8.123   7.525  72.134  1.00  0.00    -0.099 NA 
HETATM    6  C   UNL     1      -8.994   8.385  72.923  1.00  0.00    -0.196 C  
HETATM    7  O   UNL     1     -12.482   6.753  70.360  1.00  0.00    -0.215 OA 
HETATM    8  C   UNL     1     -10.366   7.746  73.195  1.00  0.00    -0.340 C  
HETATM    9  C   UNL     1     -11.765   7.538  71.001  1.00  0.00    -0.292 C  
HETATM   10  N   UNL     1     -10.952   7.015  72.064  1.00  0.00    -0.227 N  
ENDROOT
BRANCH   5  11
HETATM   11  C   UNL     1      -7.471   8.092  71.091  1.00  0.00    -0.070 A  
HETATM   12  N   UNL     1      -7.453   9.372  70.769  1.00  0.00    -0.212 NA 
HETATM   13  C   UNL     1      -6.260   8.161  69.305  1.00  0.00    -0.038 A  
HETATM   14  C   UNL     1      -5.482   7.867  68.193  1.00  0.00    -0.033 A  
HETATM   15  C   UNL     1      -6.445  10.501  68.764  1.00  0.00    -0.051 A  
HETATM   16  C   UNL     1      -6.730   9.426  69.615  1.00  0.00    -0.048 A  
HETATM   17  O   UNL     1      -6.727   7.296  70.256  1.00  0.00    -0.049 OA 
HETATM   18 CL   UNL     1      -5.391  11.507  66.495  1.00  0.00    -0.130 Cl 
HETATM   19  C   UNL     1      -5.226   8.945  67.332  1.00  0.00    -0.034 A  
HETATM   20  C   UNL     1      -5.701  10.233  67.611  1.00  0.00    -0.045 A  
ENDBRANCH   5  11
BRANCH   9  21
HETATM   21  C   UNL     1     -11.847   9.032  70.620  1.00  0.00    -0.193 A  
HETATM   22  C   UNL     1     -12.669   9.905  71.345  1.00  0.00    -0.503 A  
HETATM   23  C   UNL     1     -13.382  12.100  72.287  1.00  0.00    -0.316 C  
HETATM   24  C   UNL     1     -11.211   9.650  69.516  1.00  0.00    -0.109 A  
HETATM   25  C   UNL     1     -12.160  11.869  70.085  1.00  0.00    -0.382 A  
HETATM   26  C   UNL     1     -11.446  11.033  69.224  1.00  0.00    -0.370 A  
HETATM   27  C   UNL     1     -12.738  11.298  71.194  1.00  0.00    -0.492 A  
BRANCH  24  28
HETATM   28  N   UNL     1     -10.284   9.024  68.638  1.00  0.00    -0.200 NA 
HETATM   29  N   UNL     1      -9.845   9.582  67.479  1.00  0.00    -0.159 NA 
HETATM   30  C   UNL     1      -9.304   7.419  67.671  1.00  0.00    -0.133 A  
HETATM   31  C   UNL     1      -9.172   8.578  66.911  1.00  0.00    -0.158 A  
HETATM   32  N   UNL     1     -10.052   7.669  68.743  1.00  0.00    -0.189 NA 
ENDBRANCH  24  28
ENDBRANCH   9  21
TORSDOF 3
ENDMDL
MODEL       59
REMARK 921   NORMALIZED FREE ENERGY PREDICTED BY IDOCK:   -5.03 KCAL/MOL
REMARK 922        TOTAL FREE ENERGY PREDICTED BY IDOCK:   -7.54 KCAL/MOL
REMARK 923 INTER-LIGAND FREE ENERGY PREDICTED BY IDOCK:   -5.98 KCAL/MOL
REMARK 924 INTRA-LIGAND FREE ENERGY PREDICTED BY IDOCK:   -1.56 KCAL/MOL
REMARK 927      BINDING AFFINITY PREDICTED BY RF-SCORE:    0.00 PKD
ROOT
HETATM    1  C   UNL     1      -6.194  10.742  67.408  1.00  0.00    -0.055 C  
HETATM    2  C   UNL     1      -5.137   9.777  67.991  1.00  0.00    -0.032 C  
HETATM    3  C   UNL     1      -5.527  12.028  66.831  1.00  0.00    -0.058 C  
HETATM    4  C   UNL     1      -5.208  13.200  67.776  1.00  0.00    -0.089 C  
HETATM    5  N   UNL     1      -6.382  13.753  68.427  1.00  0.00    -0.089 NA 
HETATM    6  C   UNL     1      -6.826  13.153  69.677  1.00  0.00     0.165 C  
HETATM    7  O   UNL     1      -8.849   9.899  67.084  1.00  0.00    -0.137 OA 
HETATM    8  C   UNL     1      -6.825  11.616  69.626  1.00  0.00    -0.006 C  
HETATM    9  C   UNL     1      -8.656  10.722  67.993  1.00  0.00    -0.128 C  
HETATM   10  N   UNL     1      -7.303  11.030  68.367  1.00  0.00    -0.090 N  
ENDROOT
BRANCH   5  11
HETATM   11  C   UNL     1      -7.124  14.772  67.930  1.00  0.00    -0.158 A  
HETATM   12  N   UNL     1      -7.049  16.046  68.270  1.00  0.00    -0.117 NA 
HETATM   13  C   UNL     1      -8.648  15.719  66.730  1.00  0.00    -0.270 A  
HETATM   14  C   UNL     1      -9.693  16.009  65.863  1.00  0.00    -0.378 A  
HETATM   15  C   UNL     1      -8.492  17.975  67.561  1.00  0.00    -0.237 A  
HETATM   16  C   UNL     1      -8.038  16.651  67.553  1.00  0.00    -0.168 A  
HETATM   17  O   UNL     1      -8.059  14.507  66.961  1.00  0.00    -0.191 OA 
HETATM   18 CL   UNL     1     -10.217  19.889  66.764  1.00  0.00    -0.566 Cl 
HETATM   19  C   UNL     1     -10.159  17.332  65.898  1.00  0.00    -0.226 A  
HETATM   20  C   UNL     1      -9.574  18.292  66.733  1.00  0.00    -0.299 A  
ENDBRANCH   5  11
BRANCH   9  21
HETATM   21  C   UNL     1      -9.907  11.315  68.679  1.00  0.00    -0.208 A  
HETATM   22  C   UNL     1     -10.406  12.563  68.285  1.00  0.00    -0.241 A  
HETATM   23  C   UNL     1     -12.157  14.303  67.934  1.00  0.00    -0.296 C  
HETATM   24  C   UNL     1     -10.609  10.749  69.770  1.00  0.00    -0.140 A  
HETATM   25  C   UNL     1     -12.234  12.621  69.822  1.00  0.00    -0.209 A  
HETATM   26  C   UNL     1     -11.704  11.452  70.370  1.00  0.00    -0.362 A  
HETATM   27  C   UNL     1     -11.600  13.156  68.726  1.00  0.00    -0.348 A  
BRANCH  24  28
HETATM   28  N   UNL     1     -10.357   9.473  70.344  1.00  0.00    -0.256 NA 
HETATM   29  N   UNL     1      -9.130   9.059  70.758  1.00  0.00    -0.224 NA 
HETATM   30  C   UNL     1     -10.633   7.402  70.673  1.00  0.00    -0.223 A  
HETATM   31  C   UNL     1      -9.337   7.767  71.026  1.00  0.00    -0.152 A  
HETATM   32  N   UNL     1     -11.279   8.460  70.187  1.00  0.00    -0.193 NA 
ENDBRANCH  24  28
ENDBRANCH   9  21
TORSDOF 3
ENDMDL
MODEL       60
REMARK 921   NORMALIZED FREE ENERGY PREDICTED BY IDOCK:   -5.02 KCAL/MOL
REMARK 922        TOTAL FREE ENERGY PREDICTED BY IDOCK:   -7.52 KCAL/MOL
REMARK 923 INTER-LIGAND FREE ENERGY PREDICTED BY IDOCK:   -6.20 KCAL/MOL
REMARK 924 INTRA-LIGAND FREE ENERGY PREDICTED BY IDOCK:   -1.33 KCAL/MOL
REMARK 927      BINDING AFFINITY PREDICTED BY RF-SCORE:    0.00 PKD
ROOT
HETATM    1  C   UNL     1      -8.549   8.379  68.718  1.00  0.00    -0.135 C  
HETATM    2  C   UNL     1      -8.931   6.953  69.178  1.00  0.00    -0.133 C  
HETATM    3  C   UNL     1      -8.805   9.424  69.848  1.00  0.00    -0.212 C  
HETATM    4  C   UNL     1     -10.211  10.024  70.013  1.00  0.00    -0.255 C  
HETATM    5  N   UNL     1     -10.672  10.750  68.842  1.00  0.00    -0.207 NA 
HETATM    6  C   UNL     1     -11.352  10.005  67.792  1.00  0.00     0.106 C  
HETATM    7  O   UNL     1      -7.146   8.761  66.320  1.00  0.00    -0.080 OA 
HETATM    8  C   UNL     1     -10.642   8.684  67.451  1.00  0.00    -0.228 C  
HETATM    9  C   UNL     1      -8.336   9.118  66.308  1.00  0.00    -0.119 C  
HETATM   10  N   UNL     1      -9.175   8.753  67.414  1.00  0.00    -0.135 N  
ENDROOT
BRANCH   5  11
HETATM   11  C   UNL     1     -10.477  12.074  68.638  1.00  0.00    -0.218 A  
HETATM   12  N   UNL     1     -11.396  13.022  68.652  1.00  0.00    -0.270 NA 
HETATM   13  C   UNL     1      -9.373  13.874  68.186  1.00  0.00    -0.203 A  
HETATM   14  C   UNL     1      -8.405  14.814  67.860  1.00  0.00    -0.151 A  
HETATM   15  C   UNL     1     -11.182  15.463  68.100  1.00  0.00    -0.326 A  
HETATM   16  C   UNL     1     -10.721  14.160  68.322  1.00  0.00    -0.249 A  
HETATM   17  O   UNL     1      -9.206  12.533  68.396  1.00  0.00    -0.196 OA 
HETATM   18 CL   UNL     1     -10.769  18.025  67.367  1.00  0.00    -0.378 Cl 
HETATM   19  C   UNL     1      -8.880  16.111  67.612  1.00  0.00    -0.191 A  
HETATM   20  C   UNL     1     -10.240  16.426  67.726  1.00  0.00    -0.274 A  
ENDBRANCH   5  11
BRANCH   9  21
HETATM   21  C   UNL     1      -8.820   9.896  65.064  1.00  0.00    -0.220 A  
HETATM   22  C   UNL     1      -9.564  11.074  65.210  1.00  0.00    -0.270 A  
HETATM   23  C   UNL     1     -10.412  13.324  64.551  1.00  0.00    -0.434 C  
HETATM   24  C   UNL     1      -8.655   9.502  63.715  1.00  0.00    -0.211 A  
HETATM   25  C   UNL     1      -9.833  11.516  62.879  1.00  0.00    -0.279 A  
HETATM   26  C   UNL     1      -9.235  10.275  62.657  1.00  0.00    -0.318 A  
HETATM   27  C   UNL     1      -9.952  11.944  64.180  1.00  0.00    -0.288 A  
BRANCH  24  28
HETATM   28  N   UNL     1      -7.904   8.380  63.266  1.00  0.00    -0.144 NA 
HETATM   29  N   UNL     1      -8.279   7.089  63.469  1.00  0.00     0.023 NA 
HETATM   30  C   UNL     1      -6.172   7.287  62.738  1.00  0.00    -0.053 A  
HETATM   31  C   UNL     1      -7.202   6.409  63.068  1.00  0.00    -0.057 A  
HETATM   32  N   UNL     1      -6.582   8.542  62.910  1.00  0.00    -0.090 NA 
ENDBRANCH  24  28
ENDBRANCH   9  21
TORSDOF 3
ENDMDL
MODEL       61
REMARK 921   NORMALIZED FREE ENERGY PREDICTED BY IDOCK:   -5.01 KCAL/MOL
REMARK 922        TOTAL FREE ENERGY PREDICTED BY IDOCK:   -7.51 KCAL/MOL
REMARK 923 INTER-LIGAND FREE ENERGY PREDICTED BY IDOCK:   -5.95 KCAL/MOL
REMARK 924 INTRA-LIGAND FREE ENERGY PREDICTED BY IDOCK:   -1.57 KCAL/MOL
REMARK 927      BINDING AFFINITY PREDICTED BY RF-SCORE:    0.00 PKD
ROOT
HETATM    1  C   UNL     1      -7.166   9.400  65.672  1.00  0.00    -0.091 C  
HETATM    2  C   UNL     1      -6.449   8.031  65.603  1.00  0.00    -0.042 C  
HETATM    3  C   UNL     1      -6.165  10.573  65.440  1.00  0.00    -0.110 C  
HETATM    4  C   UNL     1      -5.352  11.116  66.628  1.00  0.00    -0.106 C  
HETATM    5  N   UNL     1      -6.178  11.650  67.697  1.00  0.00    -0.060 NA 
HETATM    6  C   UNL     1      -6.655  10.735  68.723  1.00  0.00    -0.054 C  
HETATM    7  O   UNL     1      -9.967   9.524  65.729  1.00  0.00    -0.300 OA 
HETATM    8  C   UNL     1      -7.193   9.420  68.138  1.00  0.00    -0.078 C  
HETATM    9  C   UNL     1      -9.396   9.814  66.793  1.00  0.00    -0.152 C  
HETATM   10  N   UNL     1      -7.987   9.559  66.910  1.00  0.00    -0.108 N  
ENDROOT
BRANCH   5  11
HETATM   11  C   UNL     1      -6.572  12.943  67.785  1.00  0.00    -0.140 A  
HETATM   12  N   UNL     1      -5.888  14.007  67.407  1.00  0.00    -0.322 NA 
HETATM   13  C   UNL     1      -7.861  14.597  68.300  1.00  0.00    -0.128 A  
HETATM   14  C   UNL     1      -8.884  15.415  68.761  1.00  0.00    -0.196 A  
HETATM   15  C   UNL     1      -6.433  16.442  67.697  1.00  0.00    -0.175 A  
HETATM   16  C   UNL     1      -6.671  15.064  67.768  1.00  0.00    -0.168 A  
HETATM   17  O   UNL     1      -7.808  13.230  68.307  1.00  0.00    -0.128 OA 
HETATM   18 CL   UNL     1      -7.147  18.994  68.200  1.00  0.00    -0.264 Cl 
HETATM   19  C   UNL     1      -8.626  16.793  68.712  1.00  0.00    -0.255 A  
HETATM   20  C   UNL     1      -7.425  17.294  68.195  1.00  0.00    -0.208 A  
ENDBRANCH   5  11
BRANCH   9  21
HETATM   21  C   UNL     1     -10.275  10.389  67.925  1.00  0.00    -0.211 A  
HETATM   22  C   UNL     1     -10.598  11.752  67.949  1.00  0.00    -0.231 A  
HETATM   23  C   UNL     1     -11.991  13.749  68.486  1.00  0.00    -0.402 C  
HETATM   24  C   UNL     1     -10.765   9.678  69.047  1.00  0.00    -0.211 A  
HETATM   25  C   UNL     1     -11.905  11.687  69.947  1.00  0.00    -0.434 A  
HETATM   26  C   UNL     1     -11.497  10.358  70.074  1.00  0.00    -0.382 A  
HETATM   27  C   UNL     1     -11.488  12.379  68.835  1.00  0.00    -0.355 A  
BRANCH  24  28
HETATM   28  N   UNL     1     -10.634   8.278  69.261  1.00  0.00    -0.211 NA 
HETATM   29  N   UNL     1      -9.711   7.723  70.091  1.00  0.00    -0.182 NA 
HETATM   30  C   UNL     1     -10.723   6.222  68.775  1.00  0.00    -0.297 A  
HETATM   31  C   UNL     1      -9.827   6.420  69.822  1.00  0.00    -0.165 A  
HETATM   32  N   UNL     1     -11.205   7.395  68.370  1.00  0.00     0.216 NA 
ENDBRANCH  24  28
ENDBRANCH   9  21
TORSDOF 3
ENDMDL
MODEL       62
REMARK 921   NORMALIZED FREE ENERGY PREDICTED BY IDOCK:   -4.98 KCAL/MOL
REMARK 922        TOTAL FREE ENERGY PREDICTED BY IDOCK:   -7.47 KCAL/MOL
REMARK 923 INTER-LIGAND FREE ENERGY PREDICTED BY IDOCK:   -6.25 KCAL/MOL
REMARK 924 INTRA-LIGAND FREE ENERGY PREDICTED BY IDOCK:   -1.23 KCAL/MOL
REMARK 927      BINDING AFFINITY PREDICTED BY RF-SCORE:    0.00 PKD
ROOT
HETATM    1  C   UNL     1     -10.741  16.183  68.349  1.00  0.00    -0.298 C  
HETATM    2  C   UNL     1     -11.116  17.556  67.745  1.00  0.00     0.019 C  
HETATM    3  C   UNL     1      -9.559  16.314  69.359  1.00  0.00    -0.173 C  
HETATM    4  C   UNL     1      -8.114  16.300  68.832  1.00  0.00    -0.231 C  
HETATM    5  N   UNL     1      -7.764  15.074  68.137  1.00  0.00    -0.108 NA 
HETATM    6  C   UNL     1      -8.052  14.980  66.713  1.00  0.00    -0.026 C  
HETATM    7  O   UNL     1     -12.396  13.958  67.930  1.00  0.00    -0.245 OA 
HETATM    8  C   UNL     1      -9.454  15.501  66.359  1.00  0.00    -0.291 C  
HETATM    9  C   UNL     1     -11.313  13.942  67.323  1.00  0.00    -0.323 C  
HETATM   10  N   UNL     1     -10.516  15.137  67.307  1.00  0.00    -0.267 N  
ENDROOT
BRANCH   5  11
HETATM   11  C   UNL     1      -7.220  13.986  68.734  1.00  0.00    -0.113 A  
HETATM   12  N   UNL     1      -7.394  12.724  68.388  1.00  0.00    -0.112 NA 
HETATM   13  C   UNL     1      -6.065  12.887  70.189  1.00  0.00    -0.092 A  
HETATM   14  C   UNL     1      -5.273  12.489  71.258  1.00  0.00    -0.133 A  
HETATM   15  C   UNL     1      -6.597  10.632  69.528  1.00  0.00    -0.091 A  
HETATM   16  C   UNL     1      -6.707  12.013  69.328  1.00  0.00    -0.093 A  
HETATM   17  O   UNL     1      -6.384  14.161  69.808  1.00  0.00    -0.127 OA 
HETATM   18 CL   UNL     1      -5.741   8.510  70.956  1.00  0.00    -0.032 Cl 
HETATM   19  C   UNL     1      -5.191  11.104  71.467  1.00  0.00     0.018 A  
HETATM   20  C   UNL     1      -5.843  10.196  70.623  1.00  0.00    -0.096 A  
ENDBRANCH   5  11
BRANCH   9  21
HETATM   21  C   UNL     1     -10.940  12.634  66.592  1.00  0.00    -0.292 A  
HETATM   22  C   UNL     1     -10.695  12.637  65.212  1.00  0.00    -0.318 A  
HETATM   23  C   UNL     1      -9.670  11.841  63.083  1.00  0.00    -0.321 C  
HETATM   24  C   UNL     1     -10.882  11.342  67.167  1.00  0.00    -0.270 A  
HETATM   25  C   UNL     1     -10.227  10.304  65.013  1.00  0.00    -0.277 A  
HETATM   26  C   UNL     1     -10.609  10.196  66.351  1.00  0.00    -0.155 A  
HETATM   27  C   UNL     1     -10.222  11.558  64.451  1.00  0.00    -0.350 A  
BRANCH  24  28
HETATM   28  N   UNL     1     -11.037  11.043  68.549  1.00  0.00    -0.221 NA 
HETATM   29  N   UNL     1     -10.091  10.415  69.297  1.00  0.00    -0.220 NA 
HETATM   30  C   UNL     1     -12.073  10.560  70.328  1.00  0.00    -0.318 A  
HETATM   31  C   UNL     1     -10.739  10.177  70.441  1.00  0.00    -0.266 A  
HETATM   32  N   UNL     1     -12.293  11.062  69.115  1.00  0.00    -0.424 NA 
ENDBRANCH  24  28
ENDBRANCH   9  21
TORSDOF 3
ENDMDL
MODEL       63
REMARK 921   NORMALIZED FREE ENERGY PREDICTED BY IDOCK:   -4.92 KCAL/MOL
REMARK 922        TOTAL FREE ENERGY PREDICTED BY IDOCK:   -7.41 KCAL/MOL
REMARK 923 INTER-LIGAND FREE ENERGY PREDICTED BY IDOCK:   -6.01 KCAL/MOL
REMARK 924 INTRA-LIGAND FREE ENERGY PREDICTED BY IDOCK:   -1.40 KCAL/MOL
REMARK 927      BINDING AFFINITY PREDICTED BY RF-SCORE:    0.00 PKD
ROOT
HETATM    1  C   UNL     1      -8.444   5.761  66.524  1.00  0.00    -0.116 C  
HETATM    2  C   UNL     1      -7.338   4.696  66.342  1.00  0.00    -0.081 C  
HETATM    3  C   UNL     1      -8.357   6.859  65.419  1.00  0.00    -0.122 C  
HETATM    4  C   UNL     1      -7.400   8.047  65.612  1.00  0.00    -0.079 C  
HETATM    5  N   UNL     1      -7.700   8.846  66.787  1.00  0.00    -0.096 NA 
HETATM    6  C   UNL     1      -7.113   8.450  68.060  1.00  0.00    -0.086 C  
HETATM    7  O   UNL     1     -10.523   5.337  68.358  1.00  0.00    -0.154 OA 
HETATM    8  C   UNL     1      -7.214   6.936  68.310  1.00  0.00    -0.091 C  
HETATM    9  C   UNL     1      -9.692   6.202  68.681  1.00  0.00    -0.128 C  
HETATM   10  N   UNL     1      -8.485   6.318  67.910  1.00  0.00    -0.117 N  
ENDROOT
BRANCH   5  11
HETATM   11  C   UNL     1      -8.525   9.920  66.792  1.00  0.00    -0.125 A  
HETATM   12  N   UNL     1      -9.692  10.025  66.183  1.00  0.00    -0.211 NA 
HETATM   13  C   UNL     1      -9.171  11.929  67.250  1.00  0.00    -0.179 A  
HETATM   14  C   UNL     1      -9.281  13.239  67.695  1.00  0.00    -0.209 A  
HETATM   15  C   UNL     1     -11.206  12.017  65.965  1.00  0.00    -0.385 A  
HETATM   16  C   UNL     1     -10.091  11.306  66.425  1.00  0.00    -0.220 A  
HETATM   17  O   UNL     1      -8.162  11.039  67.499  1.00  0.00    -0.115 OA 
HETATM   18 CL   UNL     1     -12.639  14.293  65.755  1.00  0.00    -0.452 Cl 
HETATM   19  C   UNL     1     -10.387  13.952  67.206  1.00  0.00    -0.257 A  
HETATM   20  C   UNL     1     -11.326  13.354  66.356  1.00  0.00    -0.313 A  
ENDBRANCH   5  11
BRANCH   9  21
HETATM   21  C   UNL     1     -10.017   7.055  69.926  1.00  0.00    -0.183 A  
HETATM   22  C   UNL     1     -10.686   8.279  69.793  1.00  0.00    -0.221 A  
HETATM   23  C   UNL     1     -12.160  10.154  70.516  1.00  0.00    -0.380 C  
HETATM   24  C   UNL     1      -9.636   6.768  71.259  1.00  0.00    -0.169 A  
HETATM   25  C   UNL     1     -10.729   8.820  72.119  1.00  0.00    -0.383 A  
HETATM   26  C   UNL     1      -9.927   7.695  72.313  1.00  0.00    -0.242 A  
HETATM   27  C   UNL     1     -11.157   9.085  70.840  1.00  0.00    -0.343 A  
BRANCH  24  28
HETATM   28  N   UNL     1      -8.993   5.578  71.698  1.00  0.00    -0.136 NA 
HETATM   29  N   UNL     1      -9.651   4.522  72.248  1.00  0.00    -0.147 NA 
HETATM   30  C   UNL     1      -7.428   4.390  72.481  1.00  0.00    -0.078 A  
HETATM   31  C   UNL     1      -8.649   3.750  72.677  1.00  0.00    -0.094 A  
HETATM   32  N   UNL     1      -7.631   5.575  71.909  1.00  0.00    -0.097 NA 
ENDBRANCH  24  28
ENDBRANCH   9  21
TORSDOF 3
ENDMDL
MODEL       64
REMARK 921   NORMALIZED FREE ENERGY PREDICTED BY IDOCK:   -4.88 KCAL/MOL
REMARK 922        TOTAL FREE ENERGY PREDICTED BY IDOCK:   -7.36 KCAL/MOL
REMARK 923 INTER-LIGAND FREE ENERGY PREDICTED BY IDOCK:   -5.80 KCAL/MOL
REMARK 924 INTRA-LIGAND FREE ENERGY PREDICTED BY IDOCK:   -1.56 KCAL/MOL
REMARK 927      BINDING AFFINITY PREDICTED BY RF-SCORE:    0.00 PKD
ROOT
HETATM    1  C   UNL     1     -11.477   8.644  70.586  1.00  0.00    -0.228 C  
HETATM    2  C   UNL     1     -11.397   9.294  71.987  1.00  0.00    -0.235 C  
HETATM    3  C   UNL     1     -11.496   7.088  70.686  1.00  0.00    -0.367 C  
HETATM    4  C   UNL     1     -10.166   6.323  70.791  1.00  0.00    -0.193 C  
HETATM    5  N   UNL     1      -9.291   6.526  69.650  1.00  0.00    -0.143 NA 
HETATM    6  C   UNL     1      -8.385   7.666  69.669  1.00  0.00    -0.130 C  
HETATM    7  O   UNL     1     -12.000  10.221  68.327  1.00  0.00    -0.159 OA 
HETATM    8  C   UNL     1      -9.069   8.956  70.149  1.00  0.00    -0.176 C  
HETATM    9  C   UNL     1     -10.840   9.785  68.419  1.00  0.00    -0.201 C  
HETATM   10  N   UNL     1     -10.435   9.163  69.649  1.00  0.00    -0.217 N  
ENDROOT
BRANCH   5  11
HETATM   11  C   UNL     1      -9.285   5.746  68.543  1.00  0.00    -0.121 A  
HETATM   12  N   UNL     1      -8.317   4.939  68.148  1.00  0.00    -0.099 NA 
HETATM   13  C   UNL     1     -10.025   4.917  66.692  1.00  0.00    -0.229 A  
HETATM   14  C   UNL     1     -10.760   4.597  65.558  1.00  0.00    -0.176 A  
HETATM   15  C   UNL     1      -8.117   3.603  66.030  1.00  0.00    -0.093 A  
HETATM   16  C   UNL     1      -8.751   4.442  66.955  1.00  0.00    -0.112 A  
HETATM   17  O   UNL     1     -10.379   5.752  67.716  1.00  0.00    -0.175 OA 
HETATM   18 CL   UNL     1      -8.044   2.331  63.653  1.00  0.00    -0.076 Cl 
HETATM   19  C   UNL     1     -10.106   3.779  64.625  1.00  0.00    -0.193 A  
HETATM   20  C   UNL     1      -8.811   3.297  64.855  1.00  0.00    -0.122 A  
ENDBRANCH   5  11
BRANCH   9  21
HETATM   21  C   UNL     1      -9.914   9.996  67.201  1.00  0.00    -0.251 A  
HETATM   22  C   UNL     1      -9.301   8.901  66.579  1.00  0.00    -0.252 A  
HETATM   23  C   UNL     1      -8.287   7.637  64.684  1.00  0.00    -0.005 C  
HETATM   24  C   UNL     1      -9.530  11.241  66.649  1.00  0.00    -0.186 A  
HETATM   25  C   UNL     1      -8.140  10.152  64.908  1.00  0.00    -0.153 A  
HETATM   26  C   UNL     1      -8.589  11.297  65.569  1.00  0.00     0.021 A  
HETATM   27  C   UNL     1      -8.548   8.934  65.395  1.00  0.00    -0.200 A  
BRANCH  24  28
HETATM   28  N   UNL     1     -10.031  12.512  67.044  1.00  0.00    -0.212 NA 
HETATM   29  N   UNL     1      -9.606  13.182  68.148  1.00  0.00    -0.223 NA 
HETATM   30  C   UNL     1     -11.456  14.062  67.245  1.00  0.00    -0.348 A  
HETATM   31  C   UNL     1     -10.473  14.195  68.223  1.00  0.00    -0.249 A  
HETATM   32  N   UNL     1     -11.222  12.969  66.522  1.00  0.00    -0.292 NA 
ENDBRANCH  24  28
ENDBRANCH   9  21
TORSDOF 3
ENDMDL
MODEL       65
REMARK 921   NORMALIZED FREE ENERGY PREDICTED BY IDOCK:   -4.84 KCAL/MOL
REMARK 922        TOTAL FREE ENERGY PREDICTED BY IDOCK:   -7.32 KCAL/MOL
REMARK 923 INTER-LIGAND FREE ENERGY PREDICTED BY IDOCK:   -5.84 KCAL/MOL
REMARK 924 INTRA-LIGAND FREE ENERGY PREDICTED BY IDOCK:   -1.48 KCAL/MOL
REMARK 927      BINDING AFFINITY PREDICTED BY RF-SCORE:    0.00 PKD
ROOT
HETATM    1  C   UNL     1      -8.310   8.168  70.386  1.00  0.00    -0.120 C  
HETATM    2  C   UNL     1      -8.452   7.091  71.486  1.00  0.00    -0.116 C  
HETATM    3  C   UNL     1      -9.394   9.279  70.540  1.00  0.00    -0.316 C  
HETATM    4  C   UNL     1     -10.787   9.062  69.926  1.00  0.00    -0.218 C  
HETATM    5  N   UNL     1     -10.763   8.883  68.485  1.00  0.00    -0.135 NA 
HETATM    6  C   UNL     1     -10.563   7.540  67.960  1.00  0.00    -0.155 C  
HETATM    7  O   UNL     1      -6.049   8.200  68.727  1.00  0.00    -0.041 OA 
HETATM    8  C   UNL     1      -9.440   6.783  68.687  1.00  0.00    -0.132 C  
HETATM    9  C   UNL     1      -7.107   7.841  68.184  1.00  0.00    -0.085 C  
HETATM   10  N   UNL     1      -8.252   7.584  69.012  1.00  0.00    -0.126 N  
ENDROOT
BRANCH   5  11
HETATM   11  C   UNL     1     -10.875   9.890  67.587  1.00  0.00    -0.257 A  
HETATM   12  N   UNL     1     -11.503  11.039  67.759  1.00  0.00    -0.499 NA 
HETATM   13  C   UNL     1     -10.627  10.905  65.698  1.00  0.00    -0.164 A  
HETATM   14  C   UNL     1     -10.318  11.266  64.393  1.00  0.00    -0.388 A  
HETATM   15  C   UNL     1     -11.936  12.885  66.112  1.00  0.00    -0.491 A  
HETATM   16  C   UNL     1     -11.395  11.672  66.557  1.00  0.00    -0.263 A  
HETATM   17  O   UNL     1     -10.281   9.758  66.357  1.00  0.00    -0.242 OA 
HETATM   18 CL   UNL     1     -12.387  14.703  64.171  1.00  0.00    -0.434 Cl 
HETATM   19  C   UNL     1     -10.886  12.469  63.948  1.00  0.00    -0.472 A  
HETATM   20  C   UNL     1     -11.682  13.258  64.788  1.00  0.00    -0.355 A  
ENDBRANCH   5  11
BRANCH   9  21
HETATM   21  C   UNL     1      -7.080   7.659  66.650  1.00  0.00    -0.079 A  
HETATM   22  C   UNL     1      -7.218   8.766  65.802  1.00  0.00    -0.084 A  
HETATM   23  C   UNL     1      -6.893  10.079  63.708  1.00  0.00    -0.126 C  
HETATM   24  C   UNL     1      -7.000   6.428  65.956  1.00  0.00    -0.062 A  
HETATM   25  C   UNL     1      -7.061   7.556  63.749  1.00  0.00    -0.070 A  
HETATM   26  C   UNL     1      -7.076   6.396  64.525  1.00  0.00    -0.057 A  
HETATM   27  C   UNL     1      -7.081   8.763  64.406  1.00  0.00    -0.089 A  
BRANCH  24  28
HETATM   28  N   UNL     1      -6.806   5.152  66.553  1.00  0.00    -0.061 NA 
HETATM   29  N   UNL     1      -7.708   4.138  66.481  1.00  0.00    -0.089 NA 
HETATM   30  C   UNL     1      -6.082   3.761  67.973  1.00  0.00    -0.032 A  
HETATM   31  C   UNL     1      -7.203   3.240  67.331  1.00  0.00    -0.058 A  
HETATM   32  N   UNL     1      -5.847   4.995  67.531  1.00  0.00    -0.021 NA 
ENDBRANCH  24  28
ENDBRANCH   9  21
TORSDOF 3
ENDMDL
MODEL       66
REMARK 921   NORMALIZED FREE ENERGY PREDICTED BY IDOCK:   -4.81 KCAL/MOL
REMARK 922        TOTAL FREE ENERGY PREDICTED BY IDOCK:   -7.28 KCAL/MOL
REMARK 923 INTER-LIGAND FREE ENERGY PREDICTED BY IDOCK:   -5.97 KCAL/MOL
REMARK 924 INTRA-LIGAND FREE ENERGY PREDICTED BY IDOCK:   -1.31 KCAL/MOL
REMARK 927      BINDING AFFINITY PREDICTED BY RF-SCORE:    0.00 PKD
ROOT
HETATM    1  C   UNL     1      -7.159  10.964  69.092  1.00  0.00    -0.109 C  
HETATM    2  C   UNL     1      -7.015  12.502  69.167  1.00  0.00    -0.025 C  
HETATM    3  C   UNL     1      -6.692  10.420  67.707  1.00  0.00    -0.070 C  
HETATM    4  C   UNL     1      -7.681  10.412  66.528  1.00  0.00    -0.121 C  
HETATM    5  N   UNL     1      -8.862   9.603  66.770  1.00  0.00    -0.134 NA 
HETATM    6  C   UNL     1      -9.999  10.223  67.436  1.00  0.00    -0.189 C  
HETATM    7  O   UNL     1      -7.739   9.487  71.404  1.00  0.00    -0.297 OA 
HETATM    8  C   UNL     1      -9.583  11.072  68.648  1.00  0.00    -0.195 C  
HETATM    9  C   UNL     1      -8.663   9.574  70.578  1.00  0.00    -0.197 C  
HETATM   10  N   UNL     1      -8.522  10.493  69.483  1.00  0.00    -0.100 N  
ENDROOT
BRANCH   5  11
HETATM   11  C   UNL     1      -8.968   8.291  66.454  1.00  0.00    -0.166 A  
HETATM   12  N   UNL     1      -8.114   7.575  65.746  1.00  0.00    -0.120 NA 
HETATM   13  C   UNL     1      -9.876   6.333  66.370  1.00  0.00    -0.075 A  
HETATM   14  C   UNL     1     -10.712   5.231  66.481  1.00  0.00    -0.290 A  
HETATM   15  C   UNL     1      -8.300   5.203  64.941  1.00  0.00    -0.145 A  
HETATM   16  C   UNL     1      -8.697   6.346  65.645  1.00  0.00    -0.099 A  
HETATM   17  O   UNL     1     -10.054   7.581  66.902  1.00  0.00    -0.224 OA 
HETATM   18 CL   UNL     1      -8.736   2.683  64.084  1.00  0.00    -0.090 Cl 
HETATM   19  C   UNL     1     -10.321   4.099  65.751  1.00  0.00    -0.091 A  
HETATM   20  C   UNL     1      -9.142   4.088  64.994  1.00  0.00    -0.140 A  
ENDBRANCH   5  11
BRANCH   9  21
HETATM   21  C   UNL     1      -9.915   8.707  70.835  1.00  0.00    -0.257 A  
HETATM   22  C   UNL     1     -11.033   9.249  71.482  1.00  0.00    -0.446 A  
HETATM   23  C   UNL     1     -13.453   9.470  72.036  1.00  0.00    -0.522 C  
HETATM   24  C   UNL     1     -10.051   7.328  70.542  1.00  0.00    -0.191 A  
HETATM   25  C   UNL     1     -12.368   7.270  71.422  1.00  0.00    -0.403 A  
HETATM   26  C   UNL     1     -11.240   6.622  70.915  1.00  0.00    -0.352 A  
HETATM   27  C   UNL     1     -12.274   8.620  71.660  1.00  0.00    -0.388 A  
BRANCH  24  28
HETATM   28  N   UNL     1      -9.101   6.532  69.845  1.00  0.00    -0.143 NA 
HETATM   29  N   UNL     1      -9.152   5.175  69.783  1.00  0.00    -0.113 NA 
HETATM   30  C   UNL     1      -7.211   6.015  69.048  1.00  0.00    -0.083 A  
HETATM   31  C   UNL     1      -7.983   4.867  69.216  1.00  0.00    -0.075 A  
HETATM   32  N   UNL     1      -7.884   7.075  69.492  1.00  0.00    -0.117 NA 
ENDBRANCH  24  28
ENDBRANCH   9  21
TORSDOF 3
ENDMDL
MODEL       67
REMARK 921   NORMALIZED FREE ENERGY PREDICTED BY IDOCK:   -4.79 KCAL/MOL
REMARK 922        TOTAL FREE ENERGY PREDICTED BY IDOCK:   -7.26 KCAL/MOL
REMARK 923 INTER-LIGAND FREE ENERGY PREDICTED BY IDOCK:   -5.94 KCAL/MOL
REMARK 924 INTRA-LIGAND FREE ENERGY PREDICTED BY IDOCK:   -1.32 KCAL/MOL
REMARK 927      BINDING AFFINITY PREDICTED BY RF-SCORE:    0.00 PKD
ROOT
HETATM    1  C   UNL     1      -7.718  10.968  67.731  1.00  0.00    -0.108 C  
HETATM    2  C   UNL     1      -7.837  12.451  67.310  1.00  0.00    -0.166 C  
HETATM    3  C   UNL     1      -7.546  10.041  66.489  1.00  0.00    -0.106 C  
HETATM    4  C   UNL     1      -8.794   9.561  65.729  1.00  0.00    -0.162 C  
HETATM    5  N   UNL     1      -9.704   8.778  66.547  1.00  0.00    -0.237 NA 
HETATM    6  C   UNL     1     -10.715   9.483  67.322  1.00  0.00    -0.199 C  
HETATM    7  O   UNL     1      -7.388  10.292  70.433  1.00  0.00    -0.258 OA 
HETATM    8  C   UNL     1     -10.151  10.716  68.047  1.00  0.00    -0.157 C  
HETATM    9  C   UNL     1      -8.498  10.022  69.945  1.00  0.00    -0.150 C  
HETATM   10  N   UNL     1      -8.820  10.538  68.643  1.00  0.00    -0.139 N  
ENDROOT
BRANCH   5  11
HETATM   11  C   UNL     1      -9.652   7.431  66.674  1.00  0.00    -0.190 A  
HETATM   12  N   UNL     1     -10.185   6.705  67.639  1.00  0.00    -0.159 NA 
HETATM   13  C   UNL     1      -9.090   5.408  66.172  1.00  0.00    -0.151 A  
HETATM   14  C   UNL     1      -8.559   4.260  65.598  1.00  0.00    -0.118 A  
HETATM   15  C   UNL     1      -9.992   4.239  68.076  1.00  0.00    -0.040 A  
HETATM   16  C   UNL     1      -9.799   5.427  67.361  1.00  0.00    -0.154 A  
HETATM   17  O   UNL     1      -8.999   6.695  65.718  1.00  0.00    -0.127 OA 
HETATM   18 CL   UNL     1      -9.575   1.598  68.430  1.00  0.00    -0.238 Cl 
HETATM   19  C   UNL     1      -8.733   3.079  66.335  1.00  0.00    -0.133 A  
HETATM   20  C   UNL     1      -9.431   3.071  67.550  1.00  0.00    -0.123 A  
ENDBRANCH   5  11
BRANCH   9  21
HETATM   21  C   UNL     1      -9.460   9.184  70.814  1.00  0.00    -0.334 A  
HETATM   22  C   UNL     1     -10.706   9.702  71.195  1.00  0.00    -0.365 A  
HETATM   23  C   UNL     1     -13.106   9.592  71.860  1.00  0.00    -0.517 C  
HETATM   24  C   UNL     1      -9.192   7.909  71.367  1.00  0.00    -0.136 A  
HETATM   25  C   UNL     1     -11.423   7.795  72.441  1.00  0.00    -0.418 A  
HETATM   26  C   UNL     1     -10.143   7.279  72.234  1.00  0.00    -0.219 A  
HETATM   27  C   UNL     1     -11.723   9.006  71.866  1.00  0.00    -0.445 A  
BRANCH  24  28
HETATM   28  N   UNL     1      -8.034   7.123  71.112  1.00  0.00    -0.102 NA 
HETATM   29  N   UNL     1      -7.755   6.556  69.908  1.00  0.00    -0.106 NA 
HETATM   30  C   UNL     1      -6.448   5.798  71.560  1.00  0.00    -0.049 A  
HETATM   31  C   UNL     1      -6.710   5.774  70.193  1.00  0.00    -0.048 A  
HETATM   32  N   UNL     1      -7.313   6.607  72.168  1.00  0.00    -0.088 NA 
ENDBRANCH  24  28
ENDBRANCH   9  21
TORSDOF 3
ENDMDL
MODEL       68
REMARK 921   NORMALIZED FREE ENERGY PREDICTED BY IDOCK:   -4.74 KCAL/MOL
REMARK 922        TOTAL FREE ENERGY PREDICTED BY IDOCK:   -7.20 KCAL/MOL
REMARK 923 INTER-LIGAND FREE ENERGY PREDICTED BY IDOCK:   -5.78 KCAL/MOL
REMARK 924 INTRA-LIGAND FREE ENERGY PREDICTED BY IDOCK:   -1.42 KCAL/MOL
REMARK 927      BINDING AFFINITY PREDICTED BY RF-SCORE:    0.00 PKD
ROOT
HETATM    1  C   UNL     1      -8.621  10.452  68.244  1.00  0.00    -0.128 C  
HETATM    2  C   UNL     1      -9.390  11.763  67.957  1.00  0.00    -0.184 C  
HETATM    3  C   UNL     1      -7.891   9.936  66.966  1.00  0.00    -0.102 C  
HETATM    4  C   UNL     1      -8.665   9.075  65.953  1.00  0.00    -0.166 C  
HETATM    5  N   UNL     1      -9.171   7.835  66.516  1.00  0.00    -0.175 NA 
HETATM    6  C   UNL     1     -10.474   7.853  67.165  1.00  0.00    -0.344 C  
HETATM    7  O   UNL     1      -8.303   9.551  70.880  1.00  0.00    -0.280 OA 
HETATM    8  C   UNL     1     -10.653   9.063  68.097  1.00  0.00    -0.171 C  
HETATM    9  C   UNL     1      -9.087   8.891  70.179  1.00  0.00    -0.176 C  
HETATM   10  N   UNL     1      -9.473   9.415  68.899  1.00  0.00    -0.152 N  
ENDROOT
BRANCH   5  11
HETATM   11  C   UNL     1      -8.495   6.662  66.515  1.00  0.00    -0.121 A  
HETATM   12  N   UNL     1      -7.578   6.277  65.646  1.00  0.00    -0.082 NA 
HETATM   13  C   UNL     1      -7.949   4.682  67.180  1.00  0.00    -0.102 A  
HETATM   14  C   UNL     1      -7.844   3.462  67.835  1.00  0.00    -0.072 A  
HETATM   15  C   UNL     1      -6.406   4.066  65.435  1.00  0.00    -0.032 A  
HETATM   16  C   UNL     1      -7.257   5.008  66.026  1.00  0.00    -0.076 A  
HETATM   17  O   UNL     1      -8.743   5.746  67.506  1.00  0.00    -0.110 OA 
HETATM   18 CL   UNL     1      -5.338   1.592  65.312  1.00  0.00    -0.005 Cl 
HETATM   19  C   UNL     1      -7.012   2.515  67.220  1.00  0.00    -0.045 A  
HETATM   20  C   UNL     1      -6.312   2.810  66.043  1.00  0.00    -0.028 A  
ENDBRANCH   5  11
BRANCH   9  21
HETATM   21  C   UNL     1      -9.618   7.570  70.777  1.00  0.00    -0.166 A  
HETATM   22  C   UNL     1      -8.805   6.429  70.810  1.00  0.00    -0.144 A  
HETATM   23  C   UNL     1      -7.989   4.244  71.690  1.00  0.00    -0.086 C  
HETATM   24  C   UNL     1     -10.928   7.337  71.260  1.00  0.00    -0.243 A  
HETATM   25  C   UNL     1     -10.401   4.987  71.848  1.00  0.00    -0.270 A  
HETATM   26  C   UNL     1     -11.316   6.032  71.707  1.00  0.00    -0.324 A  
HETATM   27  C   UNL     1      -9.109   5.211  71.438  1.00  0.00    -0.171 A  
BRANCH  24  28
HETATM   28  N   UNL     1     -11.948   8.319  71.392  1.00  0.00    -0.293 NA 
HETATM   29  N   UNL     1     -11.715   9.605  71.766  1.00  0.00    -0.362 NA 
HETATM   30  C   UNL     1     -13.888   9.066  71.785  1.00  0.00    -0.399 A  
HETATM   31  C   UNL     1     -12.949  10.083  71.945  1.00  0.00    -0.447 A  
HETATM   32  N   UNL     1     -13.266   7.927  71.487  1.00  0.00    -0.328 NA 
ENDBRANCH  24  28
ENDBRANCH   9  21
TORSDOF 3
ENDMDL
MODEL       69
REMARK 921   NORMALIZED FREE ENERGY PREDICTED BY IDOCK:   -4.72 KCAL/MOL
REMARK 922        TOTAL FREE ENERGY PREDICTED BY IDOCK:   -7.18 KCAL/MOL
REMARK 923 INTER-LIGAND FREE ENERGY PREDICTED BY IDOCK:   -6.52 KCAL/MOL
REMARK 924 INTRA-LIGAND FREE ENERGY PREDICTED BY IDOCK:   -0.66 KCAL/MOL
REMARK 927      BINDING AFFINITY PREDICTED BY RF-SCORE:    0.00 PKD
ROOT
HETATM    1  C   UNL     1     -12.325  13.759  71.676  1.00  0.00    -0.128 C  
HETATM    2  C   UNL     1     -13.732  13.766  72.318  1.00  0.00    -0.673 C  
HETATM    3  C   UNL     1     -11.504  15.014  72.104  1.00  0.00    -0.330 C  
HETATM    4  C   UNL     1     -11.679  16.330  71.328  1.00  0.00    -0.343 C  
HETATM    5  N   UNL     1     -11.328  16.223  69.923  1.00  0.00    -0.308 NA 
HETATM    6  C   UNL     1     -12.354  15.789  68.986  1.00  0.00     0.146 C  
HETATM    7  O   UNL     1     -11.392  11.473  70.346  1.00  0.00    -0.121 OA 
HETATM    8  C   UNL     1     -13.157  14.586  69.506  1.00  0.00     0.898 C  
HETATM    9  C   UNL     1     -11.676  12.438  69.617  1.00  0.00    -0.307 C  
HETATM   10  N   UNL     1     -12.367  13.557  70.196  1.00  0.00    -0.304 N  
ENDROOT
BRANCH   5  11
HETATM   11  C   UNL     1     -10.092  16.463  69.423  1.00  0.00    -0.243 A  
HETATM   12  N   UNL     1      -9.709  17.521  68.731  1.00  0.00    -0.305 NA 
HETATM   13  C   UNL     1      -8.020  16.063  68.969  1.00  0.00    -0.224 A  
HETATM   14  C   UNL     1      -6.754  15.510  68.830  1.00  0.00    -0.116 A  
HETATM   15  C   UNL     1      -7.515  17.980  67.599  1.00  0.00    -0.215 A  
HETATM   16  C   UNL     1      -8.413  17.261  68.397  1.00  0.00    -0.254 A  
HETATM   17  O   UNL     1      -9.095  15.546  69.639  1.00  0.00    -0.278 OA 
HETATM   18 CL   UNL     1      -5.130  18.235  66.365  1.00  0.00    -0.165 Cl 
HETATM   19  C   UNL     1      -5.870  16.222  68.006  1.00  0.00    -0.128 A  
HETATM   20  C   UNL     1      -6.245  17.428  67.401  1.00  0.00    -0.143 A  
ENDBRANCH   5  11
BRANCH   9  21
HETATM   21  C   UNL     1     -11.295  12.325  68.125  1.00  0.00    -0.349 A  
HETATM   22  C   UNL     1     -12.054  12.982  67.147  1.00  0.00    -0.325 A  
HETATM   23  C   UNL     1     -12.458  14.111  64.962  1.00  0.00    -0.434 C  
HETATM   24  C   UNL     1     -10.253  11.533  67.586  1.00  0.00    -0.184 A  
HETATM   25  C   UNL     1     -10.769  12.254  65.271  1.00  0.00    -0.329 A  
HETATM   26  C   UNL     1     -10.064  11.450  66.168  1.00  0.00    -0.271 A  
HETATM   27  C   UNL     1     -11.747  13.073  65.781  1.00  0.00    -0.427 A  
BRANCH  24  28
HETATM   28  N   UNL     1      -9.296  10.800  68.340  1.00  0.00    -0.160 NA 
HETATM   29  N   UNL     1      -8.079  11.290  68.697  1.00  0.00    -0.143 NA 
HETATM   30  C   UNL     1      -8.273   9.086  69.040  1.00  0.00    -0.119 A  
HETATM   31  C   UNL     1      -7.469  10.212  69.199  1.00  0.00    -0.098 A  
HETATM   32  N   UNL     1      -9.415   9.431  68.448  1.00  0.00    -0.141 NA 
ENDBRANCH  24  28
ENDBRANCH   9  21
TORSDOF 3
ENDMDL
MODEL       70
REMARK 921   NORMALIZED FREE ENERGY PREDICTED BY IDOCK:   -4.71 KCAL/MOL
REMARK 922        TOTAL FREE ENERGY PREDICTED BY IDOCK:   -7.17 KCAL/MOL
REMARK 923 INTER-LIGAND FREE ENERGY PREDICTED BY IDOCK:   -6.08 KCAL/MOL
REMARK 924 INTRA-LIGAND FREE ENERGY PREDICTED BY IDOCK:   -1.09 KCAL/MOL
REMARK 927      BINDING AFFINITY PREDICTED BY RF-SCORE:    0.00 PKD
ROOT
HETATM    1  C   UNL     1      -7.760  10.788  68.044  1.00  0.00    -0.101 C  
HETATM    2  C   UNL     1      -8.001  12.261  67.637  1.00  0.00    -0.161 C  
HETATM    3  C   UNL     1      -7.018  10.006  66.917  1.00  0.00    -0.089 C  
HETATM    4  C   UNL     1      -7.833   9.390  65.766  1.00  0.00    -0.099 C  
HETATM    5  N   UNL     1      -8.804   8.405  66.209  1.00  0.00    -0.150 NA 
HETATM    6  C   UNL     1     -10.126   8.868  66.605  1.00  0.00    -0.287 C  
HETATM    7  O   UNL     1      -8.229   9.958  70.681  1.00  0.00    -0.210 OA 
HETATM    8  C   UNL     1     -10.070  10.114  67.504  1.00  0.00    -0.201 C  
HETATM    9  C   UNL     1      -9.045   9.551  69.838  1.00  0.00    -0.216 C  
HETATM   10  N   UNL     1      -9.004  10.110  68.515  1.00  0.00    -0.123 N  
ENDROOT
BRANCH   5  11
HETATM   11  C   UNL     1      -8.553   7.078  66.317  1.00  0.00    -0.139 A  
HETATM   12  N   UNL     1      -7.961   6.464  67.326  1.00  0.00    -0.111 NA 
HETATM   13  C   UNL     1      -8.499   5.009  65.704  1.00  0.00    -0.127 A  
HETATM   14  C   UNL     1      -8.598   3.803  65.024  1.00  0.00    -0.113 A  
HETATM   15  C   UNL     1      -7.276   4.058  67.549  1.00  0.00    -0.067 A  
HETATM   16  C   UNL     1      -7.878   5.161  66.932  1.00  0.00    -0.100 A  
HETATM   17  O   UNL     1      -8.944   6.239  65.305  1.00  0.00    -0.010 OA 
HETATM   18 CL   UNL     1      -6.524   1.468  67.551  1.00  0.00    -0.024 Cl 
HETATM   19  C   UNL     1      -7.968   2.709  65.636  1.00  0.00    -0.082 A  
HETATM   20  C   UNL     1      -7.317   2.836  66.870  1.00  0.00    -0.065 A  
ENDBRANCH   5  11
BRANCH   9  21
HETATM   21  C   UNL     1     -10.072   8.498  70.309  1.00  0.00    -0.199 A  
HETATM   22  C   UNL     1      -9.797   7.130  70.176  1.00  0.00    -0.180 A  
HETATM   23  C   UNL     1      -9.950   4.713  70.766  1.00  0.00    -0.284 C  
HETATM   24  C   UNL     1     -11.364   8.761  70.825  1.00  0.00    -0.272 A  
HETATM   25  C   UNL     1     -11.846   6.348  71.121  1.00  0.00    -0.325 A  
HETATM   26  C   UNL     1     -12.253   7.683  71.141  1.00  0.00    -0.310 A  
HETATM   27  C   UNL     1     -10.574   6.075  70.677  1.00  0.00    -0.322 A  
BRANCH  24  28
HETATM   28  N   UNL     1     -11.892  10.050  71.114  1.00  0.00    -0.369 NA 
HETATM   29  N   UNL     1     -12.802  10.291  72.095  1.00  0.00    -0.346 NA 
HETATM   30  C   UNL     1     -12.528  12.025  70.706  1.00  0.00    -0.279 A  
HETATM   31  C   UNL     1     -13.144  11.561  71.866  1.00  0.00    -0.387 A  
HETATM   32  N   UNL     1     -11.772  11.061  70.185  1.00  0.00    -0.328 NA 
ENDBRANCH  24  28
ENDBRANCH   9  21
TORSDOF 3
ENDMDL
MODEL       71
REMARK 921   NORMALIZED FREE ENERGY PREDICTED BY IDOCK:   -4.68 KCAL/MOL
REMARK 922        TOTAL FREE ENERGY PREDICTED BY IDOCK:   -7.13 KCAL/MOL
REMARK 923 INTER-LIGAND FREE ENERGY PREDICTED BY IDOCK:   -5.84 KCAL/MOL
REMARK 924 INTRA-LIGAND FREE ENERGY PREDICTED BY IDOCK:   -1.29 KCAL/MOL
REMARK 927      BINDING AFFINITY PREDICTED BY RF-SCORE:    0.00 PKD
ROOT
HETATM    1  C   UNL     1     -10.632   6.466  67.291  1.00  0.00    -0.314 C  
HETATM    2  C   UNL     1     -10.651   5.116  66.537  1.00  0.00    -0.320 C  
HETATM    3  C   UNL     1     -10.250   7.639  66.336  1.00  0.00    -0.036 C  
HETATM    4  C   UNL     1      -8.765   7.944  66.074  1.00  0.00    -0.158 C  
HETATM    5  N   UNL     1      -8.027   8.299  67.274  1.00  0.00    -0.105 NA 
HETATM    6  C   UNL     1      -7.442   7.227  68.066  1.00  0.00    -0.102 C  
HETATM    7  O   UNL     1     -11.649   6.642  69.898  1.00  0.00    -0.371 OA 
HETATM    8  C   UNL     1      -8.407   6.048  68.271  1.00  0.00    -0.113 C  
HETATM    9  C   UNL     1     -10.414   6.725  69.798  1.00  0.00    -0.210 C  
HETATM   10  N   UNL     1      -9.804   6.422  68.534  1.00  0.00    -0.135 N  
ENDROOT
BRANCH   5  11
HETATM   11  C   UNL     1      -7.878   9.564  67.734  1.00  0.00    -0.095 A  
HETATM   12  N   UNL     1      -8.682  10.588  67.513  1.00  0.00    -0.125 NA 
HETATM   13  C   UNL     1      -6.924  11.204  68.764  1.00  0.00    -0.088 A  
HETATM   14  C   UNL     1      -6.069  12.027  69.485  1.00  0.00    -0.113 A  
HETATM   15  C   UNL     1      -8.406  13.002  68.149  1.00  0.00    -0.164 A  
HETATM   16  C   UNL     1      -8.068  11.643  68.119  1.00  0.00    -0.148 A  
HETATM   17  O   UNL     1      -6.799   9.863  68.528  1.00  0.00    -0.058 OA 
HETATM   18 CL   UNL     1      -7.874  15.557  68.830  1.00  0.00    -0.147 Cl 
HETATM   19  C   UNL     1      -6.401  13.391  69.486  1.00  0.00    -0.106 A  
HETATM   20  C   UNL     1      -7.542  13.867  68.829  1.00  0.00    -0.108 A  
ENDBRANCH   5  11
BRANCH   9  21
HETATM   21  C   UNL     1      -9.633   7.110  71.074  1.00  0.00    -0.158 A  
HETATM   22  C   UNL     1      -8.618   6.276  71.562  1.00  0.00    -0.131 A  
HETATM   23  C   UNL     1      -6.503   5.735  72.767  1.00  0.00    -0.063 C  
HETATM   24  C   UNL     1      -9.880   8.233  71.899  1.00  0.00    -0.232 A  
HETATM   25  C   UNL     1      -8.039   7.627  73.445  1.00  0.00    -0.188 A  
HETATM   26  C   UNL     1      -9.135   8.423  73.109  1.00  0.00    -0.225 A  
HETATM   27  C   UNL     1      -7.747   6.564  72.624  1.00  0.00    -0.102 A  
BRANCH  24  28
HETATM   28  N   UNL     1     -10.813   9.271  71.626  1.00  0.00    -0.372 NA 
HETATM   29  N   UNL     1     -12.095   9.274  72.079  1.00  0.00    -0.359 NA 
HETATM   30  C   UNL     1     -11.710  10.836  70.522  1.00  0.00    -0.351 A  
HETATM   31  C   UNL     1     -12.630  10.308  71.425  1.00  0.00    -0.434 A  
HETATM   32  N   UNL     1     -10.568  10.155  70.597  1.00  0.00    -0.209 NA 
ENDBRANCH  24  28
ENDBRANCH   9  21
TORSDOF 3
ENDMDL
MODEL       72
REMARK 921   NORMALIZED FREE ENERGY PREDICTED BY IDOCK:   -4.67 KCAL/MOL
REMARK 922        TOTAL FREE ENERGY PREDICTED BY IDOCK:   -7.12 KCAL/MOL
REMARK 923 INTER-LIGAND FREE ENERGY PREDICTED BY IDOCK:   -5.75 KCAL/MOL
REMARK 924 INTRA-LIGAND FREE ENERGY PREDICTED BY IDOCK:   -1.37 KCAL/MOL
REMARK 927      BINDING AFFINITY PREDICTED BY RF-SCORE:    0.00 PKD
ROOT
HETATM    1  C   UNL     1      -6.390   5.267  66.666  1.00  0.00    -0.036 C  
HETATM    2  C   UNL     1      -5.751   4.441  65.524  1.00  0.00    -0.018 C  
HETATM    3  C   UNL     1      -7.024   4.338  67.746  1.00  0.00    -0.059 C  
HETATM    4  C   UNL     1      -8.455   3.811  67.540  1.00  0.00    -0.096 C  
HETATM    5  N   UNL     1      -9.451   4.864  67.445  1.00  0.00    -0.132 NA 
HETATM    6  C   UNL     1      -9.713   5.450  66.139  1.00  0.00    -0.145 C  
HETATM    7  O   UNL     1      -5.936   8.029  66.833  1.00  0.00    -0.049 OA 
HETATM    8  C   UNL     1      -8.424   5.759  65.361  1.00  0.00    -0.151 C  
HETATM    9  C   UNL     1      -7.081   7.694  66.488  1.00  0.00    -0.075 C  
HETATM   10  N   UNL     1      -7.326   6.317  66.163  1.00  0.00    -0.079 N  
ENDROOT
BRANCH   5  11
HETATM   11  C   UNL     1     -10.131   5.371  68.501  1.00  0.00    -0.177 A  
HETATM   12  N   UNL     1     -11.083   6.284  68.465  1.00  0.00    -0.347 NA 
HETATM   13  C   UNL     1     -10.655   5.656  70.576  1.00  0.00    -0.284 A  
HETATM   14  C   UNL     1     -10.736   5.622  71.961  1.00  0.00    -0.291 A  
HETATM   15  C   UNL     1     -12.270   7.430  70.359  1.00  0.00     0.070 A  
HETATM   16  C   UNL     1     -11.393   6.509  69.773  1.00  0.00    -0.393 A  
HETATM   17  O   UNL     1      -9.844   4.913  69.762  1.00  0.00    -0.182 OA 
HETATM   18 CL   UNL     1     -13.350   8.621  72.525  1.00  0.00    -0.366 Cl 
HETATM   19  C   UNL     1     -11.596   6.567  72.540  1.00  0.00    -0.243 A  
HETATM   20  C   UNL     1     -12.343   7.454  71.755  1.00  0.00    -0.333 A  
ENDBRANCH   5  11
BRANCH   9  21
HETATM   21  C   UNL     1      -8.140   8.815  66.395  1.00  0.00    -0.103 A  
HETATM   22  C   UNL     1      -8.428   9.417  65.164  1.00  0.00    -0.166 A  
HETATM   23  C   UNL     1      -9.847  10.598  63.488  1.00  0.00    -0.384 C  
HETATM   24  C   UNL     1      -8.845   9.390  67.479  1.00  0.00    -0.118 A  
HETATM   25  C   UNL     1     -10.083  10.932  65.983  1.00  0.00    -0.303 A  
HETATM   26  C   UNL     1      -9.738  10.490  67.261  1.00  0.00    -0.197 A  
HETATM   27  C   UNL     1      -9.450  10.346  64.914  1.00  0.00    -0.320 A  
BRANCH  24  28
HETATM   28  N   UNL     1      -8.791   8.949  68.830  1.00  0.00    -0.137 NA 
HETATM   29  N   UNL     1      -9.333   9.635  69.872  1.00  0.00    -0.215 NA 
HETATM   30  C   UNL     1      -7.987   7.968  70.522  1.00  0.00    -0.096 A  
HETATM   31  C   UNL     1      -8.871   8.963  70.930  1.00  0.00    -0.219 A  
HETATM   32  N   UNL     1      -7.882   7.980  69.195  1.00  0.00    -0.106 NA 
ENDBRANCH  24  28
ENDBRANCH   9  21
TORSDOF 3
ENDMDL
MODEL       73
REMARK 921   NORMALIZED FREE ENERGY PREDICTED BY IDOCK:   -4.67 KCAL/MOL
REMARK 922        TOTAL FREE ENERGY PREDICTED BY IDOCK:   -7.12 KCAL/MOL
REMARK 923 INTER-LIGAND FREE ENERGY PREDICTED BY IDOCK:   -5.61 KCAL/MOL
REMARK 924 INTRA-LIGAND FREE ENERGY PREDICTED BY IDOCK:   -1.50 KCAL/MOL
REMARK 927      BINDING AFFINITY PREDICTED BY RF-SCORE:    0.00 PKD
ROOT
HETATM    1  C   UNL     1     -10.490   8.580  72.149  1.00  0.00    -0.342 C  
HETATM    2  C   UNL     1     -11.056   7.281  72.769  1.00  0.00    -0.362 C  
HETATM    3  C   UNL     1     -11.632   9.589  71.813  1.00  0.00    -0.382 C  
HETATM    4  C   UNL     1     -12.379   9.462  70.475  1.00  0.00     0.062 C  
HETATM    5  N   UNL     1     -11.517   9.608  69.315  1.00  0.00     0.041 NA 
HETATM    6  C   UNL     1     -10.845   8.423  68.801  1.00  0.00     0.052 C  
HETATM    7  O   UNL     1      -7.728   9.062  72.159  1.00  0.00    -0.351 OA 
HETATM    8  C   UNL     1     -10.225   7.566  69.916  1.00  0.00    -0.210 C  
HETATM    9  C   UNL     1      -8.220   8.795  71.051  1.00  0.00    -0.160 C  
HETATM   10  N   UNL     1      -9.575   8.318  70.997  1.00  0.00    -0.155 N  
ENDROOT
BRANCH   5  11
HETATM   11  C   UNL     1     -11.261  10.785  68.696  1.00  0.00    -0.274 A  
HETATM   12  N   UNL     1     -10.237  11.590  68.917  1.00  0.00    -0.187 NA 
HETATM   13  C   UNL     1     -11.604  12.442  67.355  1.00  0.00    -0.365 A  
HETATM   14  C   UNL     1     -12.113  13.338  66.425  1.00  0.00    -0.454 A  
HETATM   15  C   UNL     1      -9.766  13.870  67.975  1.00  0.00    -0.226 A  
HETATM   16  C   UNL     1     -10.465  12.664  68.110  1.00  0.00    -0.231 A  
HETATM   17  O   UNL     1     -12.119  11.228  67.721  1.00  0.00    -0.631 OA 
HETATM   18 CL   UNL     1      -9.496  16.344  66.936  1.00  0.00    -0.238 Cl 
HETATM   19  C   UNL     1     -11.422  14.555  66.317  1.00  0.00    -0.358 A  
HETATM   20  C   UNL     1     -10.276  14.816  67.080  1.00  0.00    -0.253 A  
ENDBRANCH   5  11
BRANCH   9  21
HETATM   21  C   UNL     1      -7.304   8.958  69.819  1.00  0.00    -0.056 A  
HETATM   22  C   UNL     1      -7.127  10.217  69.229  1.00  0.00    -0.076 A  
HETATM   23  C   UNL     1      -5.910  11.977  67.949  1.00  0.00    -0.063 C  
HETATM   24  C   UNL     1      -6.637   7.918  69.128  1.00  0.00    -0.040 A  
HETATM   25  C   UNL     1      -5.636   9.502  67.505  1.00  0.00    -0.037 A  
HETATM   26  C   UNL     1      -5.886   8.200  67.941  1.00  0.00    -0.042 A  
HETATM   27  C   UNL     1      -6.229  10.531  68.197  1.00  0.00    -0.050 A  
BRANCH  24  28
HETATM   28  N   UNL     1      -6.597   6.553  69.527  1.00  0.00    -0.046 NA 
HETATM   29  N   UNL     1      -7.419   5.594  69.023  1.00  0.00    -0.082 NA 
HETATM   30  C   UNL     1      -6.288   4.919  70.833  1.00  0.00    -0.019 A  
HETATM   31  C   UNL     1      -7.163   4.549  69.815  1.00  0.00    -0.050 A  
HETATM   32  N   UNL     1      -5.960   6.202  70.698  1.00  0.00    -0.025 NA 
ENDBRANCH  24  28
ENDBRANCH   9  21
TORSDOF 3
ENDMDL
MODEL       74
REMARK 921   NORMALIZED FREE ENERGY PREDICTED BY IDOCK:   -4.57 KCAL/MOL
REMARK 922        TOTAL FREE ENERGY PREDICTED BY IDOCK:   -7.00 KCAL/MOL
REMARK 923 INTER-LIGAND FREE ENERGY PREDICTED BY IDOCK:   -5.55 KCAL/MOL
REMARK 924 INTRA-LIGAND FREE ENERGY PREDICTED BY IDOCK:   -1.45 KCAL/MOL
REMARK 927      BINDING AFFINITY PREDICTED BY RF-SCORE:    0.00 PKD
ROOT
HETATM    1  C   UNL     1      -8.600   8.193  70.000  1.00  0.00    -0.129 C  
HETATM    2  C   UNL     1      -8.880   6.954  70.882  1.00  0.00    -0.149 C  
HETATM    3  C   UNL     1      -9.279   9.469  70.588  1.00  0.00    -0.243 C  
HETATM    4  C   UNL     1     -10.751   9.760  70.253  1.00  0.00    -0.302 C  
HETATM    5  N   UNL     1     -10.998   9.932  68.832  1.00  0.00    -0.207 NA 
HETATM    6  C   UNL     1     -11.278   8.749  68.032  1.00  0.00     0.556 C  
HETATM    7  O   UNL     1      -6.705   8.057  67.938  1.00  0.00    -0.065 OA 
HETATM    8  C   UNL     1     -10.326   7.584  68.348  1.00  0.00    -0.195 C  
HETATM    9  C   UNL     1      -7.891   8.116  67.573  1.00  0.00    -0.110 C  
HETATM   10  N   UNL     1      -8.922   7.961  68.560  1.00  0.00    -0.134 N  
ENDROOT
BRANCH   5  11
HETATM   11  C   UNL     1     -10.947  11.121  68.186  1.00  0.00    -0.238 A  
HETATM   12  N   UNL     1     -11.886  11.649  67.423  1.00  0.00    -0.630 NA 
HETATM   13  C   UNL     1     -10.081  12.979  67.507  1.00  0.00    -0.218 A  
HETATM   14  C   UNL     1      -9.251  14.060  67.239  1.00  0.00    -0.231 A  
HETATM   15  C   UNL     1     -11.826  13.739  66.030  1.00  0.00    -0.415 A  
HETATM   16  C   UNL     1     -11.335  12.803  66.949  1.00  0.00    -0.321 A  
HETATM   17  O   UNL     1      -9.826  11.903  68.312  1.00  0.00    -0.190 OA 
HETATM   18 CL   UNL     1     -11.525  15.954  64.521  1.00  0.00    -0.370 Cl 
HETATM   19  C   UNL     1      -9.740  14.978  66.297  1.00  0.00    -0.316 A  
HETATM   20  C   UNL     1     -10.998  14.817  65.703  1.00  0.00    -0.344 A  
ENDBRANCH   5  11
BRANCH   9  21
HETATM   21  C   UNL     1      -8.150   8.306  66.062  1.00  0.00    -0.110 A  
HETATM   22  C   UNL     1      -8.904   9.395  65.604  1.00  0.00    -0.208 A  
HETATM   23  C   UNL     1      -9.616  11.141  63.974  1.00  0.00    -0.288 C  
HETATM   24  C   UNL     1      -7.755   7.423  65.028  1.00  0.00    -0.114 A  
HETATM   25  C   UNL     1      -8.763   8.863  63.280  1.00  0.00    -0.050 A  
HETATM   26  C   UNL     1      -8.141   7.677  63.672  1.00  0.00    -0.038 A  
HETATM   27  C   UNL     1      -9.104   9.760  64.264  1.00  0.00    -0.293 A  
BRANCH  24  28
HETATM   28  N   UNL     1      -6.942   6.268  65.192  1.00  0.00    -0.054 NA 
HETATM   29  N   UNL     1      -5.583   6.296  65.200  1.00  0.00    -0.021 NA 
HETATM   30  C   UNL     1      -6.418   4.225  65.045  1.00  0.00    -0.035 A  
HETATM   31  C   UNL     1      -5.267   4.998  65.176  1.00  0.00    -0.012 A  
HETATM   32  N   UNL     1      -7.487   5.017  64.999  1.00  0.00    -0.075 NA 
ENDBRANCH  24  28
ENDBRANCH   9  21
TORSDOF 3
ENDMDL
MODEL       75
REMARK 921   NORMALIZED FREE ENERGY PREDICTED BY IDOCK:   -4.56 KCAL/MOL
REMARK 922        TOTAL FREE ENERGY PREDICTED BY IDOCK:   -6.98 KCAL/MOL
REMARK 923 INTER-LIGAND FREE ENERGY PREDICTED BY IDOCK:   -5.38 KCAL/MOL
REMARK 924 INTRA-LIGAND FREE ENERGY PREDICTED BY IDOCK:   -1.60 KCAL/MOL
REMARK 927      BINDING AFFINITY PREDICTED BY RF-SCORE:    0.00 PKD
ROOT
HETATM    1  C   UNL     1      -8.444   5.815  70.451  1.00  0.00    -0.129 C  
HETATM    2  C   UNL     1      -8.494   4.273  70.564  1.00  0.00    -0.100 C  
HETATM    3  C   UNL     1      -9.438   6.486  71.448  1.00  0.00    -0.164 C  
HETATM    4  C   UNL     1     -10.910   6.662  71.038  1.00  0.00    -0.245 C  
HETATM    5  N   UNL     1     -11.087   7.487  69.857  1.00  0.00    -0.217 NA 
HETATM    6  C   UNL     1     -11.029   6.845  68.551  1.00  0.00    -0.136 C  
HETATM    7  O   UNL     1      -6.425   7.054  68.950  1.00  0.00    -0.027 OA 
HETATM    8  C   UNL     1      -9.860   5.854  68.432  1.00  0.00    -0.134 C  
HETATM    9  C   UNL     1      -7.563   7.095  68.454  1.00  0.00    -0.118 C  
HETATM   10  N   UNL     1      -8.600   6.296  69.045  1.00  0.00    -0.122 N  
ENDROOT
BRANCH   5  11
HETATM   11  C   UNL     1     -11.265   8.830  69.881  1.00  0.00    -0.051 A  
HETATM   12  N   UNL     1     -11.665   9.557  70.907  1.00  0.00    -0.298 NA 
HETATM   13  C   UNL     1     -11.331  10.840  69.097  1.00  0.00    -0.282 A  
HETATM   14  C   UNL     1     -11.292  11.978  68.301  1.00  0.00    -0.342 A  
HETATM   15  C   UNL     1     -12.210  12.007  71.013  1.00  0.00    -0.245 A  
HETATM   16  C   UNL     1     -11.757  10.825  70.414  1.00  0.00    -0.351 A  
HETATM   17  O   UNL     1     -11.004   9.559  68.748  1.00  0.00    -0.181 OA 
HETATM   18 CL   UNL     1     -12.847  14.625  70.893  1.00  0.00    -0.408 Cl 
HETATM   19  C   UNL     1     -11.774  13.151  68.901  1.00  0.00    -0.368 A  
HETATM   20  C   UNL     1     -12.227  13.164  70.226  1.00  0.00    -0.306 A  
ENDBRANCH   5  11
BRANCH   9  21
HETATM   21  C   UNL     1      -7.749   7.980  67.202  1.00  0.00    -0.101 A  
HETATM   22  C   UNL     1      -8.090   9.332  67.334  1.00  0.00    -0.110 A  
HETATM   23  C   UNL     1      -8.173  11.731  66.661  1.00  0.00    -0.117 C  
HETATM   24  C   UNL     1      -7.685   7.547  65.856  1.00  0.00    -0.099 A  
HETATM   25  C   UNL     1      -8.152   9.826  64.998  1.00  0.00    -0.134 A  
HETATM   26  C   UNL     1      -7.968   8.458  64.787  1.00  0.00    -0.138 A  
HETATM   27  C   UNL     1      -8.161  10.275  66.297  1.00  0.00    -0.129 A  
BRANCH  24  28
HETATM   28  N   UNL     1      -7.313   6.245  65.422  1.00  0.00    -0.074 NA 
HETATM   29  N   UNL     1      -6.025   5.830  65.295  1.00  0.00    -0.024 NA 
HETATM   30  C   UNL     1      -7.496   4.425  64.361  1.00  0.00    -0.071 A  
HETATM   31  C   UNL     1      -6.160   4.649  64.685  1.00  0.00    -0.029 A  
HETATM   32  N   UNL     1      -8.235   5.452  64.772  1.00  0.00    -0.127 NA 
ENDBRANCH  24  28
ENDBRANCH   9  21
TORSDOF 3
ENDMDL
MODEL       76
REMARK 921   NORMALIZED FREE ENERGY PREDICTED BY IDOCK:   -4.54 KCAL/MOL
REMARK 922        TOTAL FREE ENERGY PREDICTED BY IDOCK:   -6.96 KCAL/MOL
REMARK 923 INTER-LIGAND FREE ENERGY PREDICTED BY IDOCK:   -5.62 KCAL/MOL
REMARK 924 INTRA-LIGAND FREE ENERGY PREDICTED BY IDOCK:   -1.34 KCAL/MOL
REMARK 927      BINDING AFFINITY PREDICTED BY RF-SCORE:    0.00 PKD
ROOT
HETATM    1  C   UNL     1      -6.354  12.002  67.882  1.00  0.00    -0.073 C  
HETATM    2  C   UNL     1      -5.982  10.944  68.947  1.00  0.00    -0.040 C  
HETATM    3  C   UNL     1      -5.310  13.160  67.849  1.00  0.00    -0.112 C  
HETATM    4  C   UNL     1      -5.454  14.332  68.835  1.00  0.00    -0.086 C  
HETATM    5  N   UNL     1      -6.699  15.064  68.686  1.00  0.00    -0.090 NA 
HETATM    6  C   UNL     1      -7.869  14.593  69.415  1.00  0.00    -0.028 C  
HETATM    7  O   UNL     1      -8.396  11.483  66.031  1.00  0.00    -0.094 OA 
HETATM    8  C   UNL     1      -8.044  13.068  69.328  1.00  0.00     0.688 C  
HETATM    9  C   UNL     1      -8.665  12.325  66.904  1.00  0.00    -0.197 C  
HETATM   10  N   UNL     1      -7.764  12.479  68.011  1.00  0.00    -0.128 N  
ENDROOT
BRANCH   5  11
HETATM   11  C   UNL     1      -6.862  16.139  67.879  1.00  0.00    -0.137 A  
HETATM   12  N   UNL     1      -6.078  16.508  66.882  1.00  0.00    -0.299 NA 
HETATM   13  C   UNL     1      -7.778  17.949  67.140  1.00  0.00    -0.210 A  
HETATM   14  C   UNL     1      -8.578  19.064  66.928  1.00  0.00    -0.307 A  
HETATM   15  C   UNL     1      -6.175  18.571  65.453  1.00  0.00    -0.307 A  
HETATM   16  C   UNL     1      -6.619  17.677  66.435  1.00  0.00    -0.243 A  
HETATM   17  O   UNL     1      -7.947  16.958  68.068  1.00  0.00    -0.176 OA 
HETATM   18 CL   UNL     1      -6.387  20.895  64.102  1.00  0.00    -0.359 Cl 
HETATM   19  C   UNL     1      -8.111  19.968  65.962  1.00  0.00    -0.281 A  
HETATM   20  C   UNL     1      -6.933  19.728  65.244  1.00  0.00    -0.210 A  
ENDBRANCH   5  11
BRANCH   9  21
HETATM   21  C   UNL     1      -9.987  13.107  66.738  1.00  0.00    -0.250 A  
HETATM   22  C   UNL     1     -10.102  14.104  65.761  1.00  0.00    -0.352 A  
HETATM   23  C   UNL     1     -11.297  15.548  64.116  1.00  0.00    -0.004 C  
HETATM   24  C   UNL     1     -11.140  12.981  67.548  1.00  0.00    -0.268 A  
HETATM   25  C   UNL     1     -12.363  14.701  66.248  1.00  0.00    -0.085 A  
HETATM   26  C   UNL     1     -12.271  13.835  67.339  1.00  0.00    -0.290 A  
HETATM   27  C   UNL     1     -11.273  14.795  65.415  1.00  0.00    -0.347 A  
BRANCH  24  28
HETATM   28  N   UNL     1     -11.326  12.020  68.580  1.00  0.00    -0.251 NA 
HETATM   29  N   UNL     1     -11.488  10.689  68.354  1.00  0.00    -0.336 NA 
HETATM   30  C   UNL     1     -11.957  11.285  70.460  1.00  0.00    -0.371 A  
HETATM   31  C   UNL     1     -11.820  10.229  69.563  1.00  0.00    -0.077 A  
HETATM   32  N   UNL     1     -11.700  12.435  69.840  1.00  0.00    -0.298 NA 
ENDBRANCH  24  28
ENDBRANCH   9  21
TORSDOF 3
ENDMDL
MODEL       77
REMARK 921   NORMALIZED FREE ENERGY PREDICTED BY IDOCK:   -4.52 KCAL/MOL
REMARK 922        TOTAL FREE ENERGY PREDICTED BY IDOCK:   -6.94 KCAL/MOL
REMARK 923 INTER-LIGAND FREE ENERGY PREDICTED BY IDOCK:   -5.79 KCAL/MOL
REMARK 924 INTRA-LIGAND FREE ENERGY PREDICTED BY IDOCK:   -1.15 KCAL/MOL
REMARK 927      BINDING AFFINITY PREDICTED BY RF-SCORE:    0.00 PKD
ROOT
HETATM    1  C   UNL     1      -8.033   8.897  65.061  1.00  0.00    -0.125 C  
HETATM    2  C   UNL     1      -7.931   7.611  64.208  1.00  0.00    -0.112 C  
HETATM    3  C   UNL     1      -6.648   9.605  65.181  1.00  0.00    -0.093 C  
HETATM    4  C   UNL     1      -5.661   9.150  66.269  1.00  0.00    -0.053 C  
HETATM    5  N   UNL     1      -6.178   9.301  67.618  1.00  0.00    -0.057 NA 
HETATM    6  C   UNL     1      -6.963   8.212  68.182  1.00  0.00    -0.077 C  
HETATM    7  O   UNL     1     -10.543   9.908  65.795  1.00  0.00    -0.060 OA 
HETATM    8  C   UNL     1      -7.998   7.655  67.192  1.00  0.00    -0.117 C  
HETATM    9  C   UNL     1      -9.882   9.398  66.714  1.00  0.00    -0.218 C  
HETATM   10  N   UNL     1      -8.694   8.663  66.380  1.00  0.00    -0.124 N  
ENDROOT
BRANCH   5  11
HETATM   11  C   UNL     1      -6.015  10.408  68.380  1.00  0.00    -0.040 A  
HETATM   12  N   UNL     1      -5.345  10.497  69.514  1.00  0.00    -0.038 NA 
HETATM   13  C   UNL     1      -6.271  12.468  68.974  1.00  0.00    -0.087 A  
HETATM   14  C   UNL     1      -6.636  13.803  69.081  1.00  0.00    -0.112 A  
HETATM   15  C   UNL     1      -5.137  12.435  71.099  1.00  0.00    -0.148 A  
HETATM   16  C   UNL     1      -5.536  11.783  69.926  1.00  0.00    -0.094 A  
HETATM   17  O   UNL     1      -6.577  11.591  67.970  1.00  0.00    -0.056 OA 
HETATM   18 CL   UNL     1      -5.126  14.591  72.720  1.00  0.00    -0.256 Cl 
HETATM   19  C   UNL     1      -6.256  14.441  70.272  1.00  0.00    -0.172 A  
HETATM   20  C   UNL     1      -5.527  13.769  71.261  1.00  0.00    -0.210 A  
ENDBRANCH   5  11
BRANCH   9  21
HETATM   21  C   UNL     1     -10.430   9.567  68.148  1.00  0.00    -0.268 A  
HETATM   22  C   UNL     1     -10.512   8.465  69.009  1.00  0.00    -0.216 A  
HETATM   23  C   UNL     1     -10.542   7.300  71.213  1.00  0.00    -0.236 C  
HETATM   24  C   UNL     1     -10.958  10.755  68.707  1.00  0.00    -0.247 A  
HETATM   25  C   UNL     1     -11.425   9.646  70.874  1.00  0.00    -0.427 A  
HETATM   26  C   UNL     1     -11.519  10.750  70.025  1.00  0.00    -0.412 A  
HETATM   27  C   UNL     1     -10.863   8.499  70.368  1.00  0.00    -0.251 A  
BRANCH  24  28
HETATM   28  N   UNL     1     -10.960  12.034  68.083  1.00  0.00    -0.217 NA 
HETATM   29  N   UNL     1      -9.918  12.905  68.143  1.00  0.00    -0.229 NA 
HETATM   30  C   UNL     1     -11.790  13.829  67.334  1.00  0.00    -0.396 A  
HETATM   31  C   UNL     1     -10.436  14.012  67.605  1.00  0.00    -0.245 A  
HETATM   32  N   UNL     1     -12.153  12.596  67.682  1.00  0.00    -0.396 NA 
ENDBRANCH  24  28
ENDBRANCH   9  21
TORSDOF 3
ENDMDL
MODEL       78
REMARK 921   NORMALIZED FREE ENERGY PREDICTED BY IDOCK:   -4.43 KCAL/MOL
REMARK 922        TOTAL FREE ENERGY PREDICTED BY IDOCK:   -6.84 KCAL/MOL
REMARK 923 INTER-LIGAND FREE ENERGY PREDICTED BY IDOCK:   -6.18 KCAL/MOL
REMARK 924 INTRA-LIGAND FREE ENERGY PREDICTED BY IDOCK:   -0.66 KCAL/MOL
REMARK 927      BINDING AFFINITY PREDICTED BY RF-SCORE:    0.00 PKD
ROOT
HETATM    1  C   UNL     1      -7.356  11.096  69.054  1.00  0.00    -0.120 C  
HETATM    2  C   UNL     1      -6.344  12.132  69.596  1.00  0.00    -0.115 C  
HETATM    3  C   UNL     1      -7.054   9.669  69.608  1.00  0.00    -0.075 C  
HETATM    4  C   UNL     1      -6.012   8.790  68.896  1.00  0.00    -0.044 C  
HETATM    5  N   UNL     1      -6.351   8.495  67.515  1.00  0.00    -0.056 NA 
HETATM    6  C   UNL     1      -5.935   9.438  66.486  1.00  0.00    -0.059 C  
HETATM    7  O   UNL     1      -9.639  11.946  67.666  1.00  0.00    -0.179 OA 
HETATM    8  C   UNL     1      -6.205  10.900  66.882  1.00  0.00    -0.087 C  
HETATM    9  C   UNL     1      -8.766  11.397  66.975  1.00  0.00    -0.160 C  
HETATM   10  N   UNL     1      -7.483  11.138  67.566  1.00  0.00    -0.099 N  
ENDROOT
BRANCH   5  11
HETATM   11  C   UNL     1      -7.066   7.417  67.116  1.00  0.00    -0.084 A  
HETATM   12  N   UNL     1      -6.588   6.273  66.660  1.00  0.00    -0.050 NA 
HETATM   13  C   UNL     1      -8.832   6.259  66.665  1.00  0.00    -0.132 A  
HETATM   14  C   UNL     1     -10.127   5.801  66.465  1.00  0.00    -0.216 A  
HETATM   15  C   UNL     1      -7.811   4.292  65.718  1.00  0.00    -0.094 A  
HETATM   16  C   UNL     1      -7.693   5.548  66.327  1.00  0.00    -0.099 A  
HETATM   17  O   UNL     1      -8.436   7.462  67.182  1.00  0.00    -0.116 OA 
HETATM   18 CL   UNL     1      -9.299   2.316  64.644  1.00  0.00    -0.136 Cl 
HETATM   19  C   UNL     1     -10.236   4.555  65.829  1.00  0.00    -0.289 A  
HETATM   20  C   UNL     1      -9.102   3.820  65.460  1.00  0.00    -0.146 A  
ENDBRANCH   5  11
BRANCH   9  21
HETATM   21  C   UNL     1      -9.132  11.078  65.509  1.00  0.00    -0.225 A  
HETATM   22  C   UNL     1      -8.483  10.041  64.825  1.00  0.00    -0.180 A  
HETATM   23  C   UNL     1      -8.261   8.225  63.132  1.00  0.00    -0.104 C  
HETATM   24  C   UNL     1     -10.046  11.795  64.700  1.00  0.00    -0.272 A  
HETATM   25  C   UNL     1      -9.652  10.304  62.759  1.00  0.00    -0.277 A  
HETATM   26  C   UNL     1     -10.225  11.446  63.322  1.00  0.00    -0.430 A  
HETATM   27  C   UNL     1      -8.805   9.561  63.547  1.00  0.00    -0.235 A  
BRANCH  24  28
HETATM   28  N   UNL     1     -10.880  12.861  65.139  1.00  0.00    -0.289 NA 
HETATM   29  N   UNL     1     -12.181  12.702  65.500  1.00  0.00    -0.564 NA 
HETATM   30  C   UNL     1     -11.592  14.848  65.257  1.00  0.00    -0.300 A  
HETATM   31  C   UNL     1     -12.599  13.963  65.637  1.00  0.00    -0.517 A  
HETATM   32  N   UNL     1     -10.512  14.165  64.886  1.00  0.00    -0.427 NA 
ENDBRANCH  24  28
ENDBRANCH   9  21
TORSDOF 3
ENDMDL
MODEL       79
REMARK 921   NORMALIZED FREE ENERGY PREDICTED BY IDOCK:   -4.43 KCAL/MOL
REMARK 922        TOTAL FREE ENERGY PREDICTED BY IDOCK:   -6.83 KCAL/MOL
REMARK 923 INTER-LIGAND FREE ENERGY PREDICTED BY IDOCK:   -5.42 KCAL/MOL
REMARK 924 INTRA-LIGAND FREE ENERGY PREDICTED BY IDOCK:   -1.41 KCAL/MOL
REMARK 927      BINDING AFFINITY PREDICTED BY RF-SCORE:    0.00 PKD
ROOT
HETATM    1  C   UNL     1      -9.813   8.716  67.346  1.00  0.00    -0.192 C  
HETATM    2  C   UNL     1      -9.520   7.386  66.613  1.00  0.00    -0.240 C  
HETATM    3  C   UNL     1     -10.879   9.559  66.581  1.00  0.00     0.018 C  
HETATM    4  C   UNL     1     -10.430  10.475  65.430  1.00  0.00    -0.152 C  
HETATM    5  N   UNL     1      -9.492  11.505  65.842  1.00  0.00    -0.227 NA 
HETATM    6  C   UNL     1      -8.072  11.182  65.848  1.00  0.00    -0.017 C  
HETATM    7  O   UNL     1      -8.822   9.147  69.934  1.00  0.00    -0.143 OA 
HETATM    8  C   UNL     1      -7.781   9.807  66.472  1.00  0.00    -0.105 C  
HETATM    9  C   UNL     1      -8.278   9.808  69.035  1.00  0.00    -0.121 C  
HETATM   10  N   UNL     1      -8.571   9.482  67.667  1.00  0.00    -0.122 N  
ENDROOT
BRANCH   5  11
HETATM   11  C   UNL     1      -9.849  12.741  66.264  1.00  0.00    -0.267 A  
HETATM   12  N   UNL     1      -9.801  13.860  65.565  1.00  0.00    -0.236 NA 
HETATM   13  C   UNL     1     -10.536  14.247  67.650  1.00  0.00    -0.253 A  
HETATM   14  C   UNL     1     -10.982  14.954  68.758  1.00  0.00    -0.259 A  
HETATM   15  C   UNL     1     -10.252  16.220  66.297  1.00  0.00    -0.339 A  
HETATM   16  C   UNL     1     -10.189  14.829  66.443  1.00  0.00    -0.291 A  
HETATM   17  O   UNL     1     -10.328  12.899  67.540  1.00  0.00    -0.220 OA 
HETATM   18 CL   UNL     1     -10.675  18.687  67.304  1.00  0.00    -0.469 Cl 
HETATM   19  C   UNL     1     -11.016  16.349  68.613  1.00  0.00    -0.345 A  
HETATM   20  C   UNL     1     -10.654  16.968  67.409  1.00  0.00    -0.289 A  
ENDBRANCH   5  11
BRANCH   9  21
HETATM   21  C   UNL     1      -7.286  10.907  69.477  1.00  0.00    -0.095 A  
HETATM   22  C   UNL     1      -7.403  12.211  68.977  1.00  0.00     0.000 A  
HETATM   23  C   UNL     1      -7.166  14.692  69.021  1.00  0.00    -0.135 C  
HETATM   24  C   UNL     1      -6.163  10.730  70.320  1.00  0.00    -0.146 A  
HETATM   25  C   UNL     1      -5.542  13.125  70.163  1.00  0.00    -0.130 A  
HETATM   26  C   UNL     1      -5.270  11.820  70.578  1.00  0.00    -0.123 A  
HETATM   27  C   UNL     1      -6.660  13.327  69.389  1.00  0.00    -0.069 A  
BRANCH  24  28
HETATM   28  N   UNL     1      -5.826   9.531  71.008  1.00  0.00    -0.063 NA 
HETATM   29  N   UNL     1      -5.225   8.465  70.417  1.00  0.00    -0.022 NA 
HETATM   30  C   UNL     1      -6.013   8.007  72.462  1.00  0.00    -0.046 A  
HETATM   31  C   UNL     1      -5.290   7.532  71.371  1.00  0.00    -0.031 A  
HETATM   32  N   UNL     1      -6.408   9.257  72.227  1.00  0.00    -0.293 NA 
ENDBRANCH  24  28
ENDBRANCH   9  21
TORSDOF 3
ENDMDL
MODEL       80
REMARK 921   NORMALIZED FREE ENERGY PREDICTED BY IDOCK:   -4.41 KCAL/MOL
REMARK 922        TOTAL FREE ENERGY PREDICTED BY IDOCK:   -6.81 KCAL/MOL
REMARK 923 INTER-LIGAND FREE ENERGY PREDICTED BY IDOCK:   -5.41 KCAL/MOL
REMARK 924 INTRA-LIGAND FREE ENERGY PREDICTED BY IDOCK:   -1.40 KCAL/MOL
REMARK 927      BINDING AFFINITY PREDICTED BY RF-SCORE:    0.00 PKD
ROOT
HETATM    1  C   UNL     1      -9.139   8.111  71.474  1.00  0.00    -0.158 C  
HETATM    2  C   UNL     1      -9.373   6.768  72.204  1.00  0.00    -0.145 C  
HETATM    3  C   UNL     1     -10.261   9.140  71.815  1.00  0.00    -0.305 C  
HETATM    4  C   UNL     1     -11.575   9.114  71.014  1.00  0.00    -0.306 C  
HETATM    5  N   UNL     1     -11.390   9.350  69.593  1.00  0.00    -0.073 NA 
HETATM    6  C   UNL     1     -11.101   8.209  68.736  1.00  0.00     0.335 C  
HETATM    7  O   UNL     1      -6.714   8.597  70.152  1.00  0.00    -0.038 OA 
HETATM    8  C   UNL     1     -10.044   7.270  69.339  1.00  0.00    -0.183 C  
HETATM    9  C   UNL     1      -7.698   8.413  69.417  1.00  0.00    -0.097 C  
HETATM   10  N   UNL     1      -8.919   7.940  70.007  1.00  0.00    -0.145 N  
ENDROOT
BRANCH   5  11
HETATM   11  C   UNL     1     -11.430  10.571  69.009  1.00  0.00    -0.237 A  
HETATM   12  N   UNL     1     -11.504  10.829  67.716  1.00  0.00    -0.513 NA 
HETATM   13  C   UNL     1     -11.401  12.728  68.908  1.00  0.00    -0.296 A  
HETATM   14  C   UNL     1     -11.339  14.088  69.179  1.00  0.00    -0.323 A  
HETATM   15  C   UNL     1     -11.390  13.034  66.518  1.00  0.00    -0.359 A  
HETATM   16  C   UNL     1     -11.440  12.189  67.633  1.00  0.00    -0.331 A  
HETATM   17  O   UNL     1     -11.402  11.692  69.801  1.00  0.00    -0.258 OA 
HETATM   18 CL   UNL     1     -11.140  15.483  65.417  1.00  0.00    -0.326 Cl 
HETATM   19  C   UNL     1     -11.262  14.926  68.056  1.00  0.00    -0.318 A  
HETATM   20  C   UNL     1     -11.282  14.408  66.755  1.00  0.00    -0.337 A  
ENDBRANCH   5  11
BRANCH   9  21
HETATM   21  C   UNL     1      -7.501   8.673  67.907  1.00  0.00    -0.097 A  
HETATM   22  C   UNL     1      -7.618   7.623  66.986  1.00  0.00    -0.103 A  
HETATM   23  C   UNL     1      -8.100   6.585  64.771  1.00  0.00    -0.112 C  
HETATM   24  C   UNL     1      -7.123   9.900  67.311  1.00  0.00    -0.085 A  
HETATM   25  C   UNL     1      -7.172   8.923  65.033  1.00  0.00    -0.091 A  
HETATM   26  C   UNL     1      -6.887   9.979  65.900  1.00  0.00    -0.108 A  
HETATM   27  C   UNL     1      -7.595   7.739  65.588  1.00  0.00    -0.085 A  
BRANCH  24  28
HETATM   28  N   UNL     1      -6.981  11.141  67.992  1.00  0.00    -0.067 NA 
HETATM   29  N   UNL     1      -5.955  11.427  68.837  1.00  0.00    -0.047 NA 
HETATM   30  C   UNL     1      -7.618  12.922  68.939  1.00  0.00     0.054 A  
HETATM   31  C   UNL     1      -6.340  12.586  69.376  1.00  0.00    -0.114 A  
HETATM   32  N   UNL     1      -8.064  11.987  68.101  1.00  0.00    -0.151 NA 
ENDBRANCH  24  28
ENDBRANCH   9  21
TORSDOF 3
ENDMDL
MODEL       81
REMARK 921   NORMALIZED FREE ENERGY PREDICTED BY IDOCK:   -4.41 KCAL/MOL
REMARK 922        TOTAL FREE ENERGY PREDICTED BY IDOCK:   -6.81 KCAL/MOL
REMARK 923 INTER-LIGAND FREE ENERGY PREDICTED BY IDOCK:   -5.30 KCAL/MOL
REMARK 924 INTRA-LIGAND FREE ENERGY PREDICTED BY IDOCK:   -1.50 KCAL/MOL
REMARK 927      BINDING AFFINITY PREDICTED BY RF-SCORE:    0.00 PKD
ROOT
HETATM    1  C   UNL     1     -10.859  10.886  67.713  1.00  0.00    -0.259 C  
HETATM    2  C   UNL     1     -11.117   9.495  67.087  1.00  0.00     0.163 C  
HETATM    3  C   UNL     1     -12.018  11.876  67.382  1.00  0.00    -0.090 C  
HETATM    4  C   UNL     1     -11.994  12.646  66.050  1.00  0.00    -0.417 C  
HETATM    5  N   UNL     1     -10.832  13.503  65.899  1.00  0.00    -0.274 NA 
HETATM    6  C   UNL     1      -9.618  12.928  65.337  1.00  0.00     0.081 C  
HETATM    7  O   UNL     1      -8.780  11.239  69.561  1.00  0.00     0.279 OA 
HETATM    8  C   UNL     1      -9.286  11.551  65.934  1.00  0.00    -0.210 C  
HETATM    9  C   UNL     1      -8.597  11.751  68.444  1.00  0.00    -0.156 C  
HETATM   10  N   UNL     1      -9.506  11.426  67.381  1.00  0.00    -0.166 N  
ENDROOT
BRANCH   5  11
HETATM   11  C   UNL     1     -10.783  14.801  66.284  1.00  0.00    -0.313 A  
HETATM   12  N   UNL     1     -10.779  15.861  65.496  1.00  0.00    -0.375 NA 
HETATM   13  C   UNL     1     -10.647  16.464  67.654  1.00  0.00    -0.313 A  
HETATM   14  C   UNL     1     -10.535  17.286  68.767  1.00  0.00    -0.340 A  
HETATM   15  C   UNL     1     -10.499  18.286  66.085  1.00  0.00    -0.403 A  
HETATM   16  C   UNL     1     -10.646  16.919  66.346  1.00  0.00    -0.183 A  
HETATM   17  O   UNL     1     -10.743  15.100  67.622  1.00  0.00    -0.272 OA 
HETATM   18 CL   UNL     1     -10.077  20.819  66.910  1.00  0.00    -0.291 Cl 
HETATM   19  C   UNL     1     -10.360  18.652  68.495  1.00  0.00    -0.311 A  
HETATM   20  C   UNL     1     -10.338  19.139  67.182  1.00  0.00    -0.420 A  
ENDBRANCH   5  11
BRANCH   9  21
HETATM   21  C   UNL     1      -7.364  12.668  68.288  1.00  0.00    -0.116 A  
HETATM   22  C   UNL     1      -7.395  13.984  68.768  1.00  0.00    -0.127 A  
HETATM   23  C   UNL     1      -6.430  16.093  69.684  1.00  0.00    -0.190 C  
HETATM   24  C   UNL     1      -6.161  12.345  67.616  1.00  0.00    -0.129 A  
HETATM   25  C   UNL     1      -5.175  14.566  68.105  1.00  0.00    -0.118 A  
HETATM   26  C   UNL     1      -5.127  13.325  67.468  1.00  0.00     0.062 A  
HETATM   27  C   UNL     1      -6.313  14.876  68.811  1.00  0.00    -0.082 A  
BRANCH  24  28
HETATM   28  N   UNL     1      -5.832  11.071  67.075  1.00  0.00    -0.059 NA 
HETATM   29  N   UNL     1      -5.777  10.808  65.743  1.00  0.00    -0.139 NA 
HETATM   30  C   UNL     1      -5.715   8.961  67.006  1.00  0.00    -0.045 A  
HETATM   31  C   UNL     1      -5.636   9.480  65.716  1.00  0.00    -0.048 A  
HETATM   32  N   UNL     1      -5.894   9.952  67.877  1.00  0.00    -0.040 NA 
ENDBRANCH  24  28
ENDBRANCH   9  21
TORSDOF 3
ENDMDL
MODEL       82
REMARK 921   NORMALIZED FREE ENERGY PREDICTED BY IDOCK:   -4.39 KCAL/MOL
REMARK 922        TOTAL FREE ENERGY PREDICTED BY IDOCK:   -6.78 KCAL/MOL
REMARK 923 INTER-LIGAND FREE ENERGY PREDICTED BY IDOCK:   -5.43 KCAL/MOL
REMARK 924 INTRA-LIGAND FREE ENERGY PREDICTED BY IDOCK:   -1.36 KCAL/MOL
REMARK 927      BINDING AFFINITY PREDICTED BY RF-SCORE:    0.00 PKD
ROOT
HETATM    1  C   UNL     1      -7.449  11.002  66.889  1.00  0.00    -0.133 C  
HETATM    2  C   UNL     1      -6.854   9.605  67.185  1.00  0.00    -0.084 C  
HETATM    3  C   UNL     1      -6.326  12.039  66.579  1.00  0.00     0.349 C  
HETATM    4  C   UNL     1      -5.623  12.759  67.743  1.00  0.00    -0.128 C  
HETATM    5  N   UNL     1      -6.525  13.548  68.563  1.00  0.00    -0.082 NA 
HETATM    6  C   UNL     1      -7.206  12.891  69.669  1.00  0.00     0.518 C  
HETATM    7  O   UNL     1     -10.213  11.310  66.529  1.00  0.00    -0.214 OA 
HETATM    8  C   UNL     1      -7.782  11.520  69.278  1.00  0.00     0.112 C  
HETATM    9  C   UNL     1      -9.755  11.773  67.587  1.00  0.00    -0.182 C  
HETATM   10  N   UNL     1      -8.401  11.458  67.946  1.00  0.00    -0.132 N  
ENDROOT
BRANCH   5  11
HETATM   11  C   UNL     1      -6.810  14.854  68.346  1.00  0.00    -0.110 A  
HETATM   12  N   UNL     1      -6.295  15.634  67.413  1.00  0.00    -0.276 NA 
HETATM   13  C   UNL     1      -7.740  16.771  68.699  1.00  0.00    -0.232 A  
HETATM   14  C   UNL     1      -8.474  17.841  69.192  1.00  0.00     0.117 A  
HETATM   15  C   UNL     1      -6.603  18.099  67.042  1.00  0.00    -0.201 A  
HETATM   16  C   UNL     1      -6.838  16.861  67.653  1.00  0.00    -0.141 A  
HETATM   17  O   UNL     1      -7.734  15.478  69.147  1.00  0.00    -0.174 OA 
HETATM   18 CL   UNL     1      -6.979  20.764  66.876  1.00  0.00    -0.357 Cl 
HETATM   19  C   UNL     1      -8.211  19.082  68.593  1.00  0.00    -0.399 A  
HETATM   20  C   UNL     1      -7.292  19.208  67.544  1.00  0.00    -0.226 A  
ENDBRANCH   5  11
BRANCH   9  21
HETATM   21  C   UNL     1     -10.714  12.618  68.454  1.00  0.00    -0.260 A  
HETATM   22  C   UNL     1     -11.428  12.027  69.505  1.00  0.00    -0.351 A  
HETATM   23  C   UNL     1     -12.604  11.966  71.702  1.00  0.00    -0.237 C  
HETATM   24  C   UNL     1     -11.034  13.983  68.258  1.00  0.00    -0.255 A  
HETATM   25  C   UNL     1     -12.567  14.005  70.207  1.00  0.00    -0.354 A  
HETATM   26  C   UNL     1     -12.013  14.625  69.085  1.00  0.00    -0.329 A  
HETATM   27  C   UNL     1     -12.224  12.696  70.446  1.00  0.00    -0.368 A  
BRANCH  24  28
HETATM   28  N   UNL     1     -10.430  14.846  67.302  1.00  0.00    -0.259 NA 
HETATM   29  N   UNL     1     -10.820  16.131  67.092  1.00  0.00    -0.268 NA 
HETATM   30  C   UNL     1      -9.428  15.366  65.514  1.00  0.00    -0.125 A  
HETATM   31  C   UNL     1     -10.128  16.468  66.000  1.00  0.00    -0.348 A  
HETATM   32  N   UNL     1      -9.652  14.313  66.298  1.00  0.00    -0.297 NA 
ENDBRANCH  24  28
ENDBRANCH   9  21
TORSDOF 3
ENDMDL
MODEL       83
REMARK 921   NORMALIZED FREE ENERGY PREDICTED BY IDOCK:   -4.38 KCAL/MOL
REMARK 922        TOTAL FREE ENERGY PREDICTED BY IDOCK:   -6.78 KCAL/MOL
REMARK 923 INTER-LIGAND FREE ENERGY PREDICTED BY IDOCK:   -5.43 KCAL/MOL
REMARK 924 INTRA-LIGAND FREE ENERGY PREDICTED BY IDOCK:   -1.35 KCAL/MOL
REMARK 927      BINDING AFFINITY PREDICTED BY RF-SCORE:    0.00 PKD
ROOT
HETATM    1  C   UNL     1      -7.733   6.228  69.633  1.00  0.00    -0.099 C  
HETATM    2  C   UNL     1      -7.596   4.710  69.891  1.00  0.00    -0.054 C  
HETATM    3  C   UNL     1      -8.884   6.844  70.487  1.00  0.00    -0.155 C  
HETATM    4  C   UNL     1     -10.328   6.783  69.960  1.00  0.00    -0.199 C  
HETATM    5  N   UNL     1     -10.510   7.472  68.694  1.00  0.00    -0.199 NA 
HETATM    6  C   UNL     1     -10.262   6.732  67.464  1.00  0.00    -0.190 C  
HETATM    7  O   UNL     1      -5.772   7.593  68.165  1.00  0.00    -0.026 OA 
HETATM    8  C   UNL     1      -8.971   5.901  67.525  1.00  0.00    -0.107 C  
HETATM    9  C   UNL     1      -6.860   7.437  67.589  1.00  0.00    -0.078 C  
HETATM   10  N   UNL     1      -7.832   6.560  68.180  1.00  0.00    -0.105 N  
ENDROOT
BRANCH   5  11
HETATM   11  C   UNL     1     -10.859   8.775  68.575  1.00  0.00     0.034 A  
HETATM   12  N   UNL     1     -10.900   9.485  67.463  1.00  0.00    -0.243 NA 
HETATM   13  C   UNL     1     -11.456  10.741  69.238  1.00  0.00    -0.298 A  
HETATM   14  C   UNL     1     -11.819  11.862  69.972  1.00  0.00    -0.407 A  
HETATM   15  C   UNL     1     -11.342  11.938  67.150  1.00  0.00    -0.393 A  
HETATM   16  C   UNL     1     -11.232  10.743  67.872  1.00  0.00    -0.318 A  
HETATM   17  O   UNL     1     -11.226   9.473  69.698  1.00  0.00    -0.206 OA 
HETATM   18 CL   UNL     1     -11.733  14.604  67.037  1.00  0.00    -0.394 Cl 
HETATM   19  C   UNL     1     -11.900  13.060  69.246  1.00  0.00    -0.370 A  
HETATM   20  C   UNL     1     -11.661  13.097  67.866  1.00  0.00    -0.357 A  
ENDBRANCH   5  11
BRANCH   9  21
HETATM   21  C   UNL     1      -7.054   8.176  66.246  1.00  0.00    -0.073 A  
HETATM   22  C   UNL     1      -7.161   7.456  65.049  1.00  0.00    -0.067 A  
HETATM   23  C   UNL     1      -7.903   7.039  62.706  1.00  0.00    -0.118 C  
HETATM   24  C   UNL     1      -7.065   9.579  66.058  1.00  0.00    -0.092 A  
HETATM   25  C   UNL     1      -7.419   9.349  63.616  1.00  0.00    -0.111 A  
HETATM   26  C   UNL     1      -7.164  10.134  64.741  1.00  0.00    -0.130 A  
HETATM   27  C   UNL     1      -7.468   7.986  63.787  1.00  0.00    -0.121 A  
BRANCH  24  28
HETATM   28  N   UNL     1      -7.024  10.553  67.094  1.00  0.00    -0.086 NA 
HETATM   29  N   UNL     1      -7.777  10.487  68.224  1.00  0.00    -0.098 NA 
HETATM   30  C   UNL     1      -6.784  12.474  67.946  1.00  0.00    -0.103 A  
HETATM   31  C   UNL     1      -7.561  11.679  68.785  1.00  0.00    -0.119 A  
HETATM   32  N   UNL     1      -6.479  11.794  66.843  1.00  0.00    -0.144 NA 
ENDBRANCH  24  28
ENDBRANCH   9  21
TORSDOF 3
ENDMDL
MODEL       84
REMARK 921   NORMALIZED FREE ENERGY PREDICTED BY IDOCK:   -4.36 KCAL/MOL
REMARK 922        TOTAL FREE ENERGY PREDICTED BY IDOCK:   -6.75 KCAL/MOL
REMARK 923 INTER-LIGAND FREE ENERGY PREDICTED BY IDOCK:   -5.23 KCAL/MOL
REMARK 924 INTRA-LIGAND FREE ENERGY PREDICTED BY IDOCK:   -1.52 KCAL/MOL
REMARK 927      BINDING AFFINITY PREDICTED BY RF-SCORE:    0.00 PKD
ROOT
HETATM    1  C   UNL     1     -10.950  10.275  67.512  1.00  0.00    -0.280 C  
HETATM    2  C   UNL     1     -10.939  11.711  66.937  1.00  0.00    -0.342 C  
HETATM    3  C   UNL     1     -11.761  10.206  68.842  1.00  0.00     0.036 C  
HETATM    4  C   UNL     1     -11.065  10.562  70.167  1.00  0.00    -0.298 C  
HETATM    5  N   UNL     1      -9.935   9.703  70.475  1.00  0.00    -0.271 NA 
HETATM    6  C   UNL     1      -8.628  10.065  69.945  1.00  0.00    -0.146 C  
HETATM    7  O   UNL     1     -10.000   8.132  65.973  1.00  0.00    -0.058 OA 
HETATM    8  C   UNL     1      -8.687  10.489  68.468  1.00  0.00    -0.140 C  
HETATM    9  C   UNL     1      -9.280   8.466  66.928  1.00  0.00    -0.157 C  
HETATM   10  N   UNL     1      -9.581   9.687  67.622  1.00  0.00    -0.140 N  
ENDROOT
BRANCH   5  11
HETATM   11  C   UNL     1     -10.018   8.558  71.194  1.00  0.00    -0.207 A  
HETATM   12  N   UNL     1     -10.291   7.351  70.732  1.00  0.00    -0.202 NA 
HETATM   13  C   UNL     1     -10.004   7.313  72.958  1.00  0.00    -0.227 A  
HETATM   14  C   UNL     1      -9.945   6.809  74.250  1.00  0.00    -0.354 A  
HETATM   15  C   UNL     1     -10.658   5.207  71.987  1.00  0.00    -0.266 A  
HETATM   16  C   UNL     1     -10.332   6.561  71.842  1.00  0.00    -0.200 A  
HETATM   17  O   UNL     1      -9.792   8.600  72.547  1.00  0.00    -0.285 OA 
HETATM   18 CL   UNL     1     -11.121   3.037  73.521  1.00  0.00    -0.320 Cl 
HETATM   19  C   UNL     1     -10.301   5.458  74.389  1.00  0.00    -0.293 A  
HETATM   20  C   UNL     1     -10.653   4.677  73.282  1.00  0.00    -0.219 A  
ENDBRANCH   5  11
BRANCH   9  21
HETATM   21  C   UNL     1      -8.084   7.547  67.258  1.00  0.00    -0.115 A  
HETATM   22  C   UNL     1      -8.207   6.541  68.226  1.00  0.00    -0.114 A  
HETATM   23  C   UNL     1      -7.694   4.358  69.314  1.00  0.00    -0.055 C  
HETATM   24  C   UNL     1      -6.778   7.648  66.720  1.00  0.00    -0.066 A  
HETATM   25  C   UNL     1      -5.977   5.709  68.040  1.00  0.00    -0.017 A  
HETATM   26  C   UNL     1      -5.734   6.783  67.182  1.00  0.00    -0.014 A  
HETATM   27  C   UNL     1      -7.253   5.559  68.528  1.00  0.00    -0.074 A  
BRANCH  24  28
HETATM   28  N   UNL     1      -6.375   8.540  65.688  1.00  0.00    -0.055 NA 
HETATM   29  N   UNL     1      -5.820   9.760  65.917  1.00  0.00    -0.057 NA 
HETATM   30  C   UNL     1      -6.428   9.458  63.784  1.00  0.00    -0.095 A  
HETATM   31  C   UNL     1      -5.798  10.301  64.696  1.00  0.00    -0.133 A  
HETATM   32  N   UNL     1      -6.849   8.359  64.406  1.00  0.00    -0.069 NA 
ENDBRANCH  24  28
ENDBRANCH   9  21
TORSDOF 3
ENDMDL
MODEL       85
REMARK 921   NORMALIZED FREE ENERGY PREDICTED BY IDOCK:   -4.29 KCAL/MOL
REMARK 922        TOTAL FREE ENERGY PREDICTED BY IDOCK:   -6.67 KCAL/MOL
REMARK 923 INTER-LIGAND FREE ENERGY PREDICTED BY IDOCK:   -5.16 KCAL/MOL
REMARK 924 INTRA-LIGAND FREE ENERGY PREDICTED BY IDOCK:   -1.51 KCAL/MOL
REMARK 927      BINDING AFFINITY PREDICTED BY RF-SCORE:    0.00 PKD
ROOT
HETATM    1  C   UNL     1      -7.565  14.893  69.311  1.00  0.00    -0.170 C  
HETATM    2  C   UNL     1      -7.030  16.251  68.798  1.00  0.00    -0.159 C  
HETATM    3  C   UNL     1      -6.637  14.304  70.417  1.00  0.00    -0.001 C  
HETATM    4  C   UNL     1      -5.403  13.483  70.006  1.00  0.00    -0.098 C  
HETATM    5  N   UNL     1      -5.728  12.293  69.240  1.00  0.00    -0.070 NA 
HETATM    6  C   UNL     1      -5.855  12.416  67.795  1.00  0.00    -0.110 C  
HETATM    7  O   UNL     1     -10.125  14.017  68.575  1.00  0.00    -0.230 OA 
HETATM    8  C   UNL     1      -6.670  13.652  67.377  1.00  0.00    -0.004 C  
HETATM    9  C   UNL     1      -9.179  13.403  68.055  1.00  0.00    -0.209 C  
HETATM   10  N   UNL     1      -7.851  13.932  68.204  1.00  0.00    -0.134 N  
ENDROOT
BRANCH   5  11
HETATM   11  C   UNL     1      -5.962  11.075  69.782  1.00  0.00    -0.086 A  
HETATM   12  N   UNL     1      -5.148  10.036  69.778  1.00  0.00    -0.037 NA 
HETATM   13  C   UNL     1      -7.083   9.532  70.795  1.00  0.00    -0.097 A  
HETATM   14  C   UNL     1      -8.048   8.777  71.447  1.00  0.00    -0.189 A  
HETATM   15  C   UNL     1      -5.549   7.688  70.576  1.00  0.00    -0.023 A  
HETATM   16  C   UNL     1      -5.860   9.038  70.374  1.00  0.00    -0.031 A  
HETATM   17  O   UNL     1      -7.153  10.847  70.425  1.00  0.00    -0.137 OA 
HETATM   18 CL   UNL     1      -6.211   5.204  71.391  1.00  0.00    -0.028 Cl 
HETATM   19  C   UNL     1      -7.739   7.419  71.620  1.00  0.00    -0.086 A  
HETATM   20  C   UNL     1      -6.517   6.887  71.190  1.00  0.00    -0.041 A  
ENDBRANCH   5  11
BRANCH   9  21
HETATM   21  C   UNL     1      -9.527  12.134  67.247  1.00  0.00    -0.184 A  
HETATM   22  C   UNL     1      -8.936  10.905  67.567  1.00  0.00    -0.136 A  
HETATM   23  C   UNL     1      -8.798   8.420  67.722  1.00  0.00    -0.137 C  
HETATM   24  C   UNL     1     -10.366  12.071  66.109  1.00  0.00    -0.224 A  
HETATM   25  C   UNL     1     -10.028   9.627  65.871  1.00  0.00    -0.351 A  
HETATM   26  C   UNL     1     -10.533  10.839  65.397  1.00  0.00    -0.272 A  
HETATM   27  C   UNL     1      -9.257   9.659  67.008  1.00  0.00    -0.167 A  
BRANCH  24  28
HETATM   28  N   UNL     1     -11.134  13.149  65.587  1.00  0.00    -0.275 NA 
HETATM   29  N   UNL     1     -10.591  14.262  65.026  1.00  0.00    -0.401 NA 
HETATM   30  C   UNL     1     -12.783  14.464  65.433  1.00  0.00    -0.285 A  
HETATM   31  C   UNL     1     -11.654  15.056  64.873  1.00  0.00    -0.374 A  
HETATM   32  N   UNL     1     -12.461  13.276  65.940  1.00  0.00    -0.409 NA 
ENDBRANCH  24  28
ENDBRANCH   9  21
TORSDOF 3
ENDMDL
MODEL       86
REMARK 921   NORMALIZED FREE ENERGY PREDICTED BY IDOCK:   -4.28 KCAL/MOL
REMARK 922        TOTAL FREE ENERGY PREDICTED BY IDOCK:   -6.66 KCAL/MOL
REMARK 923 INTER-LIGAND FREE ENERGY PREDICTED BY IDOCK:   -5.49 KCAL/MOL
REMARK 924 INTRA-LIGAND FREE ENERGY PREDICTED BY IDOCK:   -1.16 KCAL/MOL
REMARK 927      BINDING AFFINITY PREDICTED BY RF-SCORE:    0.00 PKD
ROOT
HETATM    1  C   UNL     1      -8.873  18.430  66.126  1.00  0.00    -0.098 C  
HETATM    2  C   UNL     1      -8.758  19.874  65.584  1.00  0.00     0.187 C  
HETATM    3  C   UNL     1     -10.365  17.999  66.270  1.00  0.00    -0.384 C  
HETATM    4  C   UNL     1     -11.137  18.372  67.547  1.00  0.00     0.068 C  
HETATM    5  N   UNL     1     -10.559  17.813  68.756  1.00  0.00    -0.229 NA 
HETATM    6  C   UNL     1      -9.511  18.565  69.433  1.00  0.00     0.219 C  
HETATM    7  O   UNL     1      -6.595  16.803  66.303  1.00  0.00    -0.192 OA 
HETATM    8  C   UNL     1      -8.462  19.123  68.458  1.00  0.00    -0.364 C  
HETATM    9  C   UNL     1      -7.052  17.204  67.386  1.00  0.00    -0.155 C  
HETATM   10  N   UNL     1      -8.072  18.216  67.369  1.00  0.00    -0.225 N  
ENDROOT
BRANCH   5  11
HETATM   11  C   UNL     1     -10.899  16.612  69.282  1.00  0.00    -0.310 A  
HETATM   12  N   UNL     1     -10.691  15.424  68.746  1.00  0.00    -0.232 NA 
HETATM   13  C   UNL     1     -11.765  15.240  70.707  1.00  0.00    -0.337 A  
HETATM   14  C   UNL     1     -12.414  14.645  71.781  1.00  0.00    -0.412 A  
HETATM   15  C   UNL     1     -11.444  13.161  69.533  1.00  0.00    -0.291 A  
HETATM   16  C   UNL     1     -11.274  14.548  69.613  1.00  0.00    -0.253 A  
HETATM   17  O   UNL     1     -11.520  16.571  70.506  1.00  0.00    -0.254 OA 
HETATM   18 CL   UNL     1     -12.436  10.841  70.486  1.00  0.00    -0.428 Cl 
HETATM   19  C   UNL     1     -12.604  13.258  71.679  1.00  0.00    -0.254 A  
HETATM   20  C   UNL     1     -12.134  12.534  70.576  1.00  0.00    -0.274 A  
ENDBRANCH   5  11
BRANCH   9  21
HETATM   21  C   UNL     1      -6.441  16.602  68.669  1.00  0.00    -0.155 A  
HETATM   22  C   UNL     1      -5.868  17.434  69.640  1.00  0.00    -0.242 A  
HETATM   23  C   UNL     1      -5.167  18.098  71.939  1.00  0.00     0.329 C  
HETATM   24  C   UNL     1      -6.316  15.224  68.970  1.00  0.00    -0.108 A  
HETATM   25  C   UNL     1      -5.235  15.696  71.150  1.00  0.00    -0.097 A  
HETATM   26  C   UNL     1      -5.644  14.799  70.162  1.00  0.00    -0.120 A  
HETATM   27  C   UNL     1      -5.399  17.037  70.901  1.00  0.00    -0.123 A  
BRANCH  24  28
HETATM   28  N   UNL     1      -6.848  14.157  68.194  1.00  0.00    -0.112 NA 
HETATM   29  N   UNL     1      -8.100  13.654  68.359  1.00  0.00    -0.147 NA 
HETATM   30  C   UNL     1      -6.807  12.379  67.049  1.00  0.00     0.000 A  
HETATM   31  C   UNL     1      -8.081  12.570  67.578  1.00  0.00    -0.176 A  
HETATM   32  N   UNL     1      -5.996  13.347  67.474  1.00  0.00    -0.326 NA 
ENDBRANCH  24  28
ENDBRANCH   9  21
TORSDOF 3
ENDMDL
MODEL       87
REMARK 921   NORMALIZED FREE ENERGY PREDICTED BY IDOCK:   -4.25 KCAL/MOL
REMARK 922        TOTAL FREE ENERGY PREDICTED BY IDOCK:   -6.62 KCAL/MOL
REMARK 923 INTER-LIGAND FREE ENERGY PREDICTED BY IDOCK:   -5.56 KCAL/MOL
REMARK 924 INTRA-LIGAND FREE ENERGY PREDICTED BY IDOCK:   -1.07 KCAL/MOL
REMARK 927      BINDING AFFINITY PREDICTED BY RF-SCORE:    0.00 PKD
ROOT
HETATM    1  C   UNL     1      -9.882   4.097  67.188  1.00  0.00    -0.137 C  
HETATM    2  C   UNL     1      -9.406   2.647  67.437  1.00  0.00    -0.162 C  
HETATM    3  C   UNL     1      -9.895   4.433  65.665  1.00  0.00    -0.229 C  
HETATM    4  C   UNL     1      -8.598   4.909  64.987  1.00  0.00    -0.147 C  
HETATM    5  N   UNL     1      -8.072   6.141  65.548  1.00  0.00    -0.124 NA 
HETATM    6  C   UNL     1      -7.181   6.052  66.696  1.00  0.00    -0.074 C  
HETATM    7  O   UNL     1     -10.990   5.598  69.282  1.00  0.00    -0.304 OA 
HETATM    8  C   UNL     1      -7.687   5.065  67.761  1.00  0.00    -0.087 C  
HETATM    9  C   UNL     1      -9.857   5.948  68.913  1.00  0.00    -0.145 C  
HETATM   10  N   UNL     1      -9.135   5.098  68.008  1.00  0.00    -0.110 N  
ENDROOT
BRANCH   5  11
HETATM   11  C   UNL     1      -8.386   7.381  65.101  1.00  0.00    -0.079 A  
HETATM   12  N   UNL     1      -9.106   8.291  65.729  1.00  0.00    -0.154 NA 
HETATM   13  C   UNL     1      -8.455   9.035  63.715  1.00  0.00    -0.159 A  
HETATM   14  C   UNL     1      -8.331   9.882  62.622  1.00  0.00    -0.161 A  
HETATM   15  C   UNL     1      -9.906  10.531  64.923  1.00  0.00    -0.379 A  
HETATM   16  C   UNL     1      -9.198   9.326  64.846  1.00  0.00    -0.141 A  
HETATM   17  O   UNL     1      -7.921   7.785  63.874  1.00  0.00    -0.135 OA 
HETATM   18 CL   UNL     1     -10.754  12.849  63.835  1.00  0.00    -0.422 Cl 
HETATM   19  C   UNL     1      -9.066  11.075  62.696  1.00  0.00    -0.375 A  
HETATM   20  C   UNL     1      -9.840  11.390  63.820  1.00  0.00    -0.319 A  
ENDBRANCH   5  11
BRANCH   9  21
HETATM   21  C   UNL     1      -9.303   7.263  69.505  1.00  0.00    -0.152 A  
HETATM   22  C   UNL     1      -9.189   8.408  68.706  1.00  0.00    -0.143 A  
HETATM   23  C   UNL     1      -9.116  10.855  68.238  1.00  0.00    -0.158 C  
HETATM   24  C   UNL     1      -8.801   7.443  70.816  1.00  0.00    -0.149 A  
HETATM   25  C   UNL     1      -8.293   9.833  70.400  1.00  0.00    -0.106 A  
HETATM   26  C   UNL     1      -8.231   8.698  71.209  1.00  0.00    -0.194 A  
HETATM   27  C   UNL     1      -8.830   9.692  69.143  1.00  0.00    -0.157 A  
BRANCH  24  28
HETATM   28  N   UNL     1      -8.834   6.473  71.856  1.00  0.00    -0.134 NA 
HETATM   29  N   UNL     1      -9.977   6.051  72.460  1.00  0.00    -0.175 NA 
HETATM   30  C   UNL     1      -8.124   5.395  73.532  1.00  0.00    -0.113 A  
HETATM   31  C   UNL     1      -9.514   5.317  73.475  1.00  0.00    -0.133 A  
HETATM   32  N   UNL     1      -7.679   6.169  72.543  1.00  0.00    -0.102 NA 
ENDBRANCH  24  28
ENDBRANCH   9  21
TORSDOF 3
ENDMDL
MODEL       88
REMARK 921   NORMALIZED FREE ENERGY PREDICTED BY IDOCK:   -4.25 KCAL/MOL
REMARK 922        TOTAL FREE ENERGY PREDICTED BY IDOCK:   -6.62 KCAL/MOL
REMARK 923 INTER-LIGAND FREE ENERGY PREDICTED BY IDOCK:   -5.60 KCAL/MOL
REMARK 924 INTRA-LIGAND FREE ENERGY PREDICTED BY IDOCK:   -1.02 KCAL/MOL
REMARK 927      BINDING AFFINITY PREDICTED BY RF-SCORE:    0.00 PKD
ROOT
HETATM    1  C   UNL     1      -8.424   6.155  65.670  1.00  0.00    -0.151 C  
HETATM    2  C   UNL     1      -8.890   5.341  64.440  1.00  0.00     0.009 C  
HETATM    3  C   UNL     1      -7.777   5.230  66.746  1.00  0.00    -0.096 C  
HETATM    4  C   UNL     1      -8.680   4.511  67.762  1.00  0.00    -0.104 C  
HETATM    5  N   UNL     1      -9.455   5.418  68.591  1.00  0.00    -0.118 NA 
HETATM    6  C   UNL     1     -10.746   5.874  68.096  1.00  0.00    -0.251 C  
HETATM    7  O   UNL     1      -8.392   8.958  65.577  1.00  0.00    -0.120 OA 
HETATM    8  C   UNL     1     -10.697   6.291  66.617  1.00  0.00    -0.216 C  
HETATM    9  C   UNL     1      -9.274   8.456  66.293  1.00  0.00    -0.208 C  
HETATM   10  N   UNL     1      -9.497   7.039  66.217  1.00  0.00    -0.123 N  
ENDROOT
BRANCH   5  11
HETATM   11  C   UNL     1      -9.040   5.906  69.785  1.00  0.00    -0.138 A  
HETATM   12  N   UNL     1      -8.228   6.928  69.984  1.00  0.00    -0.131 NA 
HETATM   13  C   UNL     1      -8.850   6.006  71.933  1.00  0.00    -0.138 A  
HETATM   14  C   UNL     1      -8.920   5.790  73.303  1.00  0.00    -0.127 A  
HETATM   15  C   UNL     1      -7.246   7.793  72.128  1.00  0.00    -0.079 A  
HETATM   16  C   UNL     1      -8.061   6.975  71.336  1.00  0.00    -0.108 A  
HETATM   17  O   UNL     1      -9.491   5.318  70.940  1.00  0.00    -0.154 OA 
HETATM   18 CL   UNL     1      -6.215   8.502  74.517  1.00  0.00    -0.139 Cl 
HETATM   19  C   UNL     1      -8.079   6.596  74.085  1.00  0.00    -0.130 A  
HETATM   20  C   UNL     1      -7.257   7.573  73.509  1.00  0.00    -0.084 A  
ENDBRANCH   5  11
BRANCH   9  21
HETATM   21  C   UNL     1     -10.090   9.422  67.179  1.00  0.00    -0.292 A  
HETATM   22  C   UNL     1     -10.369   9.096  68.513  1.00  0.00    -0.236 A  
HETATM   23  C   UNL     1     -10.863   9.564  70.911  1.00  0.00    -0.407 C  
HETATM   24  C   UNL     1     -10.688  10.635  66.762  1.00  0.00    -0.210 A  
HETATM   25  C   UNL     1     -11.602  11.077  69.024  1.00  0.00    -0.392 A  
HETATM   26  C   UNL     1     -11.498  11.394  67.669  1.00  0.00    -0.348 A  
HETATM   27  C   UNL     1     -10.980   9.931  69.460  1.00  0.00    -0.274 A  
BRANCH  24  28
HETATM   28  N   UNL     1     -10.534  11.237  65.483  1.00  0.00    -0.264 NA 
HETATM   29  N   UNL     1      -9.859  12.398  65.270  1.00  0.00    -0.211 NA 
HETATM   30  C   UNL     1     -11.059  11.743  63.498  1.00  0.00    -0.422 A  
HETATM   31  C   UNL     1     -10.145  12.669  63.994  1.00  0.00    -0.254 A  
HETATM   32  N   UNL     1     -11.359  10.858  64.446  1.00  0.00     0.318 NA 
ENDBRANCH  24  28
ENDBRANCH   9  21
TORSDOF 3
ENDMDL
MODEL       89
REMARK 921   NORMALIZED FREE ENERGY PREDICTED BY IDOCK:   -4.24 KCAL/MOL
REMARK 922        TOTAL FREE ENERGY PREDICTED BY IDOCK:   -6.61 KCAL/MOL
REMARK 923 INTER-LIGAND FREE ENERGY PREDICTED BY IDOCK:   -5.24 KCAL/MOL
REMARK 924 INTRA-LIGAND FREE ENERGY PREDICTED BY IDOCK:   -1.38 KCAL/MOL
REMARK 927      BINDING AFFINITY PREDICTED BY RF-SCORE:    0.00 PKD
ROOT
HETATM    1  C   UNL     1      -6.094   5.539  65.507  1.00  0.00    -0.029 C  
HETATM    2  C   UNL     1      -5.678   4.991  64.122  1.00  0.00    -0.017 C  
HETATM    3  C   UNL     1      -6.403   4.379  66.502  1.00  0.00    -0.037 C  
HETATM    4  C   UNL     1      -7.804   3.744  66.508  1.00  0.00    -0.089 C  
HETATM    5  N   UNL     1      -8.864   4.685  66.826  1.00  0.00    -0.111 NA 
HETATM    6  C   UNL     1      -9.455   5.452  65.739  1.00  0.00    -0.087 C  
HETATM    7  O   UNL     1      -5.800   8.265  66.093  1.00  0.00    -0.039 OA 
HETATM    8  C   UNL     1      -8.400   6.025  64.779  1.00  0.00    -0.086 C  
HETATM    9  C   UNL     1      -6.969   7.873  65.941  1.00  0.00    -0.057 C  
HETATM   10  N   UNL     1      -7.189   6.552  65.421  1.00  0.00    -0.071 N  
ENDROOT
BRANCH   5  11
HETATM   11  C   UNL     1      -9.318   4.930  68.078  1.00  0.00    -0.129 A  
HETATM   12  N   UNL     1      -8.853   4.420  69.204  1.00  0.00    -0.088 NA 
HETATM   13  C   UNL     1     -10.596   5.777  69.598  1.00  0.00    -0.326 A  
HETATM   14  C   UNL     1     -11.579   6.455  70.307  1.00  0.00    -0.451 A  
HETATM   15  C   UNL     1      -9.732   4.652  71.545  1.00  0.00    -0.241 A  
HETATM   16  C   UNL     1      -9.680   4.910  70.170  1.00  0.00    -0.213 A  
HETATM   17  O   UNL     1     -10.363   5.802  68.250  1.00  0.00    -0.177 OA 
HETATM   18 CL   UNL     1     -10.891   4.938  73.964  1.00  0.00    -0.351 Cl 
HETATM   19  C   UNL     1     -11.640   6.168  71.680  1.00  0.00    -0.317 A  
HETATM   20  C   UNL     1     -10.739   5.283  72.283  1.00  0.00    -0.223 A  
ENDBRANCH   5  11
BRANCH   9  21
HETATM   21  C   UNL     1      -8.093   8.873  66.287  1.00  0.00    -0.110 A  
HETATM   22  C   UNL     1      -8.675   9.661  65.285  1.00  0.00    -0.186 A  
HETATM   23  C   UNL     1     -10.490  10.977  64.195  1.00  0.00    -0.434 C  
HETATM   24  C   UNL     1      -8.588   9.160  67.582  1.00  0.00    -0.117 A  
HETATM   25  C   UNL     1     -10.212  10.814  66.704  1.00  0.00    -0.283 A  
HETATM   26  C   UNL     1      -9.576  10.180  67.772  1.00  0.00    -0.168 A  
HETATM   27  C   UNL     1      -9.785  10.507  65.434  1.00  0.00    -0.315 A  
BRANCH  24  28
HETATM   28  N   UNL     1      -8.219   8.483  68.777  1.00  0.00    -0.120 NA 
HETATM   29  N   UNL     1      -8.728   8.781  70.002  1.00  0.00    -0.137 NA 
HETATM   30  C   UNL     1      -6.953   7.419  70.096  1.00  0.00    -0.060 A  
HETATM   31  C   UNL     1      -7.964   8.050  70.818  1.00  0.00    -0.099 A  
HETATM   32  N   UNL     1      -7.067   7.727  68.806  1.00  0.00    -0.074 NA 
ENDBRANCH  24  28
ENDBRANCH   9  21
TORSDOF 3
ENDMDL
MODEL       90
REMARK 921   NORMALIZED FREE ENERGY PREDICTED BY IDOCK:   -4.23 KCAL/MOL
REMARK 922        TOTAL FREE ENERGY PREDICTED BY IDOCK:   -6.60 KCAL/MOL
REMARK 923 INTER-LIGAND FREE ENERGY PREDICTED BY IDOCK:   -5.10 KCAL/MOL
REMARK 924 INTRA-LIGAND FREE ENERGY PREDICTED BY IDOCK:   -1.49 KCAL/MOL
REMARK 927      BINDING AFFINITY PREDICTED BY RF-SCORE:    0.00 PKD
ROOT
HETATM    1  C   UNL     1      -9.856   7.933  70.173  1.00  0.00    -0.184 C  
HETATM    2  C   UNL     1     -10.938   6.893  70.548  1.00  0.00    -0.313 C  
HETATM    3  C   UNL     1     -10.281   9.369  70.606  1.00  0.00    -0.353 C  
HETATM    4  C   UNL     1     -11.180  10.202  69.675  1.00  0.00    -0.261 C  
HETATM    5  N   UNL     1     -10.585  10.458  68.375  1.00  0.00    -0.194 NA 
HETATM    6  C   UNL     1     -10.780   9.473  67.321  1.00  0.00    -0.199 C  
HETATM    7  O   UNL     1      -7.335   7.087  69.282  1.00  0.00    -0.086 OA 
HETATM    8  C   UNL     1     -10.569   8.032  67.814  1.00  0.00    -0.170 C  
HETATM    9  C   UNL     1      -8.067   7.595  68.416  1.00  0.00    -0.124 C  
HETATM   10  N   UNL     1      -9.444   7.844  68.740  1.00  0.00    -0.147 N  
ENDROOT
BRANCH   5  11
HETATM   11  C   UNL     1      -9.823  11.538  68.082  1.00  0.00    -0.194 A  
HETATM   12  N   UNL     1      -8.527  11.674  68.294  1.00  0.00    -0.155 NA 
HETATM   13  C   UNL     1      -9.391  13.537  67.388  1.00  0.00    -0.228 A  
HETATM   14  C   UNL     1      -9.449  14.833  66.894  1.00  0.00    -0.253 A  
HETATM   15  C   UNL     1      -7.058  13.686  67.971  1.00  0.00    -0.132 A  
HETATM   16  C   UNL     1      -8.247  12.950  67.902  1.00  0.00    -0.165 A  
HETATM   17  O   UNL     1     -10.410  12.630  67.492  1.00  0.00    -0.215 OA 
HETATM   18 CL   UNL     1      -5.676  15.981  67.657  1.00  0.00    -0.162 Cl 
HETATM   19  C   UNL     1      -8.261  15.572  66.992  1.00  0.00    -0.275 A  
HETATM   20  C   UNL     1      -7.092  15.011  67.523  1.00  0.00    -0.197 A  
ENDBRANCH   5  11
BRANCH   9  21
HETATM   21  C   UNL     1      -7.430   7.873  67.037  1.00  0.00    -0.092 A  
HETATM   22  C   UNL     1      -6.823   9.108  66.772  1.00  0.00    -0.080 A  
HETATM   23  C   UNL     1      -5.215  10.660  65.667  1.00  0.00    -0.118 C  
HETATM   24  C   UNL     1      -7.449   7.007  65.917  1.00  0.00    -0.080 A  
HETATM   25  C   UNL     1      -6.175   8.616  64.527  1.00  0.00    -0.066 A  
HETATM   26  C   UNL     1      -6.895   7.429  64.665  1.00  0.00    -0.047 A  
HETATM   27  C   UNL     1      -6.096   9.445  65.620  1.00  0.00    -0.060 A  
BRANCH  24  28
HETATM   28  N   UNL     1      -7.951   5.677  65.908  1.00  0.00    -0.104 NA 
HETATM   29  N   UNL     1      -7.331   4.630  66.516  1.00  0.00    -0.080 NA 
HETATM   30  C   UNL     1      -8.988   3.996  65.150  1.00  0.00    -0.133 A  
HETATM   31  C   UNL     1      -8.038   3.584  66.081  1.00  0.00    -0.093 A  
HETATM   32  N   UNL     1      -8.911   5.316  64.987  1.00  0.00    -0.141 NA 
ENDBRANCH  24  28
ENDBRANCH   9  21
TORSDOF 3
ENDMDL
MODEL       91
REMARK 921   NORMALIZED FREE ENERGY PREDICTED BY IDOCK:   -4.23 KCAL/MOL
REMARK 922        TOTAL FREE ENERGY PREDICTED BY IDOCK:   -6.59 KCAL/MOL
REMARK 923 INTER-LIGAND FREE ENERGY PREDICTED BY IDOCK:   -5.54 KCAL/MOL
REMARK 924 INTRA-LIGAND FREE ENERGY PREDICTED BY IDOCK:   -1.05 KCAL/MOL
REMARK 927      BINDING AFFINITY PREDICTED BY RF-SCORE:    0.00 PKD
ROOT
HETATM    1  C   UNL     1      -6.410   6.567  65.951  1.00  0.00    -0.039 C  
HETATM    2  C   UNL     1      -6.051   6.379  64.459  1.00  0.00    -0.030 C  
HETATM    3  C   UNL     1      -6.369   5.208  66.716  1.00  0.00    -0.040 C  
HETATM    4  C   UNL     1      -7.608   4.296  66.697  1.00  0.00    -0.085 C  
HETATM    5  N   UNL     1      -8.790   4.914  67.271  1.00  0.00    -0.103 NA 
HETATM    6  C   UNL     1      -9.639   5.718  66.403  1.00  0.00    -0.153 C  
HETATM    7  O   UNL     1      -6.597   9.143  67.044  1.00  0.00    -0.063 OA 
HETATM    8  C   UNL     1      -8.833   6.667  65.502  1.00  0.00     0.023 C  
HETATM    9  C   UNL     1      -7.674   8.542  66.901  1.00  0.00    -0.091 C  
HETATM   10  N   UNL     1      -7.685   7.319  66.148  1.00  0.00    -0.097 N  
ENDROOT
BRANCH   5  11
HETATM   11  C   UNL     1      -9.141   4.828  68.576  1.00  0.00    -0.117 A  
HETATM   12  N   UNL     1      -9.346   5.832  69.409  1.00  0.00    -0.124 NA 
HETATM   13  C   UNL     1      -9.612   3.861  70.448  1.00  0.00    -0.196 A  
HETATM   14  C   UNL     1      -9.847   2.957  71.475  1.00  0.00    -0.195 A  
HETATM   15  C   UNL     1      -9.808   5.790  71.878  1.00  0.00    -0.195 A  
HETATM   16  C   UNL     1      -9.600   5.236  70.609  1.00  0.00    -0.176 A  
HETATM   17  O   UNL     1      -9.325   3.590  69.138  1.00  0.00    -0.150 OA 
HETATM   18 CL   UNL     1     -10.188   5.537  74.536  1.00  0.00    -0.287 Cl 
HETATM   19  C   UNL     1     -10.027   3.520  72.747  1.00  0.00    -0.218 A  
HETATM   20  C   UNL     1     -10.004   4.906  72.944  1.00  0.00    -0.157 A  
ENDBRANCH   5  11
BRANCH   9  21
HETATM   21  C   UNL     1      -8.928   9.198  67.520  1.00  0.00    -0.131 A  
HETATM   22  C   UNL     1      -9.315   8.892  68.831  1.00  0.00    -0.140 A  
HETATM   23  C   UNL     1     -10.376   9.319  71.046  1.00  0.00    -0.388 C  
HETATM   24  C   UNL     1      -9.829  10.067  66.859  1.00  0.00    -0.197 A  
HETATM   25  C   UNL     1     -11.241  10.304  68.883  1.00  0.00    -0.259 A  
HETATM   26  C   UNL     1     -11.007  10.535  67.526  1.00  0.00    -0.365 A  
HETATM   27  C   UNL     1     -10.346   9.508  69.557  1.00  0.00    -0.229 A  
BRANCH  24  28
HETATM   28  N   UNL     1      -9.664  10.586  65.545  1.00  0.00    -0.223 NA 
HETATM   29  N   UNL     1     -10.025  11.845  65.179  1.00  0.00    -0.250 NA 
HETATM   30  C   UNL     1      -9.540  10.529  63.434  1.00  0.00    -0.331 A  
HETATM   31  C   UNL     1      -9.877  11.814  63.852  1.00  0.00    -0.274 A  
HETATM   32  N   UNL     1      -9.454   9.723  64.491  1.00  0.00    -0.261 NA 
ENDBRANCH  24  28
ENDBRANCH   9  21
TORSDOF 3
ENDMDL
MODEL       92
REMARK 921   NORMALIZED FREE ENERGY PREDICTED BY IDOCK:   -4.22 KCAL/MOL
REMARK 922        TOTAL FREE ENERGY PREDICTED BY IDOCK:   -6.58 KCAL/MOL
REMARK 923 INTER-LIGAND FREE ENERGY PREDICTED BY IDOCK:   -5.32 KCAL/MOL
REMARK 924 INTRA-LIGAND FREE ENERGY PREDICTED BY IDOCK:   -1.26 KCAL/MOL
REMARK 927      BINDING AFFINITY PREDICTED BY RF-SCORE:    0.00 PKD
ROOT
HETATM    1  C   UNL     1     -10.735  15.148  65.392  1.00  0.00    -0.381 C  
HETATM    2  C   UNL     1     -11.958  16.035  65.064  1.00  0.00     0.553 C  
HETATM    3  C   UNL     1     -11.110  13.635  65.355  1.00  0.00    -0.304 C  
HETATM    4  C   UNL     1     -11.722  12.979  66.604  1.00  0.00    -0.381 C  
HETATM    5  N   UNL     1     -10.855  13.031  67.768  1.00  0.00    -0.235 NA 
HETATM    6  C   UNL     1     -10.918  14.208  68.623  1.00  0.00    -0.258 C  
HETATM    7  O   UNL     1      -8.171  16.275  65.528  1.00  0.00     0.327 OA 
HETATM    8  C   UNL     1     -10.941  15.520  67.822  1.00  0.00    -0.317 C  
HETATM    9  C   UNL     1      -8.663  15.931  66.615  1.00  0.00    -0.289 C  
HETATM   10  N   UNL     1     -10.049  15.557  66.655  1.00  0.00    -0.259 N  
ENDROOT
BRANCH   5  11
HETATM   11  C   UNL     1      -9.956  12.073  68.096  1.00  0.00    -0.203 A  
HETATM   12  N   UNL     1      -8.799  11.837  67.505  1.00  0.00    -0.156 NA 
HETATM   13  C   UNL     1      -9.161  10.379  69.173  1.00  0.00    -0.187 A  
HETATM   14  C   UNL     1      -8.948   9.305  70.026  1.00  0.00    -0.216 A  
HETATM   15  C   UNL     1      -7.154   9.981  67.901  1.00  0.00    -0.085 A  
HETATM   16  C   UNL     1      -8.305  10.739  68.145  1.00  0.00    -0.120 A  
HETATM   17  O   UNL     1     -10.224  11.240  69.153  1.00  0.00    -0.190 OA 
HETATM   18 CL   UNL     1      -5.570   7.857  68.404  1.00  0.00    -0.031 Cl 
HETATM   19  C   UNL     1      -7.806   8.535  69.757  1.00  0.00    -0.094 A  
HETATM   20  C   UNL     1      -6.932   8.864  68.713  1.00  0.00    -0.063 A  
ENDBRANCH   5  11
BRANCH   9  21
HETATM   21  C   UNL     1      -7.737  15.980  67.850  1.00  0.00    -0.149 A  
HETATM   22  C   UNL     1      -7.448  14.812  68.567  1.00  0.00    -0.117 A  
HETATM   23  C   UNL     1      -6.079  13.313  70.014  1.00  0.00    -0.122 C  
HETATM   24  C   UNL     1      -7.167  17.143  68.422  1.00  0.00    -0.209 A  
HETATM   25  C   UNL     1      -6.030  15.835  70.194  1.00  0.00    -0.133 A  
HETATM   26  C   UNL     1      -6.396  17.056  69.627  1.00  0.00    -0.215 A  
HETATM   27  C   UNL     1      -6.527  14.690  69.619  1.00  0.00    -0.149 A  
BRANCH  24  28
HETATM   28  N   UNL     1      -7.250  18.457  67.883  1.00  0.00    -0.226 NA 
HETATM   29  N   UNL     1      -6.212  19.335  67.871  1.00  0.00    -0.206 NA 
HETATM   30  C   UNL     1      -8.172  20.283  67.349  1.00  0.00    -0.338 A  
HETATM   31  C   UNL     1      -6.797  20.467  67.467  1.00  0.00    -0.285 A  
HETATM   32  N   UNL     1      -8.485  19.027  67.661  1.00  0.00    -0.284 NA 
ENDBRANCH  24  28
ENDBRANCH   9  21
TORSDOF 3
ENDMDL
MODEL       93
REMARK 921   NORMALIZED FREE ENERGY PREDICTED BY IDOCK:   -4.20 KCAL/MOL
REMARK 922        TOTAL FREE ENERGY PREDICTED BY IDOCK:   -6.56 KCAL/MOL
REMARK 923 INTER-LIGAND FREE ENERGY PREDICTED BY IDOCK:   -5.18 KCAL/MOL
REMARK 924 INTRA-LIGAND FREE ENERGY PREDICTED BY IDOCK:   -1.38 KCAL/MOL
REMARK 927      BINDING AFFINITY PREDICTED BY RF-SCORE:    0.00 PKD
ROOT
HETATM    1  C   UNL     1      -9.241   7.105  72.350  1.00  0.00    -0.134 C  
HETATM    2  C   UNL     1      -9.684   6.050  73.390  1.00  0.00    -0.158 C  
HETATM    3  C   UNL     1     -10.069   8.419  72.493  1.00  0.00    -0.362 C  
HETATM    4  C   UNL     1     -11.433   8.530  71.790  1.00  0.00    -0.310 C  
HETATM    5  N   UNL     1     -11.352   8.397  70.346  1.00  0.00    -0.220 NA 
HETATM    6  C   UNL     1     -11.411   7.060  69.772  1.00  0.00    -0.182 C  
HETATM    7  O   UNL     1      -6.922   6.699  70.828  1.00  0.00    -0.064 OA 
HETATM    8  C   UNL     1     -10.527   6.054  70.527  1.00  0.00    -0.242 C  
HETATM    9  C   UNL     1      -7.993   6.596  70.209  1.00  0.00    -0.115 C  
HETATM   10  N   UNL     1      -9.219   6.568  70.957  1.00  0.00    -0.160 N  
ENDROOT
BRANCH   5  11
HETATM   11  C   UNL     1     -11.185   9.433  69.491  1.00  0.00    -0.033 A  
HETATM   12  N   UNL     1     -11.105  10.714  69.804  1.00  0.00    -0.277 NA 
HETATM   13  C   UNL     1     -10.969  10.421  67.583  1.00  0.00    -0.312 A  
HETATM   14  C   UNL     1     -10.871  10.741  66.235  1.00  0.00    -0.143 A  
HETATM   15  C   UNL     1     -10.988  12.721  68.299  1.00  0.00    -0.278 A  
HETATM   16  C   UNL     1     -11.015  11.355  68.604  1.00  0.00    -0.220 A  
HETATM   17  O   UNL     1     -11.070   9.179  68.147  1.00  0.00    -0.030 OA 
HETATM   18 CL   UNL     1     -10.978  14.747  66.518  1.00  0.00    -0.320 Cl 
HETATM   19  C   UNL     1     -10.873  12.112  65.937  1.00  0.00    -0.316 A  
HETATM   20  C   UNL     1     -10.935  13.080  66.948  1.00  0.00    -0.265 A  
ENDBRANCH   5  11
BRANCH   9  21
HETATM   21  C   UNL     1      -7.904   6.462  68.673  1.00  0.00    -0.102 A  
HETATM   22  C   UNL     1      -8.443   5.342  68.026  1.00  0.00    -0.097 A  
HETATM   23  C   UNL     1      -9.474   4.086  66.136  1.00  0.00    -0.192 C  
HETATM   24  C   UNL     1      -7.242   7.352  67.793  1.00  0.00    -0.091 A  
HETATM   25  C   UNL     1      -7.852   5.999  65.807  1.00  0.00    -0.104 A  
HETATM   26  C   UNL     1      -7.159   7.059  66.393  1.00  0.00    -0.074 A  
HETATM   27  C   UNL     1      -8.549   5.156  66.640  1.00  0.00    -0.110 A  
BRANCH  24  28
HETATM   28  N   UNL     1      -6.649   8.591  68.160  1.00  0.00    -0.060 NA 
HETATM   29  N   UNL     1      -5.344   8.729  68.516  1.00  0.00    -0.037 NA 
HETATM   30  C   UNL     1      -6.573  10.545  68.965  1.00  0.00    -0.060 A  
HETATM   31  C   UNL     1      -5.296   9.988  68.959  1.00  0.00    -0.035 A  
HETATM   32  N   UNL     1      -7.452   9.654  68.513  1.00  0.00    -0.079 NA 
ENDBRANCH  24  28
ENDBRANCH   9  21
TORSDOF 3
ENDMDL
MODEL       94
REMARK 921   NORMALIZED FREE ENERGY PREDICTED BY IDOCK:   -4.17 KCAL/MOL
REMARK 922        TOTAL FREE ENERGY PREDICTED BY IDOCK:   -6.53 KCAL/MOL
REMARK 923 INTER-LIGAND FREE ENERGY PREDICTED BY IDOCK:   -5.30 KCAL/MOL
REMARK 924 INTRA-LIGAND FREE ENERGY PREDICTED BY IDOCK:   -1.22 KCAL/MOL
REMARK 927      BINDING AFFINITY PREDICTED BY RF-SCORE:    0.00 PKD
ROOT
HETATM    1  C   UNL     1      -9.645   3.882  67.462  1.00  0.00    -0.163 C  
HETATM    2  C   UNL     1      -9.007   2.498  67.193  1.00  0.00    -0.175 C  
HETATM    3  C   UNL     1     -10.065   4.577  66.131  1.00  0.00    -0.282 C  
HETATM    4  C   UNL     1      -9.022   5.387  65.342  1.00  0.00    -0.124 C  
HETATM    5  N   UNL     1      -8.473   6.505  66.089  1.00  0.00    -0.132 NA 
HETATM    6  C   UNL     1      -7.318   6.264  66.943  1.00  0.00    -0.083 C  
HETATM    7  O   UNL     1     -10.309   4.644  70.078  1.00  0.00    -0.205 OA 
HETATM    8  C   UNL     1      -7.461   4.983  67.781  1.00  0.00    -0.079 C  
HETATM    9  C   UNL     1      -9.337   5.233  69.579  1.00  0.00    -0.130 C  
HETATM   10  N   UNL     1      -8.798   4.745  68.340  1.00  0.00    -0.101 N  
ENDROOT
BRANCH   5  11
HETATM   11  C   UNL     1      -8.986   7.758  66.079  1.00  0.00    -0.145 A  
HETATM   12  N   UNL     1      -8.644   8.748  65.274  1.00  0.00    -0.180 NA 
HETATM   13  C   UNL     1     -10.220   9.406  66.730  1.00  0.00    -0.250 A  
HETATM   14  C   UNL     1     -11.110  10.244  67.388  1.00  0.00    -0.261 A  
HETATM   15  C   UNL     1      -9.385  11.148  65.290  1.00  0.00    -0.243 A  
HETATM   16  C   UNL     1      -9.383   9.810  65.704  1.00  0.00    -0.227 A  
HETATM   17  O   UNL     1      -9.976   8.082  66.972  1.00  0.00    -0.202 OA 
HETATM   18 CL   UNL     1     -10.221  13.700  65.542  1.00  0.00    -0.313 Cl 
HETATM   19  C   UNL     1     -11.086  11.588  66.985  1.00  0.00    -0.365 A  
HETATM   20  C   UNL     1     -10.238  12.030  65.962  1.00  0.00    -0.226 A  
ENDBRANCH   5  11
BRANCH   9  21
HETATM   21  C   UNL     1      -8.759   6.426  70.372  1.00  0.00    -0.147 A  
HETATM   22  C   UNL     1      -8.628   7.683  69.767  1.00  0.00    -0.135 A  
HETATM   23  C   UNL     1      -8.515  10.172  69.698  1.00  0.00    -0.172 C  
HETATM   24  C   UNL     1      -8.249   6.385  71.692  1.00  0.00    -0.117 A  
HETATM   25  C   UNL     1      -7.703   8.802  71.663  1.00  0.00    -0.117 A  
HETATM   26  C   UNL     1      -7.658   7.550  72.278  1.00  0.00    -0.093 A  
HETATM   27  C   UNL     1      -8.246   8.874  70.402  1.00  0.00    -0.146 A  
BRANCH  24  28
HETATM   28  N   UNL     1      -8.296   5.261  72.562  1.00  0.00    -0.117 NA 
HETATM   29  N   UNL     1      -9.336   4.993  73.396  1.00  0.00    -0.136 NA 
HETATM   30  C   UNL     1      -7.527   3.743  73.819  1.00  0.00    -0.069 A  
HETATM   31  C   UNL     1      -8.861   3.989  74.137  1.00  0.00    -0.095 A  
HETATM   32  N   UNL     1      -7.136   4.578  72.858  1.00  0.00    -0.074 NA 
ENDBRANCH  24  28
ENDBRANCH   9  21
TORSDOF 3
ENDMDL
MODEL       95
REMARK 921   NORMALIZED FREE ENERGY PREDICTED BY IDOCK:   -4.15 KCAL/MOL
REMARK 922        TOTAL FREE ENERGY PREDICTED BY IDOCK:   -6.50 KCAL/MOL
REMARK 923 INTER-LIGAND FREE ENERGY PREDICTED BY IDOCK:   -4.96 KCAL/MOL
REMARK 924 INTRA-LIGAND FREE ENERGY PREDICTED BY IDOCK:   -1.54 KCAL/MOL
REMARK 927      BINDING AFFINITY PREDICTED BY RF-SCORE:    0.00 PKD
ROOT
HETATM    1  C   UNL     1     -10.075   5.676  70.187  1.00  0.00    -0.227 C  
HETATM    2  C   UNL     1      -9.820   4.281  70.804  1.00  0.00    -0.265 C  
HETATM    3  C   UNL     1     -10.691   5.557  68.759  1.00  0.00    -0.195 C  
HETATM    4  C   UNL     1      -9.759   5.367  67.550  1.00  0.00    -0.137 C  
HETATM    5  N   UNL     1      -8.820   6.459  67.367  1.00  0.00    -0.105 NA 
HETATM    6  C   UNL     1      -7.550   6.404  68.077  1.00  0.00    -0.103 C  
HETATM    7  O   UNL     1      -9.851   7.981  71.768  1.00  0.00    -0.166 OA 
HETATM    8  C   UNL     1      -7.713   5.980  69.546  1.00  0.00    -0.098 C  
HETATM    9  C   UNL     1      -8.951   7.818  70.928  1.00  0.00    -0.147 C  
HETATM   10  N   UNL     1      -8.872   6.559  70.240  1.00  0.00    -0.150 N  
ENDROOT
BRANCH   5  11
HETATM   11  C   UNL     1      -9.059   7.555  66.607  1.00  0.00    -0.158 A  
HETATM   12  N   UNL     1      -9.708   8.646  66.972  1.00  0.00    -0.182 NA 
HETATM   13  C   UNL     1      -9.044   8.785  64.833  1.00  0.00     0.079 A  
HETATM   14  C   UNL     1      -8.883   9.304  63.556  1.00  0.00    -0.145 A  
HETATM   15  C   UNL     1     -10.373  10.642  65.601  1.00  0.00    -0.285 A  
HETATM   16  C   UNL     1      -9.747   9.414  65.847  1.00  0.00    -0.285 A  
HETATM   17  O   UNL     1      -8.590   7.589  65.318  1.00  0.00    -0.106 OA 
HETATM   18 CL   UNL     1     -11.087  12.642  63.938  1.00  0.00    -0.439 Cl 
HETATM   19  C   UNL     1      -9.538  10.521  63.310  1.00  0.00    -0.373 A  
HETATM   20  C   UNL     1     -10.270  11.172  64.311  1.00  0.00    -0.340 A  
ENDBRANCH   5  11
BRANCH   9  21
HETATM   21  C   UNL     1      -7.958   8.984  70.730  1.00  0.00    -0.172 A  
HETATM   22  C   UNL     1      -8.173   9.936  69.725  1.00  0.00    -0.191 A  
HETATM   23  C   UNL     1      -8.021  12.179  68.648  1.00  0.00    -0.063 C  
HETATM   24  C   UNL     1      -6.747   9.180  71.437  1.00  0.00    -0.045 A  
HETATM   25  C   UNL     1      -6.231  11.252  70.176  1.00  0.00    -0.147 A  
HETATM   26  C   UNL     1      -5.871  10.260  71.090  1.00  0.00    -0.003 A  
HETATM   27  C   UNL     1      -7.431  11.109  69.521  1.00  0.00     0.018 A  
BRANCH  24  28
HETATM   28  N   UNL     1      -6.296   8.402  72.539  1.00  0.00    -0.079 NA 
HETATM   29  N   UNL     1      -5.485   7.318  72.418  1.00  0.00    -0.037 NA 
HETATM   30  C   UNL     1      -6.385   7.518  74.458  1.00  0.00    -0.089 A  
HETATM   31  C   UNL     1      -5.497   6.809  73.652  1.00  0.00    -0.046 A  
HETATM   32  N   UNL     1      -6.943   8.500  73.753  1.00  0.00    -0.285 NA 
ENDBRANCH  24  28
ENDBRANCH   9  21
TORSDOF 3
ENDMDL
MODEL       96
REMARK 921   NORMALIZED FREE ENERGY PREDICTED BY IDOCK:   -4.13 KCAL/MOL
REMARK 922        TOTAL FREE ENERGY PREDICTED BY IDOCK:   -6.48 KCAL/MOL
REMARK 923 INTER-LIGAND FREE ENERGY PREDICTED BY IDOCK:   -6.26 KCAL/MOL
REMARK 924 INTRA-LIGAND FREE ENERGY PREDICTED BY IDOCK:   -0.21 KCAL/MOL
REMARK 927      BINDING AFFINITY PREDICTED BY RF-SCORE:    0.00 PKD
ROOT
HETATM    1  C   UNL     1      -6.444  13.872  68.822  1.00  0.00    -0.094 C  
HETATM    2  C   UNL     1      -5.160  14.667  68.492  1.00  0.00    -0.104 C  
HETATM    3  C   UNL     1      -6.409  13.325  70.283  1.00  0.00     0.075 C  
HETATM    4  C   UNL     1      -5.698  11.992  70.571  1.00  0.00    -0.159 C  
HETATM    5  N   UNL     1      -6.271  10.865  69.856  1.00  0.00    -0.101 NA 
HETATM    6  C   UNL     1      -5.787  10.581  68.513  1.00  0.00    -0.040 C  
HETATM    7  O   UNL     1      -8.631  13.931  67.067  1.00  0.00    -0.216 OA 
HETATM    8  C   UNL     1      -5.660  11.848  67.651  1.00  0.00    -0.075 C  
HETATM    9  C   UNL     1      -8.004  12.859  67.107  1.00  0.00    -0.099 C  
HETATM   10  N   UNL     1      -6.749  12.821  67.804  1.00  0.00    -0.117 N  
ENDROOT
BRANCH   5  11
HETATM   11  C   UNL     1      -7.260  10.076  70.339  1.00  0.00    -0.108 A  
HETATM   12  N   UNL     1      -7.229   9.354  71.444  1.00  0.00    -0.330 NA 
HETATM   13  C   UNL     1      -9.182   9.092  70.369  1.00  0.00    -0.209 A  
HETATM   14  C   UNL     1     -10.453   8.612  70.087  1.00  0.00    -0.228 A  
HETATM   15  C   UNL     1      -8.917   7.718  72.330  1.00  0.00    -0.202 A  
HETATM   16  C   UNL     1      -8.420   8.689  71.453  1.00  0.00    -0.188 A  
HETATM   17  O   UNL     1      -8.444   9.992  69.650  1.00  0.00    -0.164 OA 
HETATM   18 CL   UNL     1     -10.799   5.927  73.056  1.00  0.00    -0.282 Cl 
HETATM   19  C   UNL     1     -10.932   7.619  70.955  1.00  0.00    -0.262 A  
HETATM   20  C   UNL     1     -10.177   7.179  72.050  1.00  0.00    -0.190 A  
ENDBRANCH   5  11
BRANCH   9  21
HETATM   21  C   UNL     1      -8.620  11.660  66.352  1.00  0.00    -0.143 A  
HETATM   22  C   UNL     1      -7.963  10.423  66.331  1.00  0.00    -0.130 A  
HETATM   23  C   UNL     1      -7.797   7.939  66.192  1.00  0.00    -0.094 C  
HETATM   24  C   UNL     1      -9.801  11.680  65.573  1.00  0.00    -0.234 A  
HETATM   25  C   UNL     1      -9.584   9.278  65.002  1.00  0.00    -0.020 A  
HETATM   26  C   UNL     1     -10.213  10.514  64.849  1.00  0.00    -0.371 A  
HETATM   27  C   UNL     1      -8.467   9.225  65.801  1.00  0.00    -0.144 A  
BRANCH  24  28
HETATM   28  N   UNL     1     -10.695  12.780  65.452  1.00  0.00    -0.278 NA 
HETATM   29  N   UNL     1     -11.946  12.799  65.984  1.00  0.00    -0.445 NA 
HETATM   30  C   UNL     1     -11.575  14.479  64.550  1.00  0.00    -0.377 A  
HETATM   31  C   UNL     1     -12.466  13.912  65.459  1.00  0.00    -0.511 A  
HETATM   32  N   UNL     1     -10.467  13.743  64.493  1.00  0.00    -0.425 NA 
ENDBRANCH  24  28
ENDBRANCH   9  21
TORSDOF 3
ENDMDL
MODEL       97
REMARK 921   NORMALIZED FREE ENERGY PREDICTED BY IDOCK:   -4.10 KCAL/MOL
REMARK 922        TOTAL FREE ENERGY PREDICTED BY IDOCK:   -6.45 KCAL/MOL
REMARK 923 INTER-LIGAND FREE ENERGY PREDICTED BY IDOCK:   -5.10 KCAL/MOL
REMARK 924 INTRA-LIGAND FREE ENERGY PREDICTED BY IDOCK:   -1.35 KCAL/MOL
REMARK 927      BINDING AFFINITY PREDICTED BY RF-SCORE:    0.00 PKD
ROOT
HETATM    1  C   UNL     1      -6.954  14.151  68.806  1.00  0.00    -0.104 C  
HETATM    2  C   UNL     1      -6.142  15.271  68.115  1.00  0.00    -0.139 C  
HETATM    3  C   UNL     1      -6.320  13.757  70.175  1.00  0.00    -0.060 C  
HETATM    4  C   UNL     1      -5.175  12.731  70.208  1.00  0.00    -0.110 C  
HETATM    5  N   UNL     1      -5.549  11.430  69.681  1.00  0.00    -0.058 NA 
HETATM    6  C   UNL     1      -5.420  11.203  68.248  1.00  0.00    -0.039 C  
HETATM    7  O   UNL     1      -9.464  13.404  67.802  1.00  0.00    -0.196 OA 
HETATM    8  C   UNL     1      -5.956  12.376  67.413  1.00  0.00    -0.154 C  
HETATM    9  C   UNL     1      -8.550  12.580  67.628  1.00  0.00    -0.178 C  
HETATM   10  N   UNL     1      -7.200  12.981  67.909  1.00  0.00    -0.113 N  
ENDROOT
BRANCH   5  11
HETATM   11  C   UNL     1      -6.052  10.418  70.427  1.00  0.00    -0.118 A  
HETATM   12  N   UNL     1      -5.834  10.196  71.710  1.00  0.00    -0.299 NA 
HETATM   13  C   UNL     1      -7.163   8.613  70.836  1.00  0.00    -0.073 A  
HETATM   14  C   UNL     1      -7.938   7.463  70.765  1.00  0.00    -0.104 A  
HETATM   15  C   UNL     1      -6.552   8.260  73.140  1.00  0.00    -0.118 A  
HETATM   16  C   UNL     1      -6.493   9.031  71.973  1.00  0.00     0.029 A  
HETATM   17  O   UNL     1      -6.891   9.506  69.837  1.00  0.00    -0.052 OA 
HETATM   18 CL   UNL     1      -7.328   6.049  74.476  1.00  0.00    -0.090 Cl 
HETATM   19  C   UNL     1      -7.969   6.682  71.931  1.00  0.00    -0.102 A  
HETATM   20  C   UNL     1      -7.287   7.071  73.090  1.00  0.00    -0.073 A  
ENDBRANCH   5  11
BRANCH   9  21
HETATM   21  C   UNL     1      -8.953  11.196  67.074  1.00  0.00    -0.156 A  
HETATM   22  C   UNL     1      -8.379  10.712  65.891  1.00  0.00    -0.161 A  
HETATM   23  C   UNL     1      -7.585   8.966  64.298  1.00  0.00    -0.115 C  
HETATM   24  C   UNL     1      -9.942  10.336  67.609  1.00  0.00    -0.179 A  
HETATM   25  C   UNL     1      -9.555   8.633  65.850  1.00  0.00    -0.210 A  
HETATM   26  C   UNL     1     -10.280   9.114  66.941  1.00  0.00    -0.336 A  
HETATM   27  C   UNL     1      -8.552   9.429  65.350  1.00  0.00    -0.176 A  
BRANCH  24  28
HETATM   28  N   UNL     1     -10.650  10.545  68.825  1.00  0.00    -0.193 NA 
HETATM   29  N   UNL     1     -10.265  10.030  70.022  1.00  0.00    -0.260 NA 
HETATM   30  C   UNL     1     -12.334  10.883  70.058  1.00  0.00    -0.313 A  
HETATM   31  C   UNL     1     -11.309  10.311  70.807  1.00  0.00    -0.337 A  
HETATM   32  N   UNL     1     -11.954  10.990  68.787  1.00  0.00    -0.511 NA 
ENDBRANCH  24  28
ENDBRANCH   9  21
TORSDOF 3
ENDMDL
MODEL       98
REMARK 921   NORMALIZED FREE ENERGY PREDICTED BY IDOCK:   -4.09 KCAL/MOL
REMARK 922        TOTAL FREE ENERGY PREDICTED BY IDOCK:   -6.43 KCAL/MOL
REMARK 923 INTER-LIGAND FREE ENERGY PREDICTED BY IDOCK:   -5.10 KCAL/MOL
REMARK 924 INTRA-LIGAND FREE ENERGY PREDICTED BY IDOCK:   -1.33 KCAL/MOL
REMARK 927      BINDING AFFINITY PREDICTED BY RF-SCORE:    0.00 PKD
ROOT
HETATM    1  C   UNL     1      -6.230   8.214  65.207  1.00  0.00    -0.045 C  
HETATM    2  C   UNL     1      -6.111   7.783  63.727  1.00  0.00    -0.058 C  
HETATM    3  C   UNL     1      -6.321   6.974  66.150  1.00  0.00    -0.050 C  
HETATM    4  C   UNL     1      -7.689   6.315  66.396  1.00  0.00    -0.099 C  
HETATM    5  N   UNL     1      -8.661   7.208  67.001  1.00  0.00    -0.120 NA 
HETATM    6  C   UNL     1      -9.468   8.046  66.125  1.00  0.00    -0.122 C  
HETATM    7  O   UNL     1      -5.826  10.892  65.934  1.00  0.00    -0.133 OA 
HETATM    8  C   UNL     1      -8.638   8.711  65.015  1.00  0.00    -0.158 C  
HETATM    9  C   UNL     1      -7.000  10.491  65.997  1.00  0.00    -0.134 C  
HETATM   10  N   UNL     1      -7.320   9.210  65.432  1.00  0.00    -0.088 N  
ENDROOT
BRANCH   5  11
HETATM   11  C   UNL     1      -8.844   7.348  68.335  1.00  0.00    -0.121 A  
HETATM   12  N   UNL     1      -8.577   6.453  69.270  1.00  0.00    -0.125 NA 
HETATM   13  C   UNL     1      -9.454   8.314  70.167  1.00  0.00    -0.167 A  
HETATM   14  C   UNL     1      -9.949   9.179  71.133  1.00  0.00    -0.377 A  
HETATM   15  C   UNL     1      -9.052   6.529  71.735  1.00  0.00    -0.142 A  
HETATM   16  C   UNL     1      -9.001   7.032  70.429  1.00  0.00    -0.155 A  
HETATM   17  O   UNL     1      -9.349   8.528  68.821  1.00  0.00    -0.143 OA 
HETATM   18 CL   UNL     1      -9.742   6.757  74.332  1.00  0.00    -0.313 Cl 
HETATM   19  C   UNL     1     -10.023   8.657  72.434  1.00  0.00    -0.320 A  
HETATM   20  C   UNL     1      -9.587   7.358  72.726  1.00  0.00    -0.165 A  
ENDBRANCH   5  11
BRANCH   9  21
HETATM   21  C   UNL     1      -8.029  11.440  66.648  1.00  0.00    -0.148 A  
HETATM   22  C   UNL     1      -9.178  11.828  65.946  1.00  0.00    -0.178 A  
HETATM   23  C   UNL     1     -11.543  12.577  65.693  1.00  0.00    -0.435 C  
HETATM   24  C   UNL     1      -7.912  12.059  67.916  1.00  0.00    -0.147 A  
HETATM   25  C   UNL     1     -10.093  13.210  67.667  1.00  0.00    -0.221 A  
HETATM   26  C   UNL     1      -8.903  12.992  68.362  1.00  0.00    -0.123 A  
HETATM   27  C   UNL     1     -10.251  12.572  66.459  1.00  0.00    -0.255 A  
BRANCH  24  28
HETATM   28  N   UNL     1      -6.880  11.814  68.864  1.00  0.00    -0.095 NA 
HETATM   29  N   UNL     1      -6.711  10.629  69.508  1.00  0.00    -0.086 NA 
HETATM   30  C   UNL     1      -5.484  12.285  70.381  1.00  0.00    -0.150 A  
HETATM   31  C   UNL     1      -5.778  10.925  70.417  1.00  0.00    -0.117 A  
HETATM   32  N   UNL     1      -6.214  12.876  69.437  1.00  0.00    -0.108 NA 
ENDBRANCH  24  28
ENDBRANCH   9  21
TORSDOF 3
ENDMDL
MODEL       99
REMARK 921   NORMALIZED FREE ENERGY PREDICTED BY IDOCK:   -4.08 KCAL/MOL
REMARK 922        TOTAL FREE ENERGY PREDICTED BY IDOCK:   -6.43 KCAL/MOL
REMARK 923 INTER-LIGAND FREE ENERGY PREDICTED BY IDOCK:   -5.28 KCAL/MOL
REMARK 924 INTRA-LIGAND FREE ENERGY PREDICTED BY IDOCK:   -1.15 KCAL/MOL
REMARK 927      BINDING AFFINITY PREDICTED BY RF-SCORE:    0.00 PKD
ROOT
HETATM    1  C   UNL     1     -11.654  11.719  68.737  1.00  0.00    -0.307 C  
HETATM    2  C   UNL     1     -11.755  12.965  69.647  1.00  0.00    -0.367 C  
HETATM    3  C   UNL     1     -12.285  10.468  69.422  1.00  0.00    -0.094 C  
HETATM    4  C   UNL     1     -11.435   9.632  70.394  1.00  0.00    -0.263 C  
HETATM    5  N   UNL     1     -10.252   9.056  69.779  1.00  0.00    -0.198 NA 
HETATM    6  C   UNL     1      -9.034   9.854  69.744  1.00  0.00    -0.221 C  
HETATM    7  O   UNL     1     -10.853  11.986  66.063  1.00  0.00    -0.268 OA 
HETATM    8  C   UNL     1      -9.293  11.309  69.322  1.00  0.00     0.225 C  
HETATM    9  C   UNL     1     -10.025  11.452  66.820  1.00  0.00    -0.208 C  
HETATM   10  N   UNL     1     -10.267  11.482  68.235  1.00  0.00    -0.190 N  
ENDROOT
BRANCH   5  11
HETATM   11  C   UNL     1     -10.211   7.836  69.194  1.00  0.00    -0.208 A  
HETATM   12  N   UNL     1      -9.919   6.687  69.778  1.00  0.00    -0.171 NA 
HETATM   13  C   UNL     1     -10.320   6.396  67.589  1.00  0.00    -0.197 A  
HETATM   14  C   UNL     1     -10.446   5.747  66.369  1.00  0.00    -0.217 A  
HETATM   15  C   UNL     1      -9.626   4.409  68.763  1.00  0.00    -0.224 A  
HETATM   16  C   UNL     1      -9.939   5.774  68.766  1.00  0.00    -0.159 A  
HETATM   17  O   UNL     1     -10.505   7.724  67.859  1.00  0.00    -0.214 OA 
HETATM   18 CL   UNL     1      -9.251   2.072  67.469  1.00  0.00    -0.185 Cl 
HETATM   19  C   UNL     1     -10.105   4.386  66.369  1.00  0.00    -0.235 A  
HETATM   20  C   UNL     1      -9.699   3.733  67.540  1.00  0.00    -0.085 A  
ENDBRANCH   5  11
BRANCH   9  21
HETATM   21  C   UNL     1      -8.772  10.834  66.162  1.00  0.00    -0.186 A  
HETATM   22  C   UNL     1      -8.878   9.671  65.387  1.00  0.00    -0.204 A  
HETATM   23  C   UNL     1      -8.233   8.075  63.585  1.00  0.00    -0.040 C  
HETATM   24  C   UNL     1      -7.439  11.285  66.315  1.00  0.00    -0.010 A  
HETATM   25  C   UNL     1      -6.560   9.500  64.836  1.00  0.00    -0.086 A  
HETATM   26  C   UNL     1      -6.355  10.562  65.718  1.00  0.00    -0.129 A  
HETATM   27  C   UNL     1      -7.853   9.083  64.630  1.00  0.00    -0.121 A  
BRANCH  24  28
HETATM   28  N   UNL     1      -7.038  12.464  67.002  1.00  0.00    -0.072 NA 
HETATM   29  N   UNL     1      -7.829  13.560  67.148  1.00  0.00    -0.077 NA 
HETATM   30  C   UNL     1      -5.697  13.933  67.720  1.00  0.00    -0.070 A  
HETATM   31  C   UNL     1      -6.986  14.458  67.664  1.00  0.00    -0.184 A  
HETATM   32  N   UNL     1      -5.701  12.686  67.253  1.00  0.00    -0.310 NA 
ENDBRANCH  24  28
ENDBRANCH   9  21
TORSDOF 3
ENDMDL
MODEL      100
REMARK 921   NORMALIZED FREE ENERGY PREDICTED BY IDOCK:   -4.06 KCAL/MOL
REMARK 922        TOTAL FREE ENERGY PREDICTED BY IDOCK:   -6.40 KCAL/MOL
REMARK 923 INTER-LIGAND FREE ENERGY PREDICTED BY IDOCK:   -5.61 KCAL/MOL
REMARK 924 INTRA-LIGAND FREE ENERGY PREDICTED BY IDOCK:   -0.78 KCAL/MOL
REMARK 927      BINDING AFFINITY PREDICTED BY RF-SCORE:    0.00 PKD
ROOT
HETATM    1  C   UNL     1      -8.987   9.259  64.575  1.00  0.00    -0.136 C  
HETATM    2  C   UNL     1      -8.206   9.705  63.317  1.00  0.00    -0.158 C  
HETATM    3  C   UNL     1     -10.154  10.244  64.893  1.00  0.00    -0.346 C  
HETATM    4  C   UNL     1      -9.867  11.512  65.714  1.00  0.00    -0.234 C  
HETATM    5  N   UNL     1      -9.354  11.235  67.045  1.00  0.00    -0.170 NA 
HETATM    6  C   UNL     1      -7.917  11.067  67.210  1.00  0.00    -0.126 C  
HETATM    7  O   UNL     1      -8.521   6.735  65.704  1.00  0.00    -0.143 OA 
HETATM    8  C   UNL     1      -7.298  10.176  66.121  1.00  0.00    -0.115 C  
HETATM    9  C   UNL     1      -8.096   7.701  66.359  1.00  0.00    -0.113 C  
HETATM   10  N   UNL     1      -8.096   9.000  65.746  1.00  0.00    -0.106 N  
ENDROOT
BRANCH   5  11
HETATM   11  C   UNL     1     -10.128  11.082  68.146  1.00  0.00    -0.179 A  
HETATM   12  N   UNL     1     -10.436   9.947  68.745  1.00  0.00    -0.204 NA 
HETATM   13  C   UNL     1     -11.414  11.687  69.771  1.00  0.00    -0.264 A  
HETATM   14  C   UNL     1     -12.204  12.383  70.676  1.00  0.00    -0.368 A  
HETATM   15  C   UNL     1     -12.004   9.527  70.662  1.00  0.00    -0.266 A  
HETATM   16  C   UNL     1     -11.287  10.308  69.747  1.00  0.00    -0.273 A  
HETATM   17  O   UNL     1     -10.663  12.194  68.746  1.00  0.00    -0.227 OA 
HETATM   18 CL   UNL     1     -13.806   9.274  72.653  1.00  0.00    -0.460 Cl 
HETATM   19  C   UNL     1     -12.940  11.591  71.570  1.00  0.00    -0.485 A  
HETATM   20  C   UNL     1     -12.845  10.194  71.559  1.00  0.00    -0.443 A  
ENDBRANCH   5  11
BRANCH   9  21
HETATM   21  C   UNL     1      -7.559   7.405  67.776  1.00  0.00    -0.107 A  
HETATM   22  C   UNL     1      -7.927   8.216  68.858  1.00  0.00    -0.114 A  
HETATM   23  C   UNL     1      -8.400   8.738  71.249  1.00  0.00    -0.225 C  
HETATM   24  C   UNL     1      -6.627   6.397  68.124  1.00  0.00    -0.066 A  
HETATM   25  C   UNL     1      -6.674   7.040  70.517  1.00  0.00    -0.053 A  
HETATM   26  C   UNL     1      -6.143   6.289  69.468  1.00  0.00    -0.029 A  
HETATM   27  C   UNL     1      -7.623   7.986  70.208  1.00  0.00    -0.081 A  
BRANCH  24  28
HETATM   28  N   UNL     1      -6.119   5.402  67.245  1.00  0.00    -0.029 NA 
HETATM   29  N   UNL     1      -5.200   5.648  66.274  1.00  0.00    -0.009 NA 
HETATM   30  C   UNL     1      -6.151   3.630  66.090  1.00  0.00    -0.028 A  
HETATM   31  C   UNL     1      -5.181   4.498  65.595  1.00  0.00    -0.009 A  
HETATM   32  N   UNL     1      -6.793   4.207  67.103  1.00  0.00    -0.051 NA 
ENDBRANCH  24  28
ENDBRANCH   9  21
TORSDOF 3
ENDMDL
MODEL      101
REMARK 921   NORMALIZED FREE ENERGY PREDICTED BY IDOCK:   -4.04 KCAL/MOL
REMARK 922        TOTAL FREE ENERGY PREDICTED BY IDOCK:   -6.37 KCAL/MOL
REMARK 923 INTER-LIGAND FREE ENERGY PREDICTED BY IDOCK:   -4.90 KCAL/MOL
REMARK 924 INTRA-LIGAND FREE ENERGY PREDICTED BY IDOCK:   -1.48 KCAL/MOL
REMARK 927      BINDING AFFINITY PREDICTED BY RF-SCORE:    0.00 PKD
ROOT
HETATM    1  C   UNL     1      -6.999   4.162  67.797  1.00  0.00    -0.056 C  
HETATM    2  C   UNL     1      -6.540   3.257  66.630  1.00  0.00    -0.041 C  
HETATM    3  C   UNL     1      -8.437   3.785  68.270  1.00  0.00    -0.108 C  
HETATM    4  C   UNL     1      -9.651   4.382  67.537  1.00  0.00    -0.172 C  
HETATM    5  N   UNL     1      -9.702   5.832  67.589  1.00  0.00    -0.114 NA 
HETATM    6  C   UNL     1      -8.991   6.585  66.566  1.00  0.00    -0.143 C  
HETATM    7  O   UNL     1      -5.169   5.863  69.069  1.00  0.00    -0.004 OA 
HETATM    8  C   UNL     1      -7.580   6.035  66.301  1.00  0.00    -0.090 C  
HETATM    9  C   UNL     1      -6.014   6.424  68.353  1.00  0.00    -0.020 C  
HETATM   10  N   UNL     1      -6.837   5.616  67.498  1.00  0.00    -0.059 N  
ENDROOT
BRANCH   5  11
HETATM   11  C   UNL     1     -10.337   6.541  68.553  1.00  0.00    -0.192 A  
HETATM   12  N   UNL     1     -11.235   6.087  69.408  1.00  0.00    -0.388 NA 
HETATM   13  C   UNL     1     -10.882   8.283  69.705  1.00  0.00    -0.185 A  
HETATM   14  C   UNL     1     -11.025   9.561  70.229  1.00  0.00    -0.317 A  
HETATM   15  C   UNL     1     -12.608   7.341  71.097  1.00  0.00    -0.362 A  
HETATM   16  C   UNL     1     -11.624   7.187  70.114  1.00  0.00    -0.168 A  
HETATM   17  O   UNL     1     -10.045   7.873  68.705  1.00  0.00    -0.186 OA 
HETATM   18 CL   UNL     1     -14.060   8.879  72.771  1.00  0.00    -0.346 Cl 
HETATM   19  C   UNL     1     -12.032   9.711  71.194  1.00  0.00    -0.452 A  
HETATM   20  C   UNL     1     -12.810   8.624  71.615  1.00  0.00    -0.345 A  
ENDBRANCH   5  11
BRANCH   9  21
HETATM   21  C   UNL     1      -6.071   7.966  68.416  1.00  0.00    -0.044 A  
HETATM   22  C   UNL     1      -5.553   8.739  67.368  1.00  0.00    -0.039 A  
HETATM   23  C   UNL     1      -5.378  10.739  65.890  1.00  0.00    -0.130 C  
HETATM   24  C   UNL     1      -6.545   8.742  69.502  1.00  0.00    -0.044 A  
HETATM   25  C   UNL     1      -6.067  10.868  68.320  1.00  0.00    -0.049 A  
HETATM   26  C   UNL     1      -6.457  10.172  69.465  1.00  0.00    -0.055 A  
HETATM   27  C   UNL     1      -5.657  10.132  67.235  1.00  0.00    -0.042 A  
BRANCH  24  28
HETATM   28  N   UNL     1      -7.168   8.231  70.674  1.00  0.00    -0.047 NA 
HETATM   29  N   UNL     1      -7.616   6.953  70.796  1.00  0.00    -0.089 NA 
HETATM   30  C   UNL     1      -8.323   8.293  72.444  1.00  0.00    -0.170 A  
HETATM   31  C   UNL     1      -8.286   6.991  71.951  1.00  0.00    -0.102 A  
HETATM   32  N   UNL     1      -7.665   9.104  71.618  1.00  0.00    -0.336 NA 
ENDBRANCH  24  28
ENDBRANCH   9  21
TORSDOF 3
ENDMDL
MODEL      102
REMARK 921   NORMALIZED FREE ENERGY PREDICTED BY IDOCK:   -3.94 KCAL/MOL
REMARK 922        TOTAL FREE ENERGY PREDICTED BY IDOCK:   -6.26 KCAL/MOL
REMARK 923 INTER-LIGAND FREE ENERGY PREDICTED BY IDOCK:   -4.71 KCAL/MOL
REMARK 924 INTRA-LIGAND FREE ENERGY PREDICTED BY IDOCK:   -1.55 KCAL/MOL
REMARK 927      BINDING AFFINITY PREDICTED BY RF-SCORE:    0.00 PKD
ROOT
HETATM    1  C   UNL     1     -11.349   8.524  70.463  1.00  0.00    -0.217 C  
HETATM    2  C   UNL     1     -11.830   9.500  71.562  1.00  0.00    -0.478 C  
HETATM    3  C   UNL     1     -11.421   7.045  70.951  1.00  0.00    -0.349 C  
HETATM    4  C   UNL     1     -10.251   6.461  71.761  1.00  0.00    -0.197 C  
HETATM    5  N   UNL     1      -8.990   6.463  71.040  1.00  0.00    -0.146 NA 
HETATM    6  C   UNL     1      -8.157   7.656  71.110  1.00  0.00    -0.098 C  
HETATM    7  O   UNL     1     -10.910   9.446  67.851  1.00  0.00    -0.236 OA 
HETATM    8  C   UNL     1      -8.965   8.951  70.930  1.00  0.00    -0.222 C  
HETATM    9  C   UNL     1      -9.888   9.160  68.497  1.00  0.00    -0.164 C  
HETATM   10  N   UNL     1     -10.015   8.898  69.904  1.00  0.00    -0.183 N  
ENDROOT
BRANCH   5  11
HETATM   11  C   UNL     1      -8.549   5.442  70.268  1.00  0.00    -0.124 A  
HETATM   12  N   UNL     1      -7.292   5.114  70.031  1.00  0.00    -0.058 NA 
HETATM   13  C   UNL     1      -8.697   3.757  68.926  1.00  0.00    -0.092 A  
HETATM   14  C   UNL     1      -9.125   2.741  68.082  1.00  0.00    -0.228 A  
HETATM   15  C   UNL     1      -6.361   3.375  68.476  1.00  0.00    -0.033 A  
HETATM   16  C   UNL     1      -7.369   4.078  69.148  1.00  0.00    -0.054 A  
HETATM   17  O   UNL     1      -9.464   4.627  69.651  1.00  0.00    -0.129 OA 
HETATM   18 CL   UNL     1      -5.560   1.533  66.676  1.00  0.00    -0.016 Cl 
HETATM   19  C   UNL     1      -8.110   2.060  67.392  1.00  0.00    -0.067 A  
HETATM   20  C   UNL     1      -6.758   2.374  67.583  1.00  0.00    -0.039 A  
ENDBRANCH   5  11
BRANCH   9  21
HETATM   21  C   UNL     1      -8.550   9.156  67.725  1.00  0.00    -0.121 A  
HETATM   22  C   UNL     1      -7.834   7.964  67.554  1.00  0.00    -0.122 A  
HETATM   23  C   UNL     1      -6.272   6.396  66.407  1.00  0.00    -0.037 C  
HETATM   24  C   UNL     1      -7.884  10.290  67.201  1.00  0.00    -0.110 A  
HETATM   25  C   UNL     1      -6.023   8.911  66.318  1.00  0.00    -0.059 A  
HETATM   26  C   UNL     1      -6.598  10.155  66.583  1.00  0.00    -0.075 A  
HETATM   27  C   UNL     1      -6.683   7.793  66.769  1.00  0.00    -0.067 A  
BRANCH  24  28
HETATM   28  N   UNL     1      -8.396  11.617  67.186  1.00  0.00    -0.157 NA 
HETATM   29  N   UNL     1      -8.507  12.396  68.294  1.00  0.00    -0.176 NA 
HETATM   30  C   UNL     1      -9.588  13.232  66.520  1.00  0.00    -0.264 A  
HETATM   31  C   UNL     1      -9.203  13.443  67.842  1.00  0.00    -0.216 A  
HETATM   32  N   UNL     1      -9.130  12.053  66.104  1.00  0.00    -0.175 NA 
ENDBRANCH  24  28
ENDBRANCH   9  21
TORSDOF 3
ENDMDL
MODEL      103
REMARK 921   NORMALIZED FREE ENERGY PREDICTED BY IDOCK:   -3.94 KCAL/MOL
REMARK 922        TOTAL FREE ENERGY PREDICTED BY IDOCK:   -6.26 KCAL/MOL
REMARK 923 INTER-LIGAND FREE ENERGY PREDICTED BY IDOCK:   -4.88 KCAL/MOL
REMARK 924 INTRA-LIGAND FREE ENERGY PREDICTED BY IDOCK:   -1.37 KCAL/MOL
REMARK 927      BINDING AFFINITY PREDICTED BY RF-SCORE:    0.00 PKD
ROOT
HETATM    1  C   UNL     1      -8.787   7.606  72.835  1.00  0.00    -0.160 C  
HETATM    2  C   UNL     1      -8.196   8.049  74.194  1.00  0.00    -0.318 C  
HETATM    3  C   UNL     1      -8.529   6.090  72.575  1.00  0.00    -0.119 C  
HETATM    4  C   UNL     1      -7.191   5.648  71.959  1.00  0.00    -0.088 C  
HETATM    5  N   UNL     1      -6.947   6.211  70.642  1.00  0.00    -0.062 NA 
HETATM    6  C   UNL     1      -6.305   7.515  70.557  1.00  0.00    -0.038 C  
HETATM    7  O   UNL     1     -10.477   9.327  71.404  1.00  0.00    -0.319 OA 
HETATM    8  C   UNL     1      -6.892   8.528  71.553  1.00  0.00    -0.079 C  
HETATM    9  C   UNL     1      -9.344   9.164  70.920  1.00  0.00    -0.269 C  
HETATM   10  N   UNL     1      -8.353   8.482  71.706  1.00  0.00    -0.159 N  
ENDROOT
BRANCH   5  11
HETATM   11  C   UNL     1      -7.313   5.622  69.479  1.00  0.00    -0.067 A  
HETATM   12  N   UNL     1      -7.127   6.092  68.260  1.00  0.00    -0.080 NA 
HETATM   13  C   UNL     1      -8.210   4.128  68.204  1.00  0.00    -0.092 A  
HETATM   14  C   UNL     1      -8.873   3.026  67.680  1.00  0.00    -0.160 A  
HETATM   15  C   UNL     1      -7.928   5.187  66.058  1.00  0.00    -0.107 A  
HETATM   16  C   UNL     1      -7.730   5.181  67.444  1.00  0.00    -0.092 A  
HETATM   17  O   UNL     1      -7.938   4.400  69.516  1.00  0.00    -0.061 OA 
HETATM   18 CL   UNL     1      -8.968   4.112  63.814  1.00  0.00    -0.126 Cl 
HETATM   19  C   UNL     1      -9.091   3.053  66.295  1.00  0.00    -0.150 A  
HETATM   20  C   UNL     1      -8.632   4.113  65.503  1.00  0.00    -0.118 A  
ENDBRANCH   5  11
BRANCH   9  21
HETATM   21  C   UNL     1      -9.090   9.756  69.517  1.00  0.00    -0.227 A  
HETATM   22  C   UNL     1      -8.355  10.940  69.370  1.00  0.00     0.051 A  
HETATM   23  C   UNL     1      -6.863  12.558  68.200  1.00  0.00    -0.084 C  
HETATM   24  C   UNL     1      -9.601   9.259  68.294  1.00  0.00    -0.147 A  
HETATM   25  C   UNL     1      -8.492  11.050  66.988  1.00  0.00    -0.141 A  
HETATM   26  C   UNL     1      -9.361   9.960  67.068  1.00  0.00    -0.175 A  
HETATM   27  C   UNL     1      -7.941  11.514  68.158  1.00  0.00    -0.136 A  
BRANCH  24  28
HETATM   28  N   UNL     1     -10.336   8.051  68.134  1.00  0.00    -0.207 NA 
HETATM   29  N   UNL     1     -10.539   7.153  69.134  1.00  0.00    -0.214 NA 
HETATM   30  C   UNL     1     -11.102   6.364  67.116  1.00  0.00    -0.341 A  
HETATM   31  C   UNL     1     -11.086   6.120  68.487  1.00  0.00    -0.262 A  
HETATM   32  N   UNL     1     -10.580   7.564  66.869  1.00  0.00    -0.337 NA 
ENDBRANCH  24  28
ENDBRANCH   9  21
TORSDOF 3
ENDMDL
MODEL      104
REMARK 921   NORMALIZED FREE ENERGY PREDICTED BY IDOCK:   -3.94 KCAL/MOL
REMARK 922        TOTAL FREE ENERGY PREDICTED BY IDOCK:   -6.26 KCAL/MOL
REMARK 923 INTER-LIGAND FREE ENERGY PREDICTED BY IDOCK:   -4.71 KCAL/MOL
REMARK 924 INTRA-LIGAND FREE ENERGY PREDICTED BY IDOCK:   -1.55 KCAL/MOL
REMARK 927      BINDING AFFINITY PREDICTED BY RF-SCORE:    0.00 PKD
ROOT
HETATM    1  C   UNL     1      -8.331   7.604  72.220  1.00  0.00    -0.108 C  
HETATM    2  C   UNL     1      -8.901   7.625  73.657  1.00  0.00    -0.295 C  
HETATM    3  C   UNL     1      -8.403   9.018  71.565  1.00  0.00    -0.070 C  
HETATM    4  C   UNL     1      -9.703   9.463  70.874  1.00  0.00    -0.250 C  
HETATM    5  N   UNL     1     -10.088   8.612  69.762  1.00  0.00    -0.194 NA 
HETATM    6  C   UNL     1     -10.897   7.434  70.041  1.00  0.00    -0.252 C  
HETATM    7  O   UNL     1      -6.957   5.348  71.278  1.00  0.00    -0.054 OA 
HETATM    8  C   UNL     1     -10.395   6.649  71.264  1.00  0.00    -0.205 C  
HETATM    9  C   UNL     1      -8.083   5.534  70.787  1.00  0.00    -0.113 C  
HETATM   10  N   UNL     1      -8.934   6.530  71.375  1.00  0.00    -0.141 N  
ENDROOT
BRANCH   5  11
HETATM   11  C   UNL     1      -9.710   8.815  68.477  1.00  0.00    -0.162 A  
HETATM   12  N   UNL     1      -8.597   8.396  67.903  1.00  0.00    -0.131 NA 
HETATM   13  C   UNL     1      -9.847   9.580  66.463  1.00  0.00    -0.240 A  
HETATM   14  C   UNL     1     -10.219  10.215  65.286  1.00  0.00    -0.261 A  
HETATM   15  C   UNL     1      -7.710   8.874  65.602  1.00  0.00    -0.087 A  
HETATM   16  C   UNL     1      -8.648   8.912  66.641  1.00  0.00    -0.123 A  
HETATM   17  O   UNL     1     -10.542   9.515  67.639  1.00  0.00    -0.248 OA 
HETATM   18 CL   UNL     1      -6.882   9.590  63.137  1.00  0.00    -0.100 Cl 
HETATM   19  C   UNL     1      -9.263  10.196  64.259  1.00  0.00    -0.312 A  
HETATM   20  C   UNL     1      -8.034   9.543  64.417  1.00  0.00    -0.135 A  
ENDBRANCH   5  11
BRANCH   9  21
HETATM   21  C   UNL     1      -8.485   4.632  69.599  1.00  0.00    -0.088 A  
HETATM   22  C   UNL     1      -8.303   5.071  68.282  1.00  0.00    -0.095 A  
HETATM   23  C   UNL     1      -7.907   4.813  65.834  1.00  0.00    -0.095 C  
HETATM   24  C   UNL     1      -9.121   3.370  69.686  1.00  0.00    -0.134 A  
HETATM   25  C   UNL     1      -9.168   3.114  67.220  1.00  0.00    -0.219 A  
HETATM   26  C   UNL     1      -9.522   2.677  68.498  1.00  0.00    -0.203 A  
HETATM   27  C   UNL     1      -8.499   4.311  67.119  1.00  0.00    -0.100 A  
BRANCH  24  28
HETATM   28  N   UNL     1      -9.386   2.657  70.888  1.00  0.00    -0.136 NA 
HETATM   29  N   UNL     1     -10.372   2.992  71.763  1.00  0.00     0.082 NA 
HETATM   30  C   UNL     1      -8.940   1.481  72.588  1.00  0.00    -0.062 A  
HETATM   31  C   UNL     1     -10.117   2.193  72.803  1.00  0.00    -0.130 A  
HETATM   32  N   UNL     1      -8.433   1.804  71.400  1.00  0.00    -0.050 NA 
ENDBRANCH  24  28
ENDBRANCH   9  21
TORSDOF 3
ENDMDL
MODEL      105
REMARK 921   NORMALIZED FREE ENERGY PREDICTED BY IDOCK:   -3.92 KCAL/MOL
REMARK 922        TOTAL FREE ENERGY PREDICTED BY IDOCK:   -6.24 KCAL/MOL
REMARK 923 INTER-LIGAND FREE ENERGY PREDICTED BY IDOCK:   -5.65 KCAL/MOL
REMARK 924 INTRA-LIGAND FREE ENERGY PREDICTED BY IDOCK:   -0.58 KCAL/MOL
REMARK 927      BINDING AFFINITY PREDICTED BY RF-SCORE:    0.00 PKD
ROOT
HETATM    1  C   UNL     1     -11.599   8.315  70.646  1.00  0.00    -0.191 C  
HETATM    2  C   UNL     1     -11.922   8.536  72.142  1.00  0.00    -0.451 C  
HETATM    3  C   UNL     1     -11.462   6.797  70.316  1.00  0.00    -0.414 C  
HETATM    4  C   UNL     1     -10.113   6.095  70.548  1.00  0.00    -0.189 C  
HETATM    5  N   UNL     1      -9.027   6.658  69.766  1.00  0.00    -0.143 NA 
HETATM    6  C   UNL     1      -8.288   7.783  70.320  1.00  0.00    -0.127 C  
HETATM    7  O   UNL     1     -11.763  10.452  68.838  1.00  0.00    -0.192 OA 
HETATM    8  C   UNL     1      -9.209   8.848  70.938  1.00  0.00    -0.231 C  
HETATM    9  C   UNL     1     -10.614  10.061  69.102  1.00  0.00    -0.218 C  
HETATM   10  N   UNL     1     -10.436   9.129  70.181  1.00  0.00    -0.206 N  
ENDROOT
BRANCH   5  11
HETATM   11  C   UNL     1      -8.674   6.233  68.529  1.00  0.00    -0.112 A  
HETATM   12  N   UNL     1      -9.487   5.841  67.565  1.00  0.00    -0.111 NA 
HETATM   13  C   UNL     1      -7.343   5.680  66.922  1.00  0.00    -0.079 A  
HETATM   14  C   UNL     1      -6.247   5.395  66.118  1.00  0.00    -0.034 A  
HETATM   15  C   UNL     1      -8.942   4.858  65.318  1.00  0.00    -0.152 A  
HETATM   16  C   UNL     1      -8.658   5.444  66.558  1.00  0.00    -0.116 A  
HETATM   17  O   UNL     1      -7.346   6.196  68.189  1.00  0.00    -0.081 OA 
HETATM   18 CL   UNL     1      -8.154   3.723  63.002  1.00  0.00    -0.079 Cl 
HETATM   19  C   UNL     1      -6.540   4.783  64.891  1.00  0.00    -0.043 A  
HETATM   20  C   UNL     1      -7.859   4.516  64.502  1.00  0.00    -0.089 A  
ENDBRANCH   5  11
BRANCH   9  21
HETATM   21  C   UNL     1      -9.462  10.656  68.263  1.00  0.00    -0.161 A  
HETATM   22  C   UNL     1      -8.279   9.930  68.069  1.00  0.00    -0.113 A  
HETATM   23  C   UNL     1      -6.212   9.234  66.861  1.00  0.00    -0.065 C  
HETATM   24  C   UNL     1      -9.424  11.951  67.693  1.00  0.00    -0.182 A  
HETATM   25  C   UNL     1      -7.171  11.571  66.732  1.00  0.00    -0.111 A  
HETATM   26  C   UNL     1      -8.250  12.410  67.012  1.00  0.00    -0.141 A  
HETATM   27  C   UNL     1      -7.214  10.290  67.229  1.00  0.00    -0.089 A  
BRANCH  24  28
HETATM   28  N   UNL     1     -10.497  12.885  67.690  1.00  0.00    -0.222 NA 
HETATM   29  N   UNL     1     -11.188  13.238  66.574  1.00  0.00    -0.298 NA 
HETATM   30  C   UNL     1     -11.610  14.567  68.325  1.00  0.00    -0.329 A  
HETATM   31  C   UNL     1     -11.936  14.256  67.007  1.00  0.00    -0.433 A  
HETATM   32  N   UNL     1     -10.660  13.741  68.758  1.00  0.00    -0.251 NA 
ENDBRANCH  24  28
ENDBRANCH   9  21
TORSDOF 3
ENDMDL
MODEL      106
REMARK 921   NORMALIZED FREE ENERGY PREDICTED BY IDOCK:   -3.82 KCAL/MOL
REMARK 922        TOTAL FREE ENERGY PREDICTED BY IDOCK:   -6.12 KCAL/MOL
REMARK 923 INTER-LIGAND FREE ENERGY PREDICTED BY IDOCK:   -4.61 KCAL/MOL
REMARK 924 INTRA-LIGAND FREE ENERGY PREDICTED BY IDOCK:   -1.50 KCAL/MOL
REMARK 927      BINDING AFFINITY PREDICTED BY RF-SCORE:    0.00 PKD
ROOT
HETATM    1  C   UNL     1     -10.714   8.870  69.833  1.00  0.00    -0.227 C  
HETATM    2  C   UNL     1     -10.626   9.444  71.266  1.00  0.00    -0.400 C  
HETATM    3  C   UNL     1     -11.134   7.368  69.852  1.00  0.00    -0.208 C  
HETATM    4  C   UNL     1     -10.058   6.288  70.049  1.00  0.00    -0.175 C  
HETATM    5  N   UNL     1      -9.041   6.288  69.012  1.00  0.00    -0.129 NA 
HETATM    6  C   UNL     1      -7.886   7.158  69.178  1.00  0.00    -0.118 C  
HETATM    7  O   UNL     1     -10.576  10.583  67.617  1.00  0.00    -0.212 OA 
HETATM    8  C   UNL     1      -8.272   8.569  69.653  1.00  0.00    -0.115 C  
HETATM    9  C   UNL     1      -9.580   9.864  67.801  1.00  0.00    -0.141 C  
HETATM   10  N   UNL     1      -9.480   9.129  69.031  1.00  0.00    -0.150 N  
ENDROOT
BRANCH   5  11
HETATM   11  C   UNL     1      -9.111   5.560  67.872  1.00  0.00    -0.107 A  
HETATM   12  N   UNL     1      -9.966   5.723  66.879  1.00  0.00    -0.154 NA 
HETATM   13  C   UNL     1      -8.593   3.993  66.479  1.00  0.00    -0.110 A  
HETATM   14  C   UNL     1      -8.040   2.899  65.828  1.00  0.00    -0.087 A  
HETATM   15  C   UNL     1     -10.310   4.323  64.822  1.00  0.00    -0.164 A  
HETATM   16  C   UNL     1      -9.681   4.710  66.011  1.00  0.00    -0.202 A  
HETATM   17  O   UNL     1      -8.214   4.540  67.675  1.00  0.00    -0.099 OA 
HETATM   18 CL   UNL     1     -10.593   2.635  62.737  1.00  0.00    -0.152 Cl 
HETATM   19  C   UNL     1      -8.693   2.501  64.652  1.00  0.00    -0.107 A  
HETATM   20  C   UNL     1      -9.807   3.196  64.163  1.00  0.00    -0.163 A  
ENDBRANCH   5  11
BRANCH   9  21
HETATM   21  C   UNL     1      -8.504   9.861  66.693  1.00  0.00    -0.126 A  
HETATM   22  C   UNL     1      -8.612   8.988  65.602  1.00  0.00    -0.187 A  
HETATM   23  C   UNL     1      -8.265   8.233  63.252  1.00  0.00    -0.095 C  
HETATM   24  C   UNL     1      -7.314  10.627  66.680  1.00  0.00    -0.129 A  
HETATM   25  C   UNL     1      -6.608   9.679  64.501  1.00  0.00    -0.102 A  
HETATM   26  C   UNL     1      -6.354  10.461  65.629  1.00  0.00    -0.126 A  
HETATM   27  C   UNL     1      -7.785   8.970  64.468  1.00  0.00    -0.116 A  
BRANCH  24  28
HETATM   28  N   UNL     1      -6.964  11.628  67.629  1.00  0.00    -0.087 NA 
HETATM   29  N   UNL     1      -6.310  11.370  68.793  1.00  0.00    -0.050 NA 
HETATM   30  C   UNL     1      -7.156  13.441  68.700  1.00  0.00    -0.106 A  
HETATM   31  C   UNL     1      -6.381  12.543  69.429  1.00  0.00    -0.114 A  
HETATM   32  N   UNL     1      -7.581  12.860  67.580  1.00  0.00    -0.155 NA 
ENDBRANCH  24  28
ENDBRANCH   9  21
TORSDOF 3
ENDMDL
MODEL      107
REMARK 921   NORMALIZED FREE ENERGY PREDICTED BY IDOCK:   -3.79 KCAL/MOL
REMARK 922        TOTAL FREE ENERGY PREDICTED BY IDOCK:   -6.08 KCAL/MOL
REMARK 923 INTER-LIGAND FREE ENERGY PREDICTED BY IDOCK:   -4.88 KCAL/MOL
REMARK 924 INTRA-LIGAND FREE ENERGY PREDICTED BY IDOCK:   -1.20 KCAL/MOL
REMARK 927      BINDING AFFINITY PREDICTED BY RF-SCORE:    0.00 PKD
ROOT
HETATM    1  C   UNL     1      -9.668   7.478  67.999  1.00  0.00    -0.146 C  
HETATM    2  C   UNL     1      -9.356   6.074  67.429  1.00  0.00    -0.111 C  
HETATM    3  C   UNL     1     -10.669   8.248  67.084  1.00  0.00    -0.240 C  
HETATM    4  C   UNL     1     -10.133   9.030  65.873  1.00  0.00     0.029 C  
HETATM    5  N   UNL     1      -9.203  10.086  66.232  1.00  0.00    -0.156 NA 
HETATM    6  C   UNL     1      -7.793   9.749  66.361  1.00  0.00    -0.106 C  
HETATM    7  O   UNL     1      -8.830   8.170  70.584  1.00  0.00    -0.135 OA 
HETATM    8  C   UNL     1      -7.566   8.445  67.143  1.00  0.00    -0.093 C  
HETATM    9  C   UNL     1      -8.219   8.725  69.656  1.00  0.00    -0.113 C  
HETATM   10  N   UNL     1      -8.434   8.259  68.314  1.00  0.00    -0.135 N  
ENDROOT
BRANCH   5  11
HETATM   11  C   UNL     1      -9.562  11.365  66.497  1.00  0.00    -0.198 A  
HETATM   12  N   UNL     1      -9.521  12.388  65.664  1.00  0.00    -0.110 NA 
HETATM   13  C   UNL     1     -10.247  13.030  67.688  1.00  0.00    -0.216 A  
HETATM   14  C   UNL     1     -10.690  13.869  68.701  1.00  0.00    -0.272 A  
HETATM   15  C   UNL     1      -9.976  14.820  66.098  1.00  0.00    -0.324 A  
HETATM   16  C   UNL     1      -9.908  13.458  66.416  1.00  0.00    -0.296 A  
HETATM   17  O   UNL     1     -10.035  11.680  67.746  1.00  0.00    -0.175 OA 
HETATM   18 CL   UNL     1     -10.402  17.392  66.790  1.00  0.00    -0.317 Cl 
HETATM   19  C   UNL     1     -10.729  15.235  68.382  1.00  0.00    -0.250 A  
HETATM   20  C   UNL     1     -10.375  15.700  67.109  1.00  0.00    -0.285 A  
ENDBRANCH   5  11
BRANCH   9  21
HETATM   21  C   UNL     1      -7.236   9.852  70.041  1.00  0.00    -0.146 A  
HETATM   22  C   UNL     1      -7.204  11.046  69.308  1.00  0.00    -0.124 A  
HETATM   23  C   UNL     1      -6.830  13.485  68.952  1.00  0.00    -0.111 C  
HETATM   24  C   UNL     1      -6.254   9.795  71.059  1.00  0.00    -0.058 A  
HETATM   25  C   UNL     1      -5.477  12.099  70.579  1.00  0.00    -0.158 A  
HETATM   26  C   UNL     1      -5.343  10.884  71.252  1.00  0.00    -0.042 A  
HETATM   27  C   UNL     1      -6.462  12.194  69.625  1.00  0.00    -0.082 A  
BRANCH  24  28
HETATM   28  N   UNL     1      -6.088   8.731  71.988  1.00  0.00    -0.070 NA 
HETATM   29  N   UNL     1      -6.563   8.758  73.262  1.00  0.00    -0.307 NA 
HETATM   30  C   UNL     1      -5.137   7.072  72.893  1.00  0.00    -0.037 A  
HETATM   31  C   UNL     1      -6.009   7.669  73.801  1.00  0.00    -0.064 A  
HETATM   32  N   UNL     1      -5.133   7.764  71.755  1.00  0.00    -0.034 NA 
ENDBRANCH  24  28
ENDBRANCH   9  21
TORSDOF 3
ENDMDL
MODEL      108
REMARK 921   NORMALIZED FREE ENERGY PREDICTED BY IDOCK:   -3.76 KCAL/MOL
REMARK 922        TOTAL FREE ENERGY PREDICTED BY IDOCK:   -6.05 KCAL/MOL
REMARK 923 INTER-LIGAND FREE ENERGY PREDICTED BY IDOCK:   -5.10 KCAL/MOL
REMARK 924 INTRA-LIGAND FREE ENERGY PREDICTED BY IDOCK:   -0.94 KCAL/MOL
REMARK 927      BINDING AFFINITY PREDICTED BY RF-SCORE:    0.00 PKD
ROOT
HETATM    1  C   UNL     1     -12.161   8.942  71.248  1.00  0.00    -0.299 C  
HETATM    2  C   UNL     1     -12.901   9.656  72.403  1.00  0.00    -0.315 C  
HETATM    3  C   UNL     1     -12.694   7.490  71.049  1.00  0.00    -0.201 C  
HETATM    4  C   UNL     1     -12.119   6.353  71.911  1.00  0.00    -0.310 C  
HETATM    5  N   UNL     1     -10.690   6.161  71.736  1.00  0.00    -0.234 NA 
HETATM    6  C   UNL     1      -9.782   6.948  72.558  1.00  0.00    -0.153 C  
HETATM    7  O   UNL     1     -10.467  10.393  69.548  1.00  0.00    -0.223 OA 
HETATM    8  C   UNL     1     -10.192   8.427  72.641  1.00  0.00    -0.249 C  
HETATM    9  C   UNL     1      -9.900   9.619  70.337  1.00  0.00    -0.256 C  
HETATM   10  N   UNL     1     -10.675   9.014  71.384  1.00  0.00    -0.303 N  
ENDROOT
BRANCH   5  11
HETATM   11  C   UNL     1     -10.136   5.324  70.826  1.00  0.00    -0.224 A  
HETATM   12  N   UNL     1     -10.369   5.300  69.527  1.00  0.00    -0.269 NA 
HETATM   13  C   UNL     1      -8.914   3.694  70.110  1.00  0.00    -0.111 A  
HETATM   14  C   UNL     1      -8.061   2.606  69.981  1.00  0.00    -0.056 A  
HETATM   15  C   UNL     1      -9.553   3.681  67.788  1.00  0.00    -0.189 A  
HETATM   16  C   UNL     1      -9.638   4.244  69.067  1.00  0.00    -0.170 A  
HETATM   17  O   UNL     1      -9.223   4.389  71.247  1.00  0.00    -0.124 OA 
HETATM   18 CL   UNL     1      -8.660   1.781  66.095  1.00  0.00    -0.107 Cl 
HETATM   19  C   UNL     1      -8.004   2.032  68.702  1.00  0.00    -0.061 A  
HETATM   20  C   UNL     1      -8.738   2.556  67.631  1.00  0.00    -0.115 A  
ENDBRANCH   5  11
BRANCH   9  21
HETATM   21  C   UNL     1      -8.382   9.411  70.143  1.00  0.00    -0.197 A  
HETATM   22  C   UNL     1      -7.523   9.387  71.250  1.00  0.00     0.108 A  
HETATM   23  C   UNL     1      -5.485   8.739  72.532  1.00  0.00    -0.060 C  
HETATM   24  C   UNL     1      -7.703   9.308  68.905  1.00  0.00    -0.079 A  
HETATM   25  C   UNL     1      -5.505   9.038  70.020  1.00  0.00    -0.028 A  
HETATM   26  C   UNL     1      -6.274   9.207  68.868  1.00  0.00    -0.044 A  
HETATM   27  C   UNL     1      -6.154   9.078  71.231  1.00  0.00    -0.062 A  
BRANCH  24  28
HETATM   28  N   UNL     1      -8.320   9.253  67.625  1.00  0.00    -0.115 NA 
HETATM   29  N   UNL     1      -8.547  10.346  66.848  1.00  0.00    -0.127 NA 
HETATM   30  C   UNL     1      -9.607   8.513  66.119  1.00  0.00    -0.206 A  
HETATM   31  C   UNL     1      -9.304   9.849  65.866  1.00  0.00    -0.192 A  
HETATM   32  N   UNL     1      -9.035   8.133  67.259  1.00  0.00    -0.136 NA 
ENDBRANCH  24  28
ENDBRANCH   9  21
TORSDOF 3
ENDMDL
MODEL      109
REMARK 921   NORMALIZED FREE ENERGY PREDICTED BY IDOCK:   -3.75 KCAL/MOL
REMARK 922        TOTAL FREE ENERGY PREDICTED BY IDOCK:   -6.03 KCAL/MOL
REMARK 923 INTER-LIGAND FREE ENERGY PREDICTED BY IDOCK:   -4.66 KCAL/MOL
REMARK 924 INTRA-LIGAND FREE ENERGY PREDICTED BY IDOCK:   -1.37 KCAL/MOL
REMARK 927      BINDING AFFINITY PREDICTED BY RF-SCORE:    0.00 PKD
ROOT
HETATM    1  C   UNL     1     -10.458   8.464  67.759  1.00  0.00    -0.220 C  
HETATM    2  C   UNL     1     -10.697   7.143  66.990  1.00  0.00    -0.420 C  
HETATM    3  C   UNL     1     -10.890   9.698  66.908  1.00  0.00    -0.106 C  
HETATM    4  C   UNL     1      -9.902  10.295  65.891  1.00  0.00    -0.237 C  
HETATM    5  N   UNL     1      -8.673  10.779  66.495  1.00  0.00    -0.146 NA 
HETATM    6  C   UNL     1      -7.577   9.838  66.677  1.00  0.00    -0.098 C  
HETATM    7  O   UNL     1      -9.788   8.409  70.481  1.00  0.00    -0.180 OA 
HETATM    8  C   UNL     1      -8.045   8.489  67.246  1.00  0.00    -0.105 C  
HETATM    9  C   UNL     1      -8.871   8.738  69.710  1.00  0.00    -0.142 C  
HETATM   10  N   UNL     1      -9.069   8.574  68.297  1.00  0.00    -0.139 N  
ENDROOT
BRANCH   5  11
HETATM   11  C   UNL     1      -8.486  12.044  66.940  1.00  0.00    -0.172 A  
HETATM   12  N   UNL     1      -7.348  12.714  66.967  1.00  0.00    -0.025 NA 
HETATM   13  C   UNL     1      -9.022  13.940  67.822  1.00  0.00    -0.188 A  
HETATM   14  C   UNL     1      -9.671  15.012  68.420  1.00  0.00    -0.216 A  
HETATM   15  C   UNL     1      -6.850  14.975  67.940  1.00  0.00    -0.172 A  
HETATM   16  C   UNL     1      -7.662  13.898  67.565  1.00  0.00    -0.179 A  
HETATM   17  O   UNL     1      -9.562  12.751  67.415  1.00  0.00    -0.191 OA 
HETATM   18 CL   UNL     1      -6.496  17.367  69.136  1.00  0.00    -0.229 Cl 
HETATM   19  C   UNL     1      -8.845  16.074  68.818  1.00  0.00    -0.227 A  
HETATM   20  C   UNL     1      -7.464  16.053  68.586  1.00  0.00    -0.166 A  
ENDBRANCH   5  11
BRANCH   9  21
HETATM   21  C   UNL     1      -7.568   9.259  70.355  1.00  0.00    -0.132 A  
HETATM   22  C   UNL     1      -7.072  10.528  70.026  1.00  0.00    -0.133 A  
HETATM   23  C   UNL     1      -5.826  12.652  70.414  1.00  0.00    -0.155 C  
HETATM   24  C   UNL     1      -6.725   8.540  71.236  1.00  0.00    -0.066 A  
HETATM   25  C   UNL     1      -5.146  10.441  71.436  1.00  0.00    -0.085 A  
HETATM   26  C   UNL     1      -5.493   9.113  71.691  1.00  0.00    -0.058 A  
HETATM   27  C   UNL     1      -5.982  11.174  70.629  1.00  0.00    -0.071 A  
BRANCH  24  28
HETATM   28  N   UNL     1      -6.999   7.254  71.778  1.00  0.00    -0.059 NA 
HETATM   29  N   UNL     1      -6.863   6.095  71.080  1.00  0.00    -0.065 NA 
HETATM   30  C   UNL     1      -7.955   5.831  73.017  1.00  0.00    -0.107 A  
HETATM   31  C   UNL     1      -7.410   5.196  71.904  1.00  0.00    -0.086 A  
HETATM   32  N   UNL     1      -7.752   7.144  72.928  1.00  0.00    -0.086 NA 
ENDBRANCH  24  28
ENDBRANCH   9  21
TORSDOF 3
ENDMDL
MODEL      110
REMARK 921   NORMALIZED FREE ENERGY PREDICTED BY IDOCK:   -3.74 KCAL/MOL
REMARK 922        TOTAL FREE ENERGY PREDICTED BY IDOCK:   -6.02 KCAL/MOL
REMARK 923 INTER-LIGAND FREE ENERGY PREDICTED BY IDOCK:   -4.65 KCAL/MOL
REMARK 924 INTRA-LIGAND FREE ENERGY PREDICTED BY IDOCK:   -1.37 KCAL/MOL
REMARK 927      BINDING AFFINITY PREDICTED BY RF-SCORE:    0.00 PKD
ROOT
HETATM    1  C   UNL     1      -9.992   5.906  72.933  1.00  0.00    -0.173 C  
HETATM    2  C   UNL     1     -10.152   6.447  74.373  1.00  0.00    -0.367 C  
HETATM    3  C   UNL     1      -8.796   4.909  72.835  1.00  0.00    -0.117 C  
HETATM    4  C   UNL     1      -7.375   5.457  72.618  1.00  0.00    -0.095 C  
HETATM    5  N   UNL     1      -7.227   6.207  71.382  1.00  0.00    -0.078 NA 
HETATM    6  C   UNL     1      -7.538   7.629  71.396  1.00  0.00    -0.080 C  
HETATM    7  O   UNL     1     -11.979   6.392  71.014  1.00  0.00    -0.333 OA 
HETATM    8  C   UNL     1      -8.844   7.941  72.145  1.00  0.00    -0.146 C  
HETATM    9  C   UNL     1     -10.916   7.015  70.856  1.00  0.00    -0.253 C  
HETATM   10  N   UNL     1      -9.942   6.994  71.910  1.00  0.00    -0.168 N  
ENDROOT
BRANCH   5  11
HETATM   11  C   UNL     1      -6.856   5.664  70.199  1.00  0.00    -0.053 A  
HETATM   12  N   UNL     1      -6.634   6.307  69.067  1.00  0.00    -0.046 NA 
HETATM   13  C   UNL     1      -6.357   4.097  68.800  1.00  0.00    -0.033 A  
HETATM   14  C   UNL     1      -6.108   2.888  68.165  1.00  0.00    -0.025 A  
HETATM   15  C   UNL     1      -6.133   5.394  66.782  1.00  0.00    -0.030 A  
HETATM   16  C   UNL     1      -6.363   5.325  68.161  1.00  0.00    -0.036 A  
HETATM   17  O   UNL     1      -6.666   4.308  70.116  1.00  0.00    -0.032 OA 
HETATM   18 CL   UNL     1      -5.711   4.214  64.393  1.00  0.00    -0.014 Cl 
HETATM   19  C   UNL     1      -5.905   2.963  66.778  1.00  0.00    -0.023 A  
HETATM   20  C   UNL     1      -5.922   4.189  66.102  1.00  0.00    -0.027 A  
ENDBRANCH   5  11
BRANCH   9  21
HETATM   21  C   UNL     1     -10.759   7.805  69.538  1.00  0.00    -0.200 A  
HETATM   22  C   UNL     1     -10.918   9.197  69.522  1.00  0.00    -0.138 A  
HETATM   23  C   UNL     1     -10.539  11.519  68.697  1.00  0.00    -0.236 C  
HETATM   24  C   UNL     1     -10.530   7.253  68.254  1.00  0.00    -0.199 A  
HETATM   25  C   UNL     1     -10.511   9.491  67.187  1.00  0.00    -0.322 A  
HETATM   26  C   UNL     1     -10.494   8.098  67.097  1.00  0.00    -0.396 A  
HETATM   27  C   UNL     1     -10.675  10.047  68.433  1.00  0.00    -0.271 A  
BRANCH  24  28
HETATM   28  N   UNL     1     -10.282   5.881  67.976  1.00  0.00    -0.166 NA 
HETATM   29  N   UNL     1     -10.021   4.951  68.932  1.00  0.00    -0.169 NA 
HETATM   30  C   UNL     1      -9.611   4.216  66.858  1.00  0.00    -0.209 A  
HETATM   31  C   UNL     1      -9.664   3.886  68.210  1.00  0.00    -0.051 A  
HETATM   32  N   UNL     1      -9.948   5.494  66.696  1.00  0.00    -0.168 NA 
ENDBRANCH  24  28
ENDBRANCH   9  21
TORSDOF 3
ENDMDL
MODEL      111
REMARK 921   NORMALIZED FREE ENERGY PREDICTED BY IDOCK:   -3.69 KCAL/MOL
REMARK 922        TOTAL FREE ENERGY PREDICTED BY IDOCK:   -5.96 KCAL/MOL
REMARK 923 INTER-LIGAND FREE ENERGY PREDICTED BY IDOCK:   -5.50 KCAL/MOL
REMARK 924 INTRA-LIGAND FREE ENERGY PREDICTED BY IDOCK:   -0.46 KCAL/MOL
REMARK 927      BINDING AFFINITY PREDICTED BY RF-SCORE:    0.00 PKD
ROOT
HETATM    1  C   UNL     1      -8.443   8.238  64.614  1.00  0.00    -0.051 C  
HETATM    2  C   UNL     1      -7.356   8.330  63.517  1.00  0.00    -0.108 C  
HETATM    3  C   UNL     1      -9.310   9.534  64.657  1.00  0.00    -0.201 C  
HETATM    4  C   UNL     1      -8.817  10.743  65.469  1.00  0.00    -0.190 C  
HETATM    5  N   UNL     1      -8.651  10.461  66.884  1.00  0.00    -0.127 NA 
HETATM    6  C   UNL     1      -7.378   9.916  67.335  1.00  0.00    -0.090 C  
HETATM    7  O   UNL     1      -8.937   5.801  65.910  1.00  0.00    -0.154 OA 
HETATM    8  C   UNL     1      -6.862   8.790  66.424  1.00  0.00    -0.075 C  
HETATM    9  C   UNL     1      -8.374   6.668  66.597  1.00  0.00    -0.117 C  
HETATM   10  N   UNL     1      -7.887   7.853  65.946  1.00  0.00    -0.096 N  
ENDROOT
BRANCH   5  11
HETATM   11  C   UNL     1      -9.618  10.632  67.817  1.00  0.00    -0.157 A  
HETATM   12  N   UNL     1     -10.180  11.772  68.175  1.00  0.00    -0.196 NA 
HETATM   13  C   UNL     1     -11.007  10.061  69.367  1.00  0.00    -0.244 A  
HETATM   14  C   UNL     1     -11.764   9.386  70.316  1.00  0.00    -0.127 A  
HETATM   15  C   UNL     1     -11.831  12.231  70.012  1.00  0.00    -0.372 A  
HETATM   16  C   UNL     1     -11.028  11.433  69.187  1.00  0.00    -0.236 A  
HETATM   17  O   UNL     1     -10.106   9.536  68.482  1.00  0.00    -0.166 OA 
HETATM   18 CL   UNL     1     -13.515  12.533  72.097  1.00  0.00    -0.611 Cl 
HETATM   19  C   UNL     1     -12.543  10.196  71.156  1.00  0.00    -0.486 A  
HETATM   20  C   UNL     1     -12.572  11.588  71.009  1.00  0.00    -0.357 A  
ENDBRANCH   5  11
BRANCH   9  21
HETATM   21  C   UNL     1      -8.205   6.368  68.102  1.00  0.00    -0.116 A  
HETATM   22  C   UNL     1      -8.056   7.415  69.022  1.00  0.00    -0.127 A  
HETATM   23  C   UNL     1      -8.235   8.532  71.243  1.00  0.00    -0.176 C  
HETATM   24  C   UNL     1      -8.105   5.086  68.693  1.00  0.00    -0.085 A  
HETATM   25  C   UNL     1      -7.874   6.044  70.968  1.00  0.00    -0.111 A  
HETATM   26  C   UNL     1      -7.859   4.952  70.099  1.00  0.00    -0.066 A  
HETATM   27  C   UNL     1      -8.027   7.294  70.419  1.00  0.00    -0.104 A  
BRANCH  24  28
HETATM   28  N   UNL     1      -8.267   3.847  68.015  1.00  0.00    -0.091 NA 
HETATM   29  N   UNL     1      -9.354   3.043  68.159  1.00  0.00    -0.203 NA 
HETATM   30  C   UNL     1      -7.660   2.046  67.086  1.00  0.00    -0.061 A  
HETATM   31  C   UNL     1      -8.982   1.936  67.510  1.00  0.00    -0.141 A  
HETATM   32  N   UNL     1      -7.173   3.232  67.445  1.00  0.00    -0.058 NA 
ENDBRANCH  24  28
ENDBRANCH   9  21
TORSDOF 3
ENDMDL
MODEL      112
REMARK 921   NORMALIZED FREE ENERGY PREDICTED BY IDOCK:   -3.65 KCAL/MOL
REMARK 922        TOTAL FREE ENERGY PREDICTED BY IDOCK:   -5.92 KCAL/MOL
REMARK 923 INTER-LIGAND FREE ENERGY PREDICTED BY IDOCK:   -4.46 KCAL/MOL
REMARK 924 INTRA-LIGAND FREE ENERGY PREDICTED BY IDOCK:   -1.46 KCAL/MOL
REMARK 927      BINDING AFFINITY PREDICTED BY RF-SCORE:    0.00 PKD
ROOT
HETATM    1  C   UNL     1      -6.644   7.793  71.974  1.00  0.00    -0.056 C  
HETATM    2  C   UNL     1      -6.983   8.136  73.443  1.00  0.00    -0.152 C  
HETATM    3  C   UNL     1      -5.611   8.802  71.384  1.00  0.00    -0.042 C  
HETATM    4  C   UNL     1      -6.111  10.132  70.793  1.00  0.00    -0.084 C  
HETATM    5  N   UNL     1      -7.019   9.962  69.673  1.00  0.00    -0.074 NA 
HETATM    6  C   UNL     1      -8.439   9.806  69.953  1.00  0.00    -0.201 C  
HETATM    7  O   UNL     1      -7.499   5.368  70.857  1.00  0.00    -0.082 OA 
HETATM    8  C   UNL     1      -8.709   8.829  71.109  1.00  0.00    -0.212 C  
HETATM    9  C   UNL     1      -8.084   6.383  70.444  1.00  0.00    -0.117 C  
HETATM   10  N   UNL     1      -7.862   7.628  71.125  1.00  0.00    -0.088 N  
ENDROOT
BRANCH   5  11
HETATM   11  C   UNL     1      -6.631   9.899  68.377  1.00  0.00    -0.055 A  
HETATM   12  N   UNL     1      -6.202  10.899  67.628  1.00  0.00    -0.051 NA 
HETATM   13  C   UNL     1      -6.266   8.988  66.454  1.00  0.00    -0.064 A  
HETATM   14  C   UNL     1      -6.159   8.127  65.370  1.00  0.00    -0.045 A  
HETATM   15  C   UNL     1      -5.644  10.936  65.180  1.00  0.00    -0.011 A  
HETATM   16  C   UNL     1      -6.011  10.347  66.396  1.00  0.00    -0.075 A  
HETATM   17  O   UNL     1      -6.659   8.689  67.730  1.00  0.00    -0.060 OA 
HETATM   18 CL   UNL     1      -5.197  10.794  62.524  1.00  0.00    -0.151 Cl 
HETATM   19  C   UNL     1      -5.817   8.729  64.150  1.00  0.00    -0.070 A  
HETATM   20  C   UNL     1      -5.570  10.105  64.057  1.00  0.00    -0.126 A  
ENDBRANCH   5  11
BRANCH   9  21
HETATM   21  C   UNL     1      -9.043   6.200  69.248  1.00  0.00    -0.129 A  
HETATM   22  C   UNL     1      -8.538   6.060  67.949  1.00  0.00    -0.113 A  
HETATM   23  C   UNL     1      -8.542   5.284  65.579  1.00  0.00    -0.146 C  
HETATM   24  C   UNL     1     -10.457   6.231  69.298  1.00  0.00    -0.244 A  
HETATM   25  C   UNL     1     -10.651   5.849  66.856  1.00  0.00    -0.384 A  
HETATM   26  C   UNL     1     -11.228   6.138  68.094  1.00  0.00    -0.166 A  
HETATM   27  C   UNL     1      -9.281   5.758  66.798  1.00  0.00    -0.135 A  
BRANCH  24  28
HETATM   28  N   UNL     1     -11.242   6.312  70.481  1.00  0.00    -0.337 NA 
HETATM   29  N   UNL     1     -12.130   7.310  70.733  1.00  0.00    -0.283 NA 
HETATM   30  C   UNL     1     -11.708   6.038  72.526  1.00  0.00    -0.232 A  
HETATM   31  C   UNL     1     -12.466   7.084  72.006  1.00  0.00    -0.244 A  
HETATM   32  N   UNL     1     -10.886   5.571  71.588  1.00  0.00    -0.233 NA 
ENDBRANCH  24  28
ENDBRANCH   9  21
TORSDOF 3
ENDMDL
MODEL      113
REMARK 921   NORMALIZED FREE ENERGY PREDICTED BY IDOCK:   -3.65 KCAL/MOL
REMARK 922        TOTAL FREE ENERGY PREDICTED BY IDOCK:   -5.92 KCAL/MOL
REMARK 923 INTER-LIGAND FREE ENERGY PREDICTED BY IDOCK:   -4.59 KCAL/MOL
REMARK 924 INTRA-LIGAND FREE ENERGY PREDICTED BY IDOCK:   -1.33 KCAL/MOL
REMARK 927      BINDING AFFINITY PREDICTED BY RF-SCORE:    0.00 PKD
ROOT
HETATM    1  C   UNL     1      -6.187   7.078  67.102  1.00  0.00    -0.044 C  
HETATM    2  C   UNL     1      -5.829   7.556  65.676  1.00  0.00    -0.037 C  
HETATM    3  C   UNL     1      -6.213   5.521  67.186  1.00  0.00    -0.031 C  
HETATM    4  C   UNL     1      -7.491   4.766  66.783  1.00  0.00    -0.086 C  
HETATM    5  N   UNL     1      -8.647   5.116  67.589  1.00  0.00    -0.105 NA 
HETATM    6  C   UNL     1      -9.454   6.257  67.181  1.00  0.00    -0.124 C  
HETATM    7  O   UNL     1      -6.263   8.909  69.225  1.00  0.00    -0.041 OA 
HETATM    8  C   UNL     1      -8.600   7.471  66.781  1.00  0.00    -0.127 C  
HETATM    9  C   UNL     1      -7.366   8.480  68.848  1.00  0.00    -0.086 C  
HETATM   10  N   UNL     1      -7.428   7.720  67.631  1.00  0.00    -0.102 N  
ENDROOT
BRANCH   5  11
HETATM   11  C   UNL     1      -9.009   4.476  68.727  1.00  0.00    -0.111 A  
HETATM   12  N   UNL     1      -9.808   4.932  69.673  1.00  0.00    -0.200 NA 
HETATM   13  C   UNL     1      -9.034   2.891  70.193  1.00  0.00    -0.103 A  
HETATM   14  C   UNL     1      -8.823   1.731  70.926  1.00  0.00    -0.114 A  
HETATM   15  C   UNL     1     -10.391   3.921  71.897  1.00  0.00    -0.065 A  
HETATM   16  C   UNL     1      -9.798   3.960  70.629  1.00  0.00    -0.122 A  
HETATM   17  O   UNL     1      -8.529   3.212  68.963  1.00  0.00    -0.059 OA 
HETATM   18 CL   UNL     1     -10.807   2.722  74.277  1.00  0.00    -0.212 Cl 
HETATM   19  C   UNL     1      -9.399   1.712  72.206  1.00  0.00    -0.130 A  
HETATM   20  C   UNL     1     -10.162   2.786  72.681  1.00  0.00    -0.160 A  
ENDBRANCH   5  11
BRANCH   9  21
HETATM   21  C   UNL     1      -8.592   8.847  69.712  1.00  0.00    -0.134 A  
HETATM   22  C   UNL     1      -9.526   9.786  69.254  1.00  0.00    -0.201 A  
HETATM   23  C   UNL     1     -11.772  10.851  69.062  1.00  0.00    -0.391 C  
HETATM   24  C   UNL     1      -8.866   8.376  71.018  1.00  0.00    -0.161 A  
HETATM   25  C   UNL     1     -10.963   9.691  71.160  1.00  0.00    -0.430 A  
HETATM   26  C   UNL     1      -9.998   8.870  71.745  1.00  0.00    -0.397 A  
HETATM   27  C   UNL     1     -10.743  10.113  69.870  1.00  0.00    -0.340 A  
BRANCH  24  28
HETATM   28  N   UNL     1      -8.121   7.384  71.714  1.00  0.00    -0.101 NA 
HETATM   29  N   UNL     1      -7.304   6.486  71.102  1.00  0.00    -0.079 NA 
HETATM   30  C   UNL     1      -7.696   5.996  73.252  1.00  0.00    -0.101 A  
HETATM   31  C   UNL     1      -6.990   5.655  72.100  1.00  0.00    -0.081 A  
HETATM   32  N   UNL     1      -8.460   7.059  73.009  1.00  0.00    -0.113 NA 
ENDBRANCH  24  28
ENDBRANCH   9  21
TORSDOF 3
ENDMDL
MODEL      114
REMARK 921   NORMALIZED FREE ENERGY PREDICTED BY IDOCK:   -3.63 KCAL/MOL
REMARK 922        TOTAL FREE ENERGY PREDICTED BY IDOCK:   -5.89 KCAL/MOL
REMARK 923 INTER-LIGAND FREE ENERGY PREDICTED BY IDOCK:   -4.39 KCAL/MOL
REMARK 924 INTRA-LIGAND FREE ENERGY PREDICTED BY IDOCK:   -1.50 KCAL/MOL
REMARK 927      BINDING AFFINITY PREDICTED BY RF-SCORE:    0.00 PKD
ROOT
HETATM    1  C   UNL     1      -6.040  12.069  67.871  1.00  0.00    -0.062 C  
HETATM    2  C   UNL     1      -5.142  12.579  66.720  1.00  0.00     0.418 C  
HETATM    3  C   UNL     1      -5.775  10.561  68.169  1.00  0.00    -0.043 C  
HETATM    4  C   UNL     1      -6.502   9.490  67.338  1.00  0.00    -0.069 C  
HETATM    5  N   UNL     1      -7.948   9.555  67.451  1.00  0.00    -0.106 NA 
HETATM    6  C   UNL     1      -8.673  10.436  66.546  1.00  0.00    -0.136 C  
HETATM    7  O   UNL     1      -7.526  13.883  69.410  1.00  0.00     0.026 OA 
HETATM    8  C   UNL     1      -8.010  11.816  66.409  1.00  0.00     0.065 C  
HETATM    9  C   UNL     1      -8.186  13.173  68.633  1.00  0.00    -0.000 C  
HETATM   10  N   UNL     1      -7.485  12.385  67.658  1.00  0.00    -0.126 N  
ENDROOT
BRANCH   5  11
HETATM   11  C   UNL     1      -8.675   8.878  68.373  1.00  0.00    -0.134 A  
HETATM   12  N   UNL     1      -8.647   9.047  69.682  1.00  0.00    -0.131 NA 
HETATM   13  C   UNL     1     -10.068   7.405  69.114  1.00  0.00    -0.189 A  
HETATM   14  C   UNL     1     -10.980   6.369  69.263  1.00  0.00    -0.418 A  
HETATM   15  C   UNL     1      -9.797   7.730  71.486  1.00  0.00    -0.200 A  
HETATM   16  C   UNL     1      -9.489   8.091  70.168  1.00  0.00    -0.160 A  
HETATM   17  O   UNL     1      -9.554   7.913  67.952  1.00  0.00    -0.143 OA 
HETATM   18 CL   UNL     1     -11.030   6.131  73.273  1.00  0.00    -0.261 Cl 
HETATM   19  C   UNL     1     -11.262   5.997  70.586  1.00  0.00    -0.347 A  
HETATM   20  C   UNL     1     -10.679   6.661  71.673  1.00  0.00    -0.229 A  
ENDBRANCH   5  11
BRANCH   9  21
HETATM   21  C   UNL     1      -9.723  13.238  68.761  1.00  0.00     0.024 A  
HETATM   22  C   UNL     1     -10.440  12.146  69.268  1.00  0.00     0.120 A  
HETATM   23  C   UNL     1     -12.330  11.008  70.430  1.00  0.00    -0.442 C  
HETATM   24  C   UNL     1     -10.553  14.303  68.336  1.00  0.00    -0.253 A  
HETATM   25  C   UNL     1     -12.606  13.135  69.088  1.00  0.00     0.481 A  
HETATM   26  C   UNL     1     -11.979  14.195  68.432  1.00  0.00    -0.366 A  
HETATM   27  C   UNL     1     -11.812  12.117  69.559  1.00  0.00    -0.386 A  
BRANCH  24  28
HETATM   28  N   UNL     1     -10.102  15.553  67.830  1.00  0.00    -0.223 NA 
HETATM   29  N   UNL     1     -10.198  16.724  68.514  1.00  0.00    -0.278 NA 
HETATM   30  C   UNL     1      -9.652  17.007  66.361  1.00  0.00    -0.282 A  
HETATM   31  C   UNL     1      -9.846  17.626  67.594  1.00  0.00    -0.294 A  
HETATM   32  N   UNL     1      -9.863  15.698  66.480  1.00  0.00    -0.247 NA 
ENDBRANCH  24  28
ENDBRANCH   9  21
TORSDOF 3
ENDMDL
MODEL      115
REMARK 921   NORMALIZED FREE ENERGY PREDICTED BY IDOCK:   -3.61 KCAL/MOL
REMARK 922        TOTAL FREE ENERGY PREDICTED BY IDOCK:   -5.87 KCAL/MOL
REMARK 923 INTER-LIGAND FREE ENERGY PREDICTED BY IDOCK:   -4.69 KCAL/MOL
REMARK 924 INTRA-LIGAND FREE ENERGY PREDICTED BY IDOCK:   -1.18 KCAL/MOL
REMARK 927      BINDING AFFINITY PREDICTED BY RF-SCORE:    0.00 PKD
ROOT
HETATM    1  C   UNL     1      -6.747   4.266  64.905  1.00  0.00    -0.048 C  
HETATM    2  C   UNL     1      -6.705   3.890  63.405  1.00  0.00    -0.039 C  
HETATM    3  C   UNL     1      -7.064   3.020  65.789  1.00  0.00    -0.062 C  
HETATM    4  C   UNL     1      -8.529   2.610  66.013  1.00  0.00    -0.098 C  
HETATM    5  N   UNL     1      -9.324   3.635  66.665  1.00  0.00    -0.183 NA 
HETATM    6  C   UNL     1      -9.963   4.646  65.834  1.00  0.00    -0.239 C  
HETATM    7  O   UNL     1      -5.864   6.789  65.753  1.00  0.00    -0.032 OA 
HETATM    8  C   UNL     1      -9.024   5.200  64.751  1.00  0.00    -0.056 C  
HETATM    9  C   UNL     1      -7.091   6.605  65.805  1.00  0.00    -0.061 C  
HETATM   10  N   UNL     1      -7.638   5.432  65.182  1.00  0.00    -0.077 N  
ENDROOT
BRANCH   5  11
HETATM   11  C   UNL     1      -9.482   3.743  68.006  1.00  0.00    -0.164 A  
HETATM   12  N   UNL     1      -9.145   2.849  68.917  1.00  0.00    -0.132 NA 
HETATM   13  C   UNL     1     -10.097   4.645  69.869  1.00  0.00    -0.187 A  
HETATM   14  C   UNL     1     -10.613   5.467  70.861  1.00  0.00    -0.309 A  
HETATM   15  C   UNL     1      -9.563   2.859  71.394  1.00  0.00    -0.223 A  
HETATM   16  C   UNL     1      -9.570   3.385  70.097  1.00  0.00    -0.140 A  
HETATM   17  O   UNL     1     -10.036   4.887  68.524  1.00  0.00    -0.145 OA 
HETATM   18 CL   UNL     1     -10.201   3.008  74.011  1.00  0.00    -0.182 Cl 
HETATM   19  C   UNL     1     -10.627   4.921  72.153  1.00  0.00    -0.232 A  
HETATM   20  C   UNL     1     -10.117   3.642  72.412  1.00  0.00    -0.163 A  
ENDBRANCH   5  11
BRANCH   9  21
HETATM   21  C   UNL     1      -7.933   7.694  66.506  1.00  0.00    -0.106 A  
HETATM   22  C   UNL     1      -8.132   7.653  67.892  1.00  0.00    -0.123 A  
HETATM   23  C   UNL     1      -8.553   8.606  70.157  1.00  0.00    -0.138 C  
HETATM   24  C   UNL     1      -8.629   8.750  65.872  1.00  0.00    -0.154 A  
HETATM   25  C   UNL     1      -9.473   9.624  68.032  1.00  0.00    -0.146 A  
HETATM   26  C   UNL     1      -9.449   9.642  66.637  1.00  0.00    -0.221 A  
HETATM   27  C   UNL     1      -8.757   8.639  68.670  1.00  0.00    -0.138 A  
BRANCH  24  28
HETATM   28  N   UNL     1      -8.571   9.065  64.486  1.00  0.00    -0.176 NA 
HETATM   29  N   UNL     1      -7.684   8.506  63.620  1.00  0.00    -0.134 NA 
HETATM   30  C   UNL     1      -8.762  10.268  62.757  1.00  0.00    -0.207 A  
HETATM   31  C   UNL     1      -7.864   9.232  62.514  1.00  0.00    -0.120 A  
HETATM   32  N   UNL     1      -9.180  10.210  64.020  1.00  0.00    -0.253 NA 
ENDBRANCH  24  28
ENDBRANCH   9  21
TORSDOF 3
ENDMDL
MODEL      116
REMARK 921   NORMALIZED FREE ENERGY PREDICTED BY IDOCK:   -3.58 KCAL/MOL
REMARK 922        TOTAL FREE ENERGY PREDICTED BY IDOCK:   -5.83 KCAL/MOL
REMARK 923 INTER-LIGAND FREE ENERGY PREDICTED BY IDOCK:   -4.45 KCAL/MOL
REMARK 924 INTRA-LIGAND FREE ENERGY PREDICTED BY IDOCK:   -1.38 KCAL/MOL
REMARK 927      BINDING AFFINITY PREDICTED BY RF-SCORE:    0.00 PKD
ROOT
HETATM    1  C   UNL     1      -9.163   6.949  72.191  1.00  0.00    -0.135 C  
HETATM    2  C   UNL     1      -9.881   5.845  73.002  1.00  0.00    -0.178 C  
HETATM    3  C   UNL     1      -9.969   8.283  72.218  1.00  0.00    -0.366 C  
HETATM    4  C   UNL     1     -11.105   8.497  71.203  1.00  0.00    -0.260 C  
HETATM    5  N   UNL     1     -10.661   8.458  69.821  1.00  0.00    -0.222 NA 
HETATM    6  C   UNL     1     -10.601   7.167  69.151  1.00  0.00    -0.214 C  
HETATM    7  O   UNL     1      -6.541   6.550  71.281  1.00  0.00    -0.048 OA 
HETATM    8  C   UNL     1      -9.963   6.076  70.028  1.00  0.00    -0.177 C  
HETATM    9  C   UNL     1      -7.420   6.534  70.404  1.00  0.00    -0.094 C  
HETATM   10  N   UNL     1      -8.797   6.506  70.812  1.00  0.00    -0.143 N  
ENDROOT
BRANCH   5  11
HETATM   11  C   UNL     1     -10.256   9.542  69.117  1.00  0.00    -0.201 A  
HETATM   12  N   UNL     1      -9.469  10.514  69.541  1.00  0.00    -0.139 NA 
HETATM   13  C   UNL     1     -10.138  10.886  67.431  1.00  0.00    -0.191 A  
HETATM   14  C   UNL     1     -10.284  11.533  66.212  1.00  0.00    -0.268 A  
HETATM   15  C   UNL     1      -8.813  12.652  68.398  1.00  0.00    -0.119 A  
HETATM   16  C   UNL     1      -9.422  11.395  68.502  1.00  0.00    -0.183 A  
HETATM   17  O   UNL     1     -10.672   9.687  67.817  1.00  0.00    -0.258 OA 
HETATM   18 CL   UNL     1      -8.314  14.933  67.048  1.00  0.00    -0.246 Cl 
HETATM   19  C   UNL     1      -9.695  12.803  66.126  1.00  0.00    -0.246 A  
HETATM   20  C   UNL     1      -8.979  13.352  67.198  1.00  0.00    -0.226 A  
ENDBRANCH   5  11
BRANCH   9  21
HETATM   21  C   UNL     1      -6.944   6.500  68.936  1.00  0.00    -0.079 A  
HETATM   22  C   UNL     1      -6.948   7.668  68.162  1.00  0.00    -0.075 A  
HETATM   23  C   UNL     1      -6.181   9.195  66.346  1.00  0.00    -0.065 C  
HETATM   24  C   UNL     1      -6.548   5.350  68.211  1.00  0.00    -0.049 A  
HETATM   25  C   UNL     1      -6.098   6.673  66.164  1.00  0.00    -0.033 A  
HETATM   26  C   UNL     1      -6.214   5.448  66.821  1.00  0.00    -0.035 A  
HETATM   27  C   UNL     1      -6.423   7.808  66.868  1.00  0.00    -0.055 A  
BRANCH  24  28
HETATM   28  N   UNL     1      -6.402   4.042  68.750  1.00  0.00    -0.032 NA 
HETATM   29  N   UNL     1      -5.471   3.709  69.683  1.00  0.00    -0.015 NA 
HETATM   30  C   UNL     1      -6.472   1.928  68.766  1.00  0.00    -0.029 A  
HETATM   31  C   UNL     1      -5.574   2.378  69.731  1.00  0.00    -0.017 A  
HETATM   32  N   UNL     1      -6.967   2.968  68.097  1.00  0.00    -0.048 NA 
ENDBRANCH  24  28
ENDBRANCH   9  21
TORSDOF 3
ENDMDL
MODEL      117
REMARK 921   NORMALIZED FREE ENERGY PREDICTED BY IDOCK:   -3.56 KCAL/MOL
REMARK 922        TOTAL FREE ENERGY PREDICTED BY IDOCK:   -5.81 KCAL/MOL
REMARK 923 INTER-LIGAND FREE ENERGY PREDICTED BY IDOCK:   -4.89 KCAL/MOL
REMARK 924 INTRA-LIGAND FREE ENERGY PREDICTED BY IDOCK:   -0.92 KCAL/MOL
REMARK 927      BINDING AFFINITY PREDICTED BY RF-SCORE:    0.00 PKD
ROOT
HETATM    1  C   UNL     1      -6.239  11.229  67.635  1.00  0.00    -0.055 C  
HETATM    2  C   UNL     1      -5.885  12.550  66.913  1.00  0.00     0.302 C  
HETATM    3  C   UNL     1      -5.648   9.998  66.880  1.00  0.00    -0.046 C  
HETATM    4  C   UNL     1      -6.435   9.384  65.709  1.00  0.00    -0.069 C  
HETATM    5  N   UNL     1      -7.745   8.886  66.091  1.00  0.00    -0.097 NA 
HETATM    6  C   UNL     1      -8.868   9.813  66.073  1.00  0.00    -0.147 C  
HETATM    7  O   UNL     1      -7.376  11.282  70.198  1.00  0.00     0.170 OA 
HETATM    8  C   UNL     1      -8.524  11.170  66.708  1.00  0.00    -0.153 C  
HETATM    9  C   UNL     1      -8.139  10.939  69.280  1.00  0.00    -0.055 C  
HETATM   10  N   UNL     1      -7.699  11.102  67.922  1.00  0.00    -0.102 N  
ENDROOT
BRANCH   5  11
HETATM   11  C   UNL     1      -7.991   7.620  66.503  1.00  0.00    -0.106 A  
HETATM   12  N   UNL     1      -7.204   6.861  67.243  1.00  0.00    -0.087 NA 
HETATM   13  C   UNL     1      -9.075   5.761  66.674  1.00  0.00    -0.132 A  
HETATM   14  C   UNL     1      -9.990   4.721  66.574  1.00  0.00    -0.262 A  
HETATM   15  C   UNL     1      -7.469   4.452  67.903  1.00  0.00    -0.069 A  
HETATM   16  C   UNL     1      -7.855   5.665  67.321  1.00  0.00    -0.101 A  
HETATM   17  O   UNL     1      -9.174   7.021  66.151  1.00  0.00    -0.152 OA 
HETATM   18 CL   UNL     1      -7.883   1.836  68.413  1.00  0.00    -0.052 Cl 
HETATM   19  C   UNL     1      -9.582   3.501  67.135  1.00  0.00    -0.160 A  
HETATM   20  C   UNL     1      -8.347   3.369  67.781  1.00  0.00    -0.085 A  
ENDBRANCH   5  11
BRANCH   9  21
HETATM   21  C   UNL     1      -9.529  10.402  69.689  1.00  0.00    -0.118 A  
HETATM   22  C   UNL     1      -9.639   9.297  70.542  1.00  0.00    -0.317 A  
HETATM   23  C   UNL     1     -10.720   7.852  72.262  1.00  0.00    -0.344 C  
HETATM   24  C   UNL     1     -10.778  10.875  69.221  1.00  0.00    -0.231 A  
HETATM   25  C   UNL     1     -12.026   9.224  70.587  1.00  0.00    -0.206 A  
HETATM   26  C   UNL     1     -11.993  10.225  69.615  1.00  0.00    -0.130 A  
HETATM   27  C   UNL     1     -10.825   8.791  71.096  1.00  0.00    -0.335 A  
BRANCH  24  28
HETATM   28  N   UNL     1     -10.974  12.011  68.388  1.00  0.00    -0.222 NA 
HETATM   29  N   UNL     1     -10.675  13.283  68.761  1.00  0.00    -0.246 NA 
HETATM   30  C   UNL     1     -11.891  13.182  66.884  1.00  0.00    -0.386 A  
HETATM   31  C   UNL     1     -11.200  14.007  67.769  1.00  0.00    -0.281 A  
HETATM   32  N   UNL     1     -11.804  11.917  67.291  1.00  0.00    -0.612 NA 
ENDBRANCH  24  28
ENDBRANCH   9  21
TORSDOF 3
ENDMDL
MODEL      118
REMARK 921   NORMALIZED FREE ENERGY PREDICTED BY IDOCK:   -3.42 KCAL/MOL
REMARK 922        TOTAL FREE ENERGY PREDICTED BY IDOCK:   -5.64 KCAL/MOL
REMARK 923 INTER-LIGAND FREE ENERGY PREDICTED BY IDOCK:   -4.56 KCAL/MOL
REMARK 924 INTRA-LIGAND FREE ENERGY PREDICTED BY IDOCK:   -1.08 KCAL/MOL
REMARK 927      BINDING AFFINITY PREDICTED BY RF-SCORE:    0.00 PKD
ROOT
HETATM    1  C   UNL     1     -11.987  15.976  70.352  1.00  0.00    -0.224 C  
HETATM    2  C   UNL     1     -12.127  16.228  71.872  1.00  0.00    -0.447 C  
HETATM    3  C   UNL     1     -12.741  14.680  69.924  1.00  0.00    -0.126 C  
HETATM    4  C   UNL     1     -12.034  13.319  70.055  1.00  0.00    -0.329 C  
HETATM    5  N   UNL     1     -10.820  13.220  69.264  1.00  0.00    -0.097 NA 
HETATM    6  C   UNL     1      -9.572  13.679  69.856  1.00  0.00     1.911 C  
HETATM    7  O   UNL     1     -10.899  17.954  68.688  1.00  0.00    -0.120 OA 
HETATM    8  C   UNL     1      -9.720  15.029  70.576  1.00  0.00     0.790 C  
HETATM    9  C   UNL     1     -10.180  16.959  68.879  1.00  0.00    -0.314 C  
HETATM   10  N   UNL     1     -10.567  16.015  69.890  1.00  0.00    -0.310 N  
ENDROOT
BRANCH   5  11
HETATM   11  C   UNL     1     -10.773  12.763  67.990  1.00  0.00    -0.230 A  
HETATM   12  N   UNL     1      -9.740  12.204  67.387  1.00  0.00    -0.178 NA 
HETATM   13  C   UNL     1     -11.490  12.368  65.992  1.00  0.00    -0.382 A  
HETATM   14  C   UNL     1     -12.229  12.274  64.821  1.00  0.00    -0.438 A  
HETATM   15  C   UNL     1      -9.478  11.501  64.990  1.00  0.00    -0.174 A  
HETATM   16  C   UNL     1     -10.163  11.990  66.109  1.00  0.00    -0.226 A  
HETATM   17  O   UNL     1     -11.893  12.860  67.203  1.00  0.00    -0.365 OA 
HETATM   18 CL   UNL     1      -9.359  10.912  62.361  1.00  0.00    -0.285 Cl 
HETATM   19  C   UNL     1     -11.527  11.809  63.698  1.00  0.00    -0.524 A  
HETATM   20  C   UNL     1     -10.180  11.435  63.782  1.00  0.00    -0.382 A  
ENDBRANCH   5  11
BRANCH   9  21
HETATM   21  C   UNL     1      -8.893  16.853  68.032  1.00  0.00    -0.216 A  
HETATM   22  C   UNL     1      -7.639  17.070  68.616  1.00  0.00    -0.238 A  
HETATM   23  C   UNL     1      -5.174  16.799  68.875  1.00  0.00    -0.124 C  
HETATM   24  C   UNL     1      -8.828  16.619  66.637  1.00  0.00    -0.248 A  
HETATM   25  C   UNL     1      -6.350  16.708  66.638  1.00  0.00    -0.071 A  
HETATM   26  C   UNL     1      -7.566  16.634  65.957  1.00  0.00     0.120 A  
HETATM   27  C   UNL     1      -6.392  16.878  68.001  1.00  0.00    -0.151 A  
BRANCH  24  28
HETATM   28  N   UNL     1      -9.934  16.318  65.796  1.00  0.00    -0.440 NA 
HETATM   29  N   UNL     1     -10.081  15.139  65.134  1.00  0.00    -0.332 NA 
HETATM   30  C   UNL     1     -11.517  16.715  64.451  1.00  0.00     0.296 A  
HETATM   31  C   UNL     1     -11.126  15.383  64.338  1.00  0.00    -0.132 A  
HETATM   32  N   UNL     1     -10.737  17.338  65.332  1.00  0.00    -0.573 NA 
ENDBRANCH  24  28
ENDBRANCH   9  21
TORSDOF 3
ENDMDL
MODEL      119
REMARK 921   NORMALIZED FREE ENERGY PREDICTED BY IDOCK:   -3.40 KCAL/MOL
REMARK 922        TOTAL FREE ENERGY PREDICTED BY IDOCK:   -5.62 KCAL/MOL
REMARK 923 INTER-LIGAND FREE ENERGY PREDICTED BY IDOCK:   -5.57 KCAL/MOL
REMARK 924 INTRA-LIGAND FREE ENERGY PREDICTED BY IDOCK:   -0.04 KCAL/MOL
REMARK 927      BINDING AFFINITY PREDICTED BY RF-SCORE:    0.00 PKD
ROOT
HETATM    1  C   UNL     1      -9.039   4.866  66.492  1.00  0.00    -0.124 C  
HETATM    2  C   UNL     1      -9.830   3.868  65.614  1.00  0.00    -0.149 C  
HETATM    3  C   UNL     1      -8.674   4.236  67.871  1.00  0.00    -0.119 C  
HETATM    4  C   UNL     1      -9.700   4.285  69.016  1.00  0.00    -0.139 C  
HETATM    5  N   UNL     1     -10.069   5.635  69.405  1.00  0.00    -0.201 NA 
HETATM    6  C   UNL     1     -11.160   6.285  68.693  1.00  0.00    -0.325 C  
HETATM    7  O   UNL     1      -8.071   7.255  65.389  1.00  0.00    -0.122 OA 
HETATM    8  C   UNL     1     -11.068   6.093  67.170  1.00  0.00    -0.242 C  
HETATM    9  C   UNL     1      -9.023   7.376  66.177  1.00  0.00    -0.149 C  
HETATM   10  N   UNL     1      -9.715   6.193  66.607  1.00  0.00    -0.158 N  
ENDROOT
BRANCH   5  11
HETATM   11  C   UNL     1      -9.439   6.354  70.364  1.00  0.00    -0.162 A  
HETATM   12  N   UNL     1      -8.328   7.055  70.228  1.00  0.00    -0.132 NA 
HETATM   13  C   UNL     1      -9.082   7.149  72.340  1.00  0.00    -0.131 A  
HETATM   14  C   UNL     1      -9.124   7.473  73.689  1.00  0.00    -0.305 A  
HETATM   15  C   UNL     1      -6.976   8.259  71.969  1.00  0.00    -0.094 A  
HETATM   16  C   UNL     1      -8.064   7.526  71.480  1.00  0.00    -0.099 A  
HETATM   17  O   UNL     1      -9.976   6.400  71.626  1.00  0.00    -0.175 OA 
HETATM   18 CL   UNL     1      -5.611   9.398  73.997  1.00  0.00    -0.079 Cl 
HETATM   19  C   UNL     1      -8.016   8.184  74.176  1.00  0.00    -0.305 A  
HETATM   20  C   UNL     1      -6.964   8.564  73.334  1.00  0.00    -0.024 A  
ENDBRANCH   5  11
BRANCH   9  21
HETATM   21  C   UNL     1      -9.408   8.813  66.595  1.00  0.00    -0.242 A  
HETATM   22  C   UNL     1     -10.375   9.028  67.585  1.00  0.00    -0.317 A  
HETATM   23  C   UNL     1     -11.495  10.265  69.438  1.00  0.00    -0.248 C  
HETATM   24  C   UNL     1      -8.926  10.010  66.013  1.00  0.00    -0.148 A  
HETATM   25  C   UNL     1     -10.288  11.414  67.535  1.00  0.00    -0.224 A  
HETATM   26  C   UNL     1      -9.436  11.279  66.438  1.00  0.00    -0.221 A  
HETATM   27  C   UNL     1     -10.723  10.264  68.150  1.00  0.00    -0.287 A  
BRANCH  24  28
HETATM   28  N   UNL     1      -7.907  10.098  65.024  1.00  0.00    -0.138 NA 
HETATM   29  N   UNL     1      -8.112   9.847  63.704  1.00  0.00    -0.144 NA 
HETATM   30  C   UNL     1      -5.944  10.000  64.243  1.00  0.00    -0.130 A  
HETATM   31  C   UNL     1      -6.870   9.856  63.213  1.00  0.00    -0.127 A  
HETATM   32  N   UNL     1      -6.583  10.101  65.407  1.00  0.00    -0.114 NA 
ENDBRANCH  24  28
ENDBRANCH   9  21
TORSDOF 3
ENDMDL
MODEL      120
REMARK 921   NORMALIZED FREE ENERGY PREDICTED BY IDOCK:   -3.39 KCAL/MOL
REMARK 922        TOTAL FREE ENERGY PREDICTED BY IDOCK:   -5.61 KCAL/MOL
REMARK 923 INTER-LIGAND FREE ENERGY PREDICTED BY IDOCK:   -5.54 KCAL/MOL
REMARK 924 INTRA-LIGAND FREE ENERGY PREDICTED BY IDOCK:   -0.07 KCAL/MOL
REMARK 927      BINDING AFFINITY PREDICTED BY RF-SCORE:    0.00 PKD
ROOT
HETATM    1  C   UNL     1     -12.000  15.804  70.168  1.00  0.00    -0.347 C  
HETATM    2  C   UNL     1     -12.189  16.021  71.688  1.00  0.00    -0.514 C  
HETATM    3  C   UNL     1     -12.735  14.516  69.686  1.00  0.00     0.040 C  
HETATM    4  C   UNL     1     -12.028  13.155  69.808  1.00  0.00    -0.314 C  
HETATM    5  N   UNL     1     -10.789  13.078  69.054  1.00  0.00    -0.201 NA 
HETATM    6  C   UNL     1      -9.561  13.528  69.695  1.00  0.00     1.378 C  
HETATM    7  O   UNL     1     -10.869  17.824  68.586  1.00  0.00    -0.169 OA 
HETATM    8  C   UNL     1      -9.738  14.860  70.442  1.00  0.00     0.738 C  
HETATM    9  C   UNL     1     -10.152  16.828  68.776  1.00  0.00    -0.286 C  
HETATM   10  N   UNL     1     -10.566  15.859  69.752  1.00  0.00    -0.298 N  
ENDROOT
BRANCH   5  11
HETATM   11  C   UNL     1     -10.699  12.652  67.772  1.00  0.00    -0.220 A  
HETATM   12  N   UNL     1     -10.240  11.486  67.355  1.00  0.00    -0.200 NA 
HETATM   13  C   UNL     1     -10.850  12.774  65.622  1.00  0.00    -0.273 A  
HETATM   14  C   UNL     1     -11.049  13.170  64.306  1.00  0.00    -0.426 A  
HETATM   15  C   UNL     1      -9.851  10.668  65.012  1.00  0.00    -0.353 A  
HETATM   16  C   UNL     1     -10.286  11.566  65.995  1.00  0.00    -0.246 A  
HETATM   17  O   UNL     1     -11.127  13.477  66.762  1.00  0.00    -0.292 OA 
HETATM   18 CL   UNL     1      -9.405  10.018  62.433  1.00  0.00    -0.307 Cl 
HETATM   19  C   UNL     1     -10.585  12.276  63.329  1.00  0.00    -0.312 A  
HETATM   20  C   UNL     1      -9.995  11.054  63.676  1.00  0.00    -0.361 A  
ENDBRANCH   5  11
BRANCH   9  21
HETATM   21  C   UNL     1      -8.839  16.745  67.967  1.00  0.00    -0.216 A  
HETATM   22  C   UNL     1      -7.890  15.756  68.255  1.00  0.00    -0.129 A  
HETATM   23  C   UNL     1      -6.031  14.173  67.750  1.00  0.00    -0.111 C  
HETATM   24  C   UNL     1      -8.420  17.645  66.958  1.00  0.00    -0.236 A  
HETATM   25  C   UNL     1      -6.309  16.401  66.585  1.00  0.00     0.141 A  
HETATM   26  C   UNL     1      -7.132  17.503  66.348  1.00  0.00    -0.321 A  
HETATM   27  C   UNL     1      -6.725  15.485  67.522  1.00  0.00    -0.220 A  
BRANCH  24  28
HETATM   28  N   UNL     1      -9.196  18.712  66.427  1.00  0.00    -0.372 NA 
HETATM   29  N   UNL     1      -9.156  19.985  66.903  1.00  0.00    -0.344 NA 
HETATM   30  C   UNL     1     -10.857  19.628  65.491  1.00  0.00    -0.163 A  
HETATM   31  C   UNL     1     -10.167  20.568  66.253  1.00  0.00    -0.012 A  
HETATM   32  N   UNL     1     -10.287  18.433  65.632  1.00  0.00    -0.591 NA 
ENDBRANCH  24  28
ENDBRANCH   9  21
TORSDOF 3
ENDMDL
MODEL      121
REMARK 921   NORMALIZED FREE ENERGY PREDICTED BY IDOCK:   -3.37 KCAL/MOL
REMARK 922        TOTAL FREE ENERGY PREDICTED BY IDOCK:   -5.59 KCAL/MOL
REMARK 923 INTER-LIGAND FREE ENERGY PREDICTED BY IDOCK:   -3.91 KCAL/MOL
REMARK 924 INTRA-LIGAND FREE ENERGY PREDICTED BY IDOCK:   -1.68 KCAL/MOL
REMARK 927      BINDING AFFINITY PREDICTED BY RF-SCORE:    0.00 PKD
ROOT
HETATM    1  C   UNL     1     -10.453   6.468  67.437  1.00  0.00    -0.252 C  
HETATM    2  C   UNL     1     -10.781   5.418  66.350  1.00  0.00    -0.284 C  
HETATM    3  C   UNL     1     -10.043   7.831  66.799  1.00  0.00    -0.341 C  
HETATM    4  C   UNL     1      -8.583   8.052  66.368  1.00  0.00    -0.145 C  
HETATM    5  N   UNL     1      -7.635   7.952  67.463  1.00  0.00    -0.103 NA 
HETATM    6  C   UNL     1      -7.107   6.638  67.801  1.00  0.00    -0.085 C  
HETATM    7  O   UNL     1     -11.044   5.945  70.127  1.00  0.00    -0.348 OA 
HETATM    8  C   UNL     1      -8.197   5.554  67.837  1.00  0.00    -0.100 C  
HETATM    9  C   UNL     1      -9.838   5.932  69.832  1.00  0.00    -0.174 C  
HETATM   10  N   UNL     1      -9.470   5.967  68.444  1.00  0.00    -0.119 N  
ENDROOT
BRANCH   5  11
HETATM   11  C   UNL     1      -7.234   8.996  68.226  1.00  0.00    -0.078 A  
HETATM   12  N   UNL     1      -7.365  10.280  67.944  1.00  0.00    -0.086 NA 
HETATM   13  C   UNL     1      -6.315   9.993  69.906  1.00  0.00    -0.066 A  
HETATM   14  C   UNL     1      -5.652  10.316  71.082  1.00  0.00    -0.062 A  
HETATM   15  C   UNL     1      -6.494  12.284  69.182  1.00  0.00    -0.100 A  
HETATM   16  C   UNL     1      -6.747  10.923  68.975  1.00  0.00    -0.070 A  
HETATM   17  O   UNL     1      -6.634   8.749  69.435  1.00  0.00    -0.044 OA 
HETATM   18 CL   UNL     1      -5.387  14.296  70.596  1.00  0.00    -0.116 Cl 
HETATM   19  C   UNL     1      -5.379  11.680  71.268  1.00  0.00    -0.013 A  
HETATM   20  C   UNL     1      -5.788  12.642  70.335  1.00  0.00    -0.155 A  
ENDBRANCH   5  11
BRANCH   9  21
HETATM   21  C   UNL     1      -8.833   5.833  71.000  1.00  0.00    -0.143 A  
HETATM   22  C   UNL     1      -8.433   6.984  71.691  1.00  0.00    -0.115 A  
HETATM   23  C   UNL     1      -7.618   8.289  73.652  1.00  0.00    -0.193 C  
HETATM   24  C   UNL     1      -8.171   4.660  71.436  1.00  0.00    -0.102 A  
HETATM   25  C   UNL     1      -6.960   5.886  73.218  1.00  0.00    -0.084 A  
HETATM   26  C   UNL     1      -7.190   4.725  72.478  1.00  0.00    -0.082 A  
HETATM   27  C   UNL     1      -7.636   7.024  72.845  1.00  0.00    -0.087 A  
BRANCH  24  28
HETATM   28  N   UNL     1      -8.414   3.344  70.953  1.00  0.00    -0.065 NA 
HETATM   29  N   UNL     1      -7.683   2.753  69.971  1.00  0.00    -0.043 NA 
HETATM   30  C   UNL     1      -9.559   1.635  70.463  1.00  0.00    -0.061 A  
HETATM   31  C   UNL     1      -8.381   1.642  69.720  1.00  0.00    -0.045 A  
HETATM   32  N   UNL     1      -9.623   2.734  71.212  1.00  0.00    -0.153 NA 
ENDBRANCH  24  28
ENDBRANCH   9  21
TORSDOF 3
ENDMDL
MODEL      122
REMARK 921   NORMALIZED FREE ENERGY PREDICTED BY IDOCK:   -3.33 KCAL/MOL
REMARK 922        TOTAL FREE ENERGY PREDICTED BY IDOCK:   -5.53 KCAL/MOL
REMARK 923 INTER-LIGAND FREE ENERGY PREDICTED BY IDOCK:   -4.00 KCAL/MOL
REMARK 924 INTRA-LIGAND FREE ENERGY PREDICTED BY IDOCK:   -1.53 KCAL/MOL
REMARK 927      BINDING AFFINITY PREDICTED BY RF-SCORE:    0.00 PKD
ROOT
HETATM    1  C   UNL     1      -5.573   8.704  71.481  1.00  0.00    -0.041 C  
HETATM    2  C   UNL     1      -5.400   9.156  72.950  1.00  0.00    -0.083 C  
HETATM    3  C   UNL     1      -5.344   9.890  70.495  1.00  0.00    -0.044 C  
HETATM    4  C   UNL     1      -6.512  10.839  70.175  1.00  0.00    -0.155 C  
HETATM    5  N   UNL     1      -7.647  10.172  69.563  1.00  0.00    -0.123 NA 
HETATM    6  C   UNL     1      -8.653   9.582  70.435  1.00  0.00    -0.206 C  
HETATM    7  O   UNL     1      -5.785   5.977  70.860  1.00  0.00    -0.017 OA 
HETATM    8  C   UNL     1      -8.035   8.789  71.597  1.00  0.00    -0.085 C  
HETATM    9  C   UNL     1      -6.830   6.638  70.738  1.00  0.00    -0.063 C  
HETATM   10  N   UNL     1      -6.859   7.980  71.248  1.00  0.00    -0.045 N  
ENDROOT
BRANCH   5  11
HETATM   11  C   UNL     1      -7.819  10.024  68.228  1.00  0.00    -0.089 A  
HETATM   12  N   UNL     1      -8.535  10.796  67.430  1.00  0.00    -0.119 NA 
HETATM   13  C   UNL     1      -7.617   9.096  66.289  1.00  0.00    -0.092 A  
HETATM   14  C   UNL     1      -7.314   8.266  65.218  1.00  0.00    -0.081 A  
HETATM   15  C   UNL     1      -9.077  10.510  64.995  1.00  0.00    -0.231 A  
HETATM   16  C   UNL     1      -8.455  10.195  66.209  1.00  0.00    -0.128 A  
HETATM   17  O   UNL     1      -7.197   8.983  67.585  1.00  0.00    -0.082 OA 
HETATM   18 CL   UNL     1      -9.631   9.968  62.411  1.00  0.00    -0.220 Cl 
HETATM   19  C   UNL     1      -7.964   8.572  64.012  1.00  0.00    -0.159 A  
HETATM   20  C   UNL     1      -8.830   9.667  63.906  1.00  0.00    -0.228 A  
ENDBRANCH   5  11
BRANCH   9  21
HETATM   21  C   UNL     1      -8.034   5.928  70.080  1.00  0.00    -0.101 A  
HETATM   22  C   UNL     1      -8.108   5.802  68.687  1.00  0.00    -0.101 A  
HETATM   23  C   UNL     1      -8.783   4.744  66.533  1.00  0.00    -0.111 C  
HETATM   24  C   UNL     1      -9.174   5.422  70.749  1.00  0.00    -0.149 A  
HETATM   25  C   UNL     1     -10.194   4.640  68.629  1.00  0.00     0.001 A  
HETATM   26  C   UNL     1     -10.265   4.865  70.005  1.00  0.00    -0.313 A  
HETATM   27  C   UNL     1      -9.068   5.073  67.970  1.00  0.00    -0.128 A  
BRANCH  24  28
HETATM   28  N   UNL     1      -9.351   5.370  72.160  1.00  0.00    -0.143 NA 
HETATM   29  N   UNL     1      -9.283   4.224  72.888  1.00  0.00    -0.111 NA 
HETATM   30  C   UNL     1     -10.111   5.951  74.046  1.00  0.00    -0.249 A  
HETATM   31  C   UNL     1      -9.701   4.621  74.092  1.00  0.00    -0.135 A  
HETATM   32  N   UNL     1      -9.947   6.427  72.813  1.00  0.00    -0.170 NA 
ENDBRANCH  24  28
ENDBRANCH   9  21
TORSDOF 3
ENDMDL
MODEL      123
REMARK 921   NORMALIZED FREE ENERGY PREDICTED BY IDOCK:   -3.28 KCAL/MOL
REMARK 922        TOTAL FREE ENERGY PREDICTED BY IDOCK:   -5.48 KCAL/MOL
REMARK 923 INTER-LIGAND FREE ENERGY PREDICTED BY IDOCK:   -4.08 KCAL/MOL
REMARK 924 INTRA-LIGAND FREE ENERGY PREDICTED BY IDOCK:   -1.40 KCAL/MOL
REMARK 927      BINDING AFFINITY PREDICTED BY RF-SCORE:    0.00 PKD
ROOT
HETATM    1  C   UNL     1      -7.036   3.192  64.786  1.00  0.00    -0.061 C  
HETATM    2  C   UNL     1      -7.078   2.273  63.543  1.00  0.00    -0.037 C  
HETATM    3  C   UNL     1      -7.722   2.514  66.012  1.00  0.00    -0.080 C  
HETATM    4  C   UNL     1      -9.248   2.623  66.177  1.00  0.00    -0.053 C  
HETATM    5  N   UNL     1      -9.719   3.991  66.305  1.00  0.00    -0.200 NA 
HETATM    6  C   UNL     1     -10.017   4.735  65.089  1.00  0.00     0.011 C  
HETATM    7  O   UNL     1      -5.469   5.518  64.770  1.00  0.00    -0.015 OA 
HETATM    8  C   UNL     1      -8.936   4.562  64.011  1.00  0.00    -0.138 C  
HETATM    9  C   UNL     1      -6.697   5.699  64.726  1.00  0.00    -0.047 C  
HETATM   10  N   UNL     1      -7.552   4.566  64.505  1.00  0.00    -0.072 N  
ENDROOT
BRANCH   5  11
HETATM   11  C   UNL     1      -9.864   4.643  67.483  1.00  0.00    -0.153 A  
HETATM   12  N   UNL     1      -9.665   4.149  68.691  1.00  0.00    -0.127 NA 
HETATM   13  C   UNL     1     -10.347   6.284  68.800  1.00  0.00    -0.205 A  
HETATM   14  C   UNL     1     -10.741   7.493  69.356  1.00  0.00    -0.200 A  
HETATM   15  C   UNL     1     -10.085   5.198  70.935  1.00  0.00    -0.302 A  
HETATM   16  C   UNL     1     -10.011   5.161  69.537  1.00  0.00    -0.231 A  
HETATM   17  O   UNL     1     -10.247   5.960  67.475  1.00  0.00    -0.152 OA 
HETATM   18 CL   UNL     1     -10.704   6.458  73.238  1.00  0.00    -0.279 Cl 
HETATM   19  C   UNL     1     -10.840   7.512  70.756  1.00  0.00    -0.253 A  
HETATM   20  C   UNL     1     -10.522   6.387  71.527  1.00  0.00    -0.219 A  
ENDBRANCH   5  11
BRANCH   9  21
HETATM   21  C   UNL     1      -7.195   7.154  64.870  1.00  0.00    -0.071 A  
HETATM   22  C   UNL     1      -7.595   7.881  63.741  1.00  0.00    -0.129 A  
HETATM   23  C   UNL     1      -8.880   9.613  62.491  1.00  0.00    -0.257 C  
HETATM   24  C   UNL     1      -7.232   7.911  66.065  1.00  0.00    -0.073 A  
HETATM   25  C   UNL     1      -8.162   9.891  64.900  1.00  0.00    -0.146 A  
HETATM   26  C   UNL     1      -7.635   9.285  66.042  1.00  0.00    -0.096 A  
HETATM   27  C   UNL     1      -8.188   9.153  63.741  1.00  0.00    -0.173 A  
BRANCH  24  28
HETATM   28  N   UNL     1      -6.932   7.419  67.366  1.00  0.00    -0.077 NA 
HETATM   29  N   UNL     1      -6.821   6.097  67.667  1.00  0.00    -0.058 NA 
HETATM   30  C   UNL     1      -6.906   7.408  69.481  1.00  0.00    -0.049 A  
HETATM   31  C   UNL     1      -6.737   6.111  69.000  1.00  0.00    -0.060 A  
HETATM   32  N   UNL     1      -7.085   8.243  68.460  1.00  0.00    -0.075 NA 
ENDBRANCH  24  28
ENDBRANCH   9  21
TORSDOF 3
ENDMDL
MODEL      124
REMARK 921   NORMALIZED FREE ENERGY PREDICTED BY IDOCK:   -3.23 KCAL/MOL
REMARK 922        TOTAL FREE ENERGY PREDICTED BY IDOCK:   -5.42 KCAL/MOL
REMARK 923 INTER-LIGAND FREE ENERGY PREDICTED BY IDOCK:   -4.63 KCAL/MOL
REMARK 924 INTRA-LIGAND FREE ENERGY PREDICTED BY IDOCK:   -0.79 KCAL/MOL
REMARK 927      BINDING AFFINITY PREDICTED BY RF-SCORE:    0.00 PKD
ROOT
HETATM    1  C   UNL     1      -6.469  12.522  70.308  1.00  0.00     0.313 C  
HETATM    2  C   UNL     1      -5.130  12.125  70.972  1.00  0.00    -0.143 C  
HETATM    3  C   UNL     1      -7.181  11.281  69.688  1.00  0.00     0.030 C  
HETATM    4  C   UNL     1      -6.795  10.822  68.271  1.00  0.00    -0.067 C  
HETATM    5  N   UNL     1      -7.034  11.830  67.252  1.00  0.00    -0.127 NA 
HETATM    6  C   UNL     1      -5.986  12.804  66.985  1.00  0.00     0.325 C  
HETATM    7  O   UNL     1      -7.531  15.088  70.699  1.00  0.00     0.500 OA 
HETATM    8  C   UNL     1      -5.368  13.374  68.272  1.00  0.00    -0.095 C  
HETATM    9  C   UNL     1      -7.081  14.862  69.564  1.00  0.00    -0.184 C  
HETATM   10  N   UNL     1      -6.323  13.660  69.352  1.00  0.00    -0.105 N  
ENDROOT
BRANCH   5  11
HETATM   11  C   UNL     1      -8.189  11.953  66.554  1.00  0.00    -0.026 A  
HETATM   12  N   UNL     1      -8.762  11.032  65.802  1.00  0.00    -0.187 NA 
HETATM   13  C   UNL     1      -9.941  12.941  65.769  1.00  0.00    -0.254 A  
HETATM   14  C   UNL     1     -10.938  13.844  65.429  1.00  0.00    -0.316 A  
HETATM   15  C   UNL     1     -10.783  11.209  64.321  1.00  0.00    -0.403 A  
HETATM   16  C   UNL     1      -9.846  11.656  65.261  1.00  0.00    -0.248 A  
HETATM   17  O   UNL     1      -8.880  13.137  66.610  1.00  0.00    -0.174 OA 
HETATM   18 CL   UNL     1     -12.904  11.633  62.711  1.00  0.00     0.302 Cl 
HETATM   19  C   UNL     1     -11.856  13.397  64.465  1.00  0.00    -0.440 A  
HETATM   20  C   UNL     1     -11.776  12.109  63.921  1.00  0.00    -0.458 A  
ENDBRANCH   5  11
BRANCH   9  21
HETATM   21  C   UNL     1      -7.343  15.931  68.481  1.00  0.00    -0.127 A  
HETATM   22  C   UNL     1      -6.274  16.528  67.800  1.00  0.00    -0.158 A  
HETATM   23  C   UNL     1      -5.143  17.650  65.882  1.00  0.00    -0.206 C  
HETATM   24  C   UNL     1      -8.603  16.466  68.123  1.00  0.00    -0.193 A  
HETATM   25  C   UNL     1      -7.596  17.957  66.417  1.00  0.00    -0.308 A  
HETATM   26  C   UNL     1      -8.695  17.524  67.160  1.00  0.00    -0.247 A  
HETATM   27  C   UNL     1      -6.371  17.408  66.712  1.00  0.00    -0.237 A  
BRANCH  24  28
HETATM   28  N   UNL     1      -9.862  16.020  68.612  1.00  0.00    -0.211 NA 
HETATM   29  N   UNL     1     -10.683  16.777  69.387  1.00  0.00    -0.327 NA 
HETATM   30  C   UNL     1     -11.295  14.625  69.301  1.00  0.00    -0.286 A  
HETATM   31  C   UNL     1     -11.619  15.900  69.759  1.00  0.00    -0.338 A  
HETATM   32  N   UNL     1     -10.153  14.673  68.617  1.00  0.00    -0.232 NA 
ENDBRANCH  24  28
ENDBRANCH   9  21
TORSDOF 3
ENDMDL
MODEL      125
REMARK 921   NORMALIZED FREE ENERGY PREDICTED BY IDOCK:   -3.18 KCAL/MOL
REMARK 922        TOTAL FREE ENERGY PREDICTED BY IDOCK:   -5.36 KCAL/MOL
REMARK 923 INTER-LIGAND FREE ENERGY PREDICTED BY IDOCK:   -4.17 KCAL/MOL
REMARK 924 INTRA-LIGAND FREE ENERGY PREDICTED BY IDOCK:   -1.19 KCAL/MOL
REMARK 927      BINDING AFFINITY PREDICTED BY RF-SCORE:    0.00 PKD
ROOT
HETATM    1  C   UNL     1     -11.212   8.383  71.286  1.00  0.00    -0.259 C  
HETATM    2  C   UNL     1     -12.511   7.545  71.334  1.00  0.00    -0.382 C  
HETATM    3  C   UNL     1     -11.527   9.902  71.127  1.00  0.00    -0.459 C  
HETATM    4  C   UNL     1     -11.764  10.479  69.721  1.00  0.00    -0.281 C  
HETATM    5  N   UNL     1     -10.624  10.328  68.834  1.00  0.00    -0.206 NA 
HETATM    6  C   UNL     1     -10.503   9.095  68.069  1.00  0.00    -0.224 C  
HETATM    7  O   UNL     1      -8.746   7.200  71.905  1.00  0.00    -0.120 OA 
HETATM    8  C   UNL     1     -10.786   7.844  68.917  1.00  0.00    -0.073 C  
HETATM    9  C   UNL     1      -8.922   7.476  70.707  1.00  0.00    -0.149 C  
HETATM   10  N   UNL     1     -10.234   7.873  70.278  1.00  0.00    -0.197 N  
ENDROOT
BRANCH   5  11
HETATM   11  C   UNL     1      -9.636  11.244  68.696  1.00  0.00    -0.190 A  
HETATM   12  N   UNL     1      -9.778  12.528  68.425  1.00  0.00    -0.215 NA 
HETATM   13  C   UNL     1      -7.608  11.981  68.602  1.00  0.00    -0.112 A  
HETATM   14  C   UNL     1      -6.228  12.127  68.588  1.00  0.00    -0.059 A  
HETATM   15  C   UNL     1      -8.024  14.265  67.960  1.00  0.00    -0.142 A  
HETATM   16  C   UNL     1      -8.502  12.999  68.316  1.00  0.00    -0.159 A  
HETATM   17  O   UNL     1      -8.331  10.848  68.856  1.00  0.00    -0.145 OA 
HETATM   18 CL   UNL     1      -6.001  15.954  67.384  1.00  0.00    -0.158 Cl 
HETATM   19  C   UNL     1      -5.758  13.392  68.203  1.00  0.00    -0.108 A  
HETATM   20  C   UNL     1      -6.637  14.436  67.892  1.00  0.00    -0.167 A  
ENDBRANCH   5  11
BRANCH   9  21
HETATM   21  C   UNL     1      -7.706   7.322  69.768  1.00  0.00    -0.107 A  
HETATM   22  C   UNL     1      -7.848   6.699  68.521  1.00  0.00    -0.110 A  
HETATM   23  C   UNL     1      -7.300   6.245  66.132  1.00  0.00    -0.080 C  
HETATM   24  C   UNL     1      -6.371   7.690  70.061  1.00  0.00    -0.034 A  
HETATM   25  C   UNL     1      -5.567   6.920  67.845  1.00  0.00    -0.016 A  
HETATM   26  C   UNL     1      -5.319   7.407  69.130  1.00  0.00    -0.015 A  
HETATM   27  C   UNL     1      -6.867   6.610  67.522  1.00  0.00    -0.076 A  
BRANCH  24  28
HETATM   28  N   UNL     1      -5.940   8.382  71.226  1.00  0.00    -0.035 NA 
HETATM   29  N   UNL     1      -5.481   7.764  72.347  1.00  0.00    -0.036 NA 
HETATM   30  C   UNL     1      -5.892   9.943  72.653  1.00  0.00     0.510 A  
HETATM   31  C   UNL     1      -5.392   8.772  73.218  1.00  0.00    -0.083 A  
HETATM   32  N   UNL     1      -6.295   9.702  71.407  1.00  0.00    -0.281 NA 
ENDBRANCH  24  28
ENDBRANCH   9  21
TORSDOF 3
ENDMDL
MODEL      126
REMARK 921   NORMALIZED FREE ENERGY PREDICTED BY IDOCK:   -3.08 KCAL/MOL
REMARK 922        TOTAL FREE ENERGY PREDICTED BY IDOCK:   -5.25 KCAL/MOL
REMARK 923 INTER-LIGAND FREE ENERGY PREDICTED BY IDOCK:   -3.81 KCAL/MOL
REMARK 924 INTRA-LIGAND FREE ENERGY PREDICTED BY IDOCK:   -1.44 KCAL/MOL
REMARK 927      BINDING AFFINITY PREDICTED BY RF-SCORE:    0.00 PKD
ROOT
HETATM    1  C   UNL     1      -8.790   5.220  70.439  1.00  0.00    -0.127 C  
HETATM    2  C   UNL     1      -8.840   4.001  71.389  1.00  0.00    -0.145 C  
HETATM    3  C   UNL     1      -7.322   5.684  70.192  1.00  0.00    -0.069 C  
HETATM    4  C   UNL     1      -6.655   6.639  71.197  1.00  0.00    -0.053 C  
HETATM    5  N   UNL     1      -7.340   7.913  71.326  1.00  0.00    -0.065 NA 
HETATM    6  C   UNL     1      -8.430   8.016  72.286  1.00  0.00    -0.155 C  
HETATM    7  O   UNL     1     -11.097   6.034  69.067  1.00  0.00    -0.351 OA 
HETATM    8  C   UNL     1      -9.386   6.813  72.225  1.00  0.00    -0.138 C  
HETATM    9  C   UNL     1     -10.727   6.784  69.985  1.00  0.00    -0.247 C  
HETATM   10  N   UNL     1      -9.695   6.327  70.873  1.00  0.00    -0.175 N  
ENDROOT
BRANCH   5  11
HETATM   11  C   UNL     1      -7.061   9.010  70.583  1.00  0.00    -0.084 A  
HETATM   12  N   UNL     1      -7.713  10.158  70.590  1.00  0.00    -0.090 NA 
HETATM   13  C   UNL     1      -6.029  10.202  69.108  1.00  0.00    -0.037 A  
HETATM   14  C   UNL     1      -5.189  10.681  68.112  1.00  0.00    -0.037 A  
HETATM   15  C   UNL     1      -7.407  12.178  69.129  1.00  0.00     0.069 A  
HETATM   16  C   UNL     1      -7.101  10.906  69.629  1.00  0.00    -0.116 A  
HETATM   17  O   UNL     1      -5.992   8.981  69.724  1.00  0.00    -0.035 OA 
HETATM   18 CL   UNL     1      -6.991  14.200  67.393  1.00  0.00    -0.163 Cl 
HETATM   19  C   UNL     1      -5.520  11.944  67.598  1.00  0.00    -0.074 A  
HETATM   20  C   UNL     1      -6.608  12.674  68.093  1.00  0.00    -0.081 A  
ENDBRANCH   5  11
BRANCH   9  21
HETATM   21  C   UNL     1     -11.452   8.141  70.115  1.00  0.00     0.005 A  
HETATM   22  C   UNL     1     -12.398   8.345  71.128  1.00  0.00    -0.219 A  
HETATM   23  C   UNL     1     -13.720   9.677  72.770  1.00  0.00     0.013 C  
HETATM   24  C   UNL     1     -11.323   9.246  69.239  1.00  0.00     0.208 A  
HETATM   25  C   UNL     1     -12.935  10.599  70.549  1.00  0.00    -0.277 A  
HETATM   26  C   UNL     1     -12.126  10.418  69.426  1.00  0.00    -0.085 A  
HETATM   27  C   UNL     1     -13.030   9.558  71.441  1.00  0.00    -0.450 A  
BRANCH  24  28
HETATM   28  N   UNL     1     -10.406   9.341  68.157  1.00  0.00    -0.206 NA 
HETATM   29  N   UNL     1      -9.312   8.545  68.021  1.00  0.00    -0.136 NA 
HETATM   30  C   UNL     1      -9.308  10.289  66.617  1.00  0.00    -0.161 A  
HETATM   31  C   UNL     1      -8.664   9.116  67.002  1.00  0.00    -0.123 A  
HETATM   32  N   UNL     1     -10.387  10.477  67.376  1.00  0.00    -0.210 NA 
ENDBRANCH  24  28
ENDBRANCH   9  21
TORSDOF 3
ENDMDL
MODEL      127
REMARK 921   NORMALIZED FREE ENERGY PREDICTED BY IDOCK:   -3.08 KCAL/MOL
REMARK 922        TOTAL FREE ENERGY PREDICTED BY IDOCK:   -5.25 KCAL/MOL
REMARK 923 INTER-LIGAND FREE ENERGY PREDICTED BY IDOCK:   -4.69 KCAL/MOL
REMARK 924 INTRA-LIGAND FREE ENERGY PREDICTED BY IDOCK:   -0.56 KCAL/MOL
REMARK 927      BINDING AFFINITY PREDICTED BY RF-SCORE:    0.00 PKD
ROOT
HETATM    1  C   UNL     1     -11.037  10.803  68.198  1.00  0.00    -0.280 C  
HETATM    2  C   UNL     1     -11.125  12.346  68.141  1.00  0.00    -0.288 C  
HETATM    3  C   UNL     1     -11.788  10.240  69.444  1.00  0.00    -0.109 C  
HETATM    4  C   UNL     1     -11.059  10.174  70.797  1.00  0.00    -0.298 C  
HETATM    5  N   UNL     1      -9.873   9.336  70.774  1.00  0.00    -0.266 NA 
HETATM    6  C   UNL     1      -8.610   9.937  70.370  1.00  0.00     0.086 C  
HETATM    7  O   UNL     1     -10.038   9.365  66.008  1.00  0.00    -0.300 OA 
HETATM    8  C   UNL     1      -8.751  10.826  69.125  1.00  0.00    -0.091 C  
HETATM    9  C   UNL     1      -9.298   9.404  67.005  1.00  0.00    -0.148 C  
HETATM   10  N   UNL     1      -9.635  10.300  68.076  1.00  0.00    -0.145 N  
ENDROOT
BRANCH   5  11
HETATM   11  C   UNL     1      -9.866   8.013  71.066  1.00  0.00    -0.174 A  
HETATM   12  N   UNL     1      -9.371   7.041  70.322  1.00  0.00    -0.159 NA 
HETATM   13  C   UNL     1     -10.287   6.226  72.202  1.00  0.00    -0.191 A  
HETATM   14  C   UNL     1     -10.716   5.296  73.139  1.00  0.00    -0.314 A  
HETATM   15  C   UNL     1      -9.473   4.555  70.669  1.00  0.00    -0.240 A  
HETATM   16  C   UNL     1      -9.671   5.900  71.006  1.00  0.00    -0.172 A  
HETATM   17  O   UNL     1     -10.409   7.588  72.252  1.00  0.00    -0.201 OA 
HETATM   18 CL   UNL     1      -9.782   1.922  71.166  1.00  0.00    -0.206 Cl 
HETATM   19  C   UNL     1     -10.538   3.951  72.781  1.00  0.00    -0.206 A  
HETATM   20  C   UNL     1      -9.934   3.590  71.570  1.00  0.00    -0.101 A  
ENDBRANCH   5  11
BRANCH   9  21
HETATM   21  C   UNL     1      -8.042   8.506  66.981  1.00  0.00    -0.103 A  
HETATM   22  C   UNL     1      -8.151   7.144  66.668  1.00  0.00    -0.109 A  
HETATM   23  C   UNL     1      -7.369   4.943  65.797  1.00  0.00    -0.077 C  
HETATM   24  C   UNL     1      -6.727   8.898  67.326  1.00  0.00    -0.066 A  
HETATM   25  C   UNL     1      -5.827   6.632  66.877  1.00  0.00    -0.014 A  
HETATM   26  C   UNL     1      -5.665   7.936  67.347  1.00  0.00    -0.037 A  
HETATM   27  C   UNL     1      -7.087   6.249  66.482  1.00  0.00    -0.068 A  
BRANCH  24  28
HETATM   28  N   UNL     1      -6.313  10.223  67.637  1.00  0.00    -0.057 NA 
HETATM   29  N   UNL     1      -6.403  11.265  66.769  1.00  0.00    -0.126 NA 
HETATM   30  C   UNL     1      -5.161  11.729  68.573  1.00  0.00    -0.045 A  
HETATM   31  C   UNL     1      -5.730  12.228  67.404  1.00  0.00    -0.139 A  
HETATM   32  N   UNL     1      -5.476  10.443  68.710  1.00  0.00    -0.042 NA 
ENDBRANCH  24  28
ENDBRANCH   9  21
TORSDOF 3
ENDMDL
MODEL      128
REMARK 921   NORMALIZED FREE ENERGY PREDICTED BY IDOCK:   -3.07 KCAL/MOL
REMARK 922        TOTAL FREE ENERGY PREDICTED BY IDOCK:   -5.24 KCAL/MOL
REMARK 923 INTER-LIGAND FREE ENERGY PREDICTED BY IDOCK:   -4.55 KCAL/MOL
REMARK 924 INTRA-LIGAND FREE ENERGY PREDICTED BY IDOCK:   -0.68 KCAL/MOL
REMARK 927      BINDING AFFINITY PREDICTED BY RF-SCORE:    0.00 PKD
ROOT
HETATM    1  C   UNL     1      -6.534  12.080  70.182  1.00  0.00     0.124 C  
HETATM    2  C   UNL     1      -5.161  11.674  70.767  1.00  0.00    -0.123 C  
HETATM    3  C   UNL     1      -7.305  10.838  69.639  1.00  0.00    -0.107 C  
HETATM    4  C   UNL     1      -7.021  10.339  68.212  1.00  0.00    -0.073 C  
HETATM    5  N   UNL     1      -7.309  11.327  67.187  1.00  0.00    -0.122 NA 
HETATM    6  C   UNL     1      -6.265  12.275  66.829  1.00  0.00     0.254 C  
HETATM    7  O   UNL     1      -7.525  14.673  70.579  1.00  0.00     0.418 OA 
HETATM    8  C   UNL     1      -5.554  12.864  68.059  1.00  0.00    -0.101 C  
HETATM    9  C   UNL     1      -7.154  14.412  69.423  1.00  0.00    -0.113 C  
HETATM   10  N   UNL     1      -6.431  13.193  69.191  1.00  0.00    -0.103 N  
ENDROOT
BRANCH   5  11
HETATM   11  C   UNL     1      -8.504  11.455  66.563  1.00  0.00    -0.170 A  
HETATM   12  N   UNL     1      -8.824  11.005  65.363  1.00  0.00    -0.179 NA 
HETATM   13  C   UNL     1     -10.547  12.100  66.294  1.00  0.00    -0.250 A  
HETATM   14  C   UNL     1     -11.809  12.666  66.422  1.00  0.00    -0.466 A  
HETATM   15  C   UNL     1     -10.930  11.348  64.038  1.00  0.00    -0.428 A  
HETATM   16  C   UNL     1     -10.098  11.445  65.160  1.00  0.00    -0.271 A  
HETATM   17  O   UNL     1      -9.528  12.103  67.207  1.00  0.00    -0.178 OA 
HETATM   18 CL   UNL     1     -13.221  11.920  62.736  1.00  0.00     0.590 Cl 
HETATM   19  C   UNL     1     -12.625  12.587  65.283  1.00  0.00    -0.259 A  
HETATM   20  C   UNL     1     -12.192  11.946  64.116  1.00  0.00    -0.281 A  
ENDBRANCH   5  11
BRANCH   9  21
HETATM   21  C   UNL     1      -7.469  15.461  68.334  1.00  0.00    -0.115 A  
HETATM   22  C   UNL     1      -8.248  15.116  67.222  1.00  0.00    -0.234 A  
HETATM   23  C   UNL     1      -9.830  15.528  65.339  1.00  0.00    -0.291 C  
HETATM   24  C   UNL     1      -6.976  16.787  68.283  1.00  0.00    -0.161 A  
HETATM   25  C   UNL     1      -8.184  17.259  66.170  1.00  0.00    -0.258 A  
HETATM   26  C   UNL     1      -7.276  17.630  67.163  1.00  0.00    -0.206 A  
HETATM   27  C   UNL     1      -8.718  15.994  66.233  1.00  0.00    -0.372 A  
BRANCH  24  28
HETATM   28  N   UNL     1      -6.205  17.423  69.294  1.00  0.00    -0.226 NA 
HETATM   29  N   UNL     1      -5.587  16.756  70.305  1.00  0.00    -0.212 NA 
HETATM   30  C   UNL     1      -5.630  18.973  70.613  1.00  0.00    -0.196 A  
HETATM   31  C   UNL     1      -5.171  17.749  71.095  1.00  0.00    -0.171 A  
HETATM   32  N   UNL     1      -6.335  18.780  69.500  1.00  0.00    -0.272 NA 
ENDBRANCH  24  28
ENDBRANCH   9  21
TORSDOF 3
ENDMDL
MODEL      129
REMARK 921   NORMALIZED FREE ENERGY PREDICTED BY IDOCK:   -3.02 KCAL/MOL
REMARK 922        TOTAL FREE ENERGY PREDICTED BY IDOCK:   -5.17 KCAL/MOL
REMARK 923 INTER-LIGAND FREE ENERGY PREDICTED BY IDOCK:   -3.75 KCAL/MOL
REMARK 924 INTRA-LIGAND FREE ENERGY PREDICTED BY IDOCK:   -1.42 KCAL/MOL
REMARK 927      BINDING AFFINITY PREDICTED BY RF-SCORE:    0.00 PKD
ROOT
HETATM    1  C   UNL     1      -9.296   4.728  65.627  1.00  0.00    -0.163 C  
HETATM    2  C   UNL     1     -10.348   4.150  64.651  1.00  0.00    -0.193 C  
HETATM    3  C   UNL     1      -8.962   3.712  66.762  1.00  0.00    -0.153 C  
HETATM    4  C   UNL     1      -9.859   3.656  68.011  1.00  0.00     0.087 C  
HETATM    5  N   UNL     1      -9.902   4.906  68.748  1.00  0.00    -0.167 NA 
HETATM    6  C   UNL     1     -10.885   5.906  68.356  1.00  0.00    -0.240 C  
HETATM    7  O   UNL     1      -7.938   7.099  64.996  1.00  0.00    -0.119 OA 
HETATM    8  C   UNL     1     -10.959   6.094  66.832  1.00  0.00    -0.305 C  
HETATM    9  C   UNL     1      -8.776   7.188  65.908  1.00  0.00    -0.130 C  
HETATM   10  N   UNL     1      -9.665   6.083  66.136  1.00  0.00    -0.077 N  
ENDROOT
BRANCH   5  11
HETATM   11  C   UNL     1      -9.059   5.228  69.758  1.00  0.00    -0.116 A  
HETATM   12  N   UNL     1      -8.975   6.390  70.380  1.00  0.00    -0.154 NA 
HETATM   13  C   UNL     1      -7.465   4.938  71.186  1.00  0.00    -0.073 A  
HETATM   14  C   UNL     1      -6.416   4.448  71.952  1.00  0.00    -0.022 A  
HETATM   15  C   UNL     1      -7.334   7.154  72.121  1.00  0.00    -0.080 A  
HETATM   16  C   UNL     1      -7.940   6.237  71.255  1.00  0.00    -0.116 A  
HETATM   17  O   UNL     1      -8.187   4.278  70.229  1.00  0.00    -0.061 OA 
HETATM   18 CL   UNL     1      -5.417   7.817  73.899  1.00  0.00    -0.052 Cl 
HETATM   19  C   UNL     1      -5.797   5.381  72.797  1.00  0.00    -0.023 A  
HETATM   20  C   UNL     1      -6.244   6.706  72.876  1.00  0.00    -0.054 A  
ENDBRANCH   5  11
BRANCH   9  21
HETATM   21  C   UNL     1      -8.814   8.516  66.695  1.00  0.00    -0.157 A  
HETATM   22  C   UNL     1      -9.833   9.449  66.463  1.00  0.00    -0.325 A  
HETATM   23  C   UNL     1     -11.396  11.301  67.048  1.00  0.00    -0.262 C  
HETATM   24  C   UNL     1      -7.847   8.964  67.627  1.00  0.00    -0.101 A  
HETATM   25  C   UNL     1      -9.085  11.070  68.050  1.00  0.00    -0.152 A  
HETATM   26  C   UNL     1      -7.959  10.263  68.221  1.00  0.00    -0.106 A  
HETATM   27  C   UNL     1     -10.063  10.625  67.192  1.00  0.00    -0.248 A  
BRANCH  24  28
HETATM   28  N   UNL     1      -6.735   8.210  68.092  1.00  0.00    -0.060 NA 
HETATM   29  N   UNL     1      -6.586   6.875  67.884  1.00  0.00    -0.056 NA 
HETATM   30  C   UNL     1      -5.138   7.696  69.381  1.00  0.00    -0.015 A  
HETATM   31  C   UNL     1      -5.534   6.578  68.650  1.00  0.00    -0.016 A  
HETATM   32  N   UNL     1      -5.924   8.728  69.080  1.00  0.00    -0.043 NA 
ENDBRANCH  24  28
ENDBRANCH   9  21
TORSDOF 3
ENDMDL
MODEL      130
REMARK 921   NORMALIZED FREE ENERGY PREDICTED BY IDOCK:   -2.98 KCAL/MOL
REMARK 922        TOTAL FREE ENERGY PREDICTED BY IDOCK:   -5.13 KCAL/MOL
REMARK 923 INTER-LIGAND FREE ENERGY PREDICTED BY IDOCK:   -4.28 KCAL/MOL
REMARK 924 INTRA-LIGAND FREE ENERGY PREDICTED BY IDOCK:   -0.84 KCAL/MOL
REMARK 927      BINDING AFFINITY PREDICTED BY RF-SCORE:    0.00 PKD
ROOT
HETATM    1  C   UNL     1      -7.675   9.010  69.515  1.00  0.00    -0.082 C  
HETATM    2  C   UNL     1      -7.058   9.929  70.595  1.00  0.00    -0.056 C  
HETATM    3  C   UNL     1      -6.937   7.637  69.454  1.00  0.00    -0.063 C  
HETATM    4  C   UNL     1      -5.658   7.507  68.609  1.00  0.00    -0.023 C  
HETATM    5  N   UNL     1      -5.866   7.784  67.198  1.00  0.00    -0.039 NA 
HETATM    6  C   UNL     1      -5.764   9.163  66.743  1.00  0.00    -0.047 C  
HETATM    7  O   UNL     1     -10.093   9.710  68.280  1.00  0.00    -0.164 OA 
HETATM    8  C   UNL     1      -6.495  10.147  67.671  1.00  0.00    -0.063 C  
HETATM    9  C   UNL     1      -9.081   9.802  67.566  1.00  0.00    -0.130 C  
HETATM   10  N   UNL     1      -7.790   9.680  68.184  1.00  0.00    -0.086 N  
ENDROOT
BRANCH   5  11
HETATM   11  C   UNL     1      -6.191   6.848  66.275  1.00  0.00    -0.045 A  
HETATM   12  N   UNL     1      -7.397   6.378  66.013  1.00  0.00    -0.078 NA 
HETATM   13  C   UNL     1      -5.851   5.381  64.728  1.00  0.00    -0.021 A  
HETATM   14  C   UNL     1      -5.307   4.516  63.788  1.00  0.00    -0.013 A  
HETATM   15  C   UNL     1      -8.086   4.519  64.471  1.00  0.00    -0.102 A  
HETATM   16  C   UNL     1      -7.192   5.415  65.070  1.00  0.00    -0.066 A  
HETATM   17  O   UNL     1      -5.200   6.307  65.495  1.00  0.00    -0.013 OA 
HETATM   18 CL   UNL     1      -8.609   2.431  62.847  1.00  0.00    -0.081 Cl 
HETATM   19  C   UNL     1      -6.205   3.603  63.214  1.00  0.00    -0.018 A  
HETATM   20  C   UNL     1      -7.564   3.603  63.552  1.00  0.00    -0.063 A  
ENDBRANCH   5  11
BRANCH   9  21
HETATM   21  C   UNL     1      -9.306  10.090  66.066  1.00  0.00    -0.224 A  
HETATM   22  C   UNL     1      -8.759   9.244  65.092  1.00  0.00    -0.216 A  
HETATM   23  C   UNL     1      -8.631   8.118  62.871  1.00  0.00     0.122 C  
HETATM   24  C   UNL     1      -9.978  11.210  65.520  1.00  0.00    -0.249 A  
HETATM   25  C   UNL     1      -9.597  10.433  63.197  1.00  0.00    -0.346 A  
HETATM   26  C   UNL     1     -10.037  11.401  64.101  1.00  0.00    -0.358 A  
HETATM   27  C   UNL     1      -8.992   9.309  63.710  1.00  0.00    -0.080 A  
BRANCH  24  28
HETATM   28  N   UNL     1     -10.671  12.203  66.266  1.00  0.00    -0.252 NA 
HETATM   29  N   UNL     1     -11.657  11.926  67.160  1.00  0.00    -0.519 NA 
HETATM   30  C   UNL     1     -11.512  14.104  66.659  1.00  0.00    -0.366 A  
HETATM   31  C   UNL     1     -12.133  13.140  67.450  1.00  0.00    -0.263 A  
HETATM   32  N   UNL     1     -10.618  13.520  65.862  1.00  0.00    -0.280 NA 
ENDBRANCH  24  28
ENDBRANCH   9  21
TORSDOF 3
ENDMDL
MODEL      131
REMARK 921   NORMALIZED FREE ENERGY PREDICTED BY IDOCK:   -2.93 KCAL/MOL
REMARK 922        TOTAL FREE ENERGY PREDICTED BY IDOCK:   -5.07 KCAL/MOL
REMARK 923 INTER-LIGAND FREE ENERGY PREDICTED BY IDOCK:   -3.69 KCAL/MOL
REMARK 924 INTRA-LIGAND FREE ENERGY PREDICTED BY IDOCK:   -1.38 KCAL/MOL
REMARK 927      BINDING AFFINITY PREDICTED BY RF-SCORE:    0.00 PKD
ROOT
HETATM    1  C   UNL     1     -10.116   5.505  69.178  1.00  0.00    -0.216 C  
HETATM    2  C   UNL     1     -10.025   4.035  68.707  1.00  0.00     0.094 C  
HETATM    3  C   UNL     1     -10.921   6.374  68.163  1.00  0.00    -0.393 C  
HETATM    4  C   UNL     1     -10.197   6.974  66.945  1.00  0.00    -0.248 C  
HETATM    5  N   UNL     1      -9.117   7.877  67.302  1.00  0.00    -0.133 NA 
HETATM    6  C   UNL     1      -7.795   7.313  67.534  1.00  0.00    -0.112 C  
HETATM    7  O   UNL     1      -9.301   6.211  71.767  1.00  0.00    -0.151 OA 
HETATM    8  C   UNL     1      -7.838   6.043  68.399  1.00  0.00    -0.106 C  
HETATM    9  C   UNL     1      -8.557   6.592  70.848  1.00  0.00    -0.134 C  
HETATM   10  N   UNL     1      -8.783   6.084  69.524  1.00  0.00    -0.125 N  
ENDROOT
BRANCH   5  11
HETATM   11  C   UNL     1      -9.262   9.212  67.474  1.00  0.00    -0.128 A  
HETATM   12  N   UNL     1     -10.080   9.819  68.314  1.00  0.00    -0.157 NA 
HETATM   13  C   UNL     1      -8.921  11.312  67.105  1.00  0.00    -0.155 A  
HETATM   14  C   UNL     1      -8.497  12.543  66.624  1.00  0.00    -0.006 A  
HETATM   15  C   UNL     1     -10.568  12.268  68.580  1.00  0.00    -0.249 A  
HETATM   16  C   UNL     1      -9.910  11.147  68.060  1.00  0.00    -0.174 A  
HETATM   17  O   UNL     1      -8.492  10.069  66.728  1.00  0.00    -0.125 OA 
HETATM   18 CL   UNL     1     -11.030  14.925  68.638  1.00  0.00    -0.249 Cl 
HETATM   19  C   UNL     1      -9.181  13.659  67.131  1.00  0.00    -0.244 A  
HETATM   20  C   UNL     1     -10.197  13.522  68.085  1.00  0.00    -0.249 A  
ENDBRANCH   5  11
BRANCH   9  21
HETATM   21  C   UNL     1      -7.414   7.558  71.229  1.00  0.00    -0.079 A  
HETATM   22  C   UNL     1      -7.296   8.803  70.596  1.00  0.00    -0.072 A  
HETATM   23  C   UNL     1      -6.654  11.204  70.405  1.00  0.00     0.183 C  
HETATM   24  C   UNL     1      -6.366   7.294  72.144  1.00  0.00    -0.043 A  
HETATM   25  C   UNL     1      -5.353   9.527  71.780  1.00  0.00    -0.076 A  
HETATM   26  C   UNL     1      -5.315   8.248  72.338  1.00  0.00    -0.038 A  
HETATM   27  C   UNL     1      -6.394   9.823  70.933  1.00  0.00    -0.073 A  
BRANCH  24  28
HETATM   28  N   UNL     1      -6.255   6.138  72.964  1.00  0.00    -0.057 NA 
HETATM   29  N   UNL     1      -5.836   4.926  72.511  1.00  0.00    -0.016 NA 
HETATM   30  C   UNL     1      -6.734   4.834  74.559  1.00  0.00    -0.067 A  
HETATM   31  C   UNL     1      -6.082   4.127  73.552  1.00  0.00    -0.016 A  
HETATM   32  N   UNL     1      -6.901   6.100  74.181  1.00  0.00    -0.079 NA 
ENDBRANCH  24  28
ENDBRANCH   9  21
TORSDOF 3
ENDMDL
MODEL      132
REMARK 921   NORMALIZED FREE ENERGY PREDICTED BY IDOCK:   -2.85 KCAL/MOL
REMARK 922        TOTAL FREE ENERGY PREDICTED BY IDOCK:   -4.97 KCAL/MOL
REMARK 923 INTER-LIGAND FREE ENERGY PREDICTED BY IDOCK:   -3.37 KCAL/MOL
REMARK 924 INTRA-LIGAND FREE ENERGY PREDICTED BY IDOCK:   -1.61 KCAL/MOL
REMARK 927      BINDING AFFINITY PREDICTED BY RF-SCORE:    0.00 PKD
ROOT
HETATM    1  C   UNL     1     -10.311  12.538  68.559  1.00  0.00    -0.222 C  
HETATM    2  C   UNL     1     -11.479  13.514  68.834  1.00  0.00    -0.348 C  
HETATM    3  C   UNL     1      -9.451  13.014  67.348  1.00  0.00    -0.210 C  
HETATM    4  C   UNL     1      -9.889  12.642  65.921  1.00  0.00    -0.244 C  
HETATM    5  N   UNL     1      -9.945  11.209  65.689  1.00  0.00    -0.236 NA 
HETATM    6  C   UNL     1     -11.176  10.504  66.016  1.00  0.00     0.505 C  
HETATM    7  O   UNL     1      -9.703  10.513  70.401  1.00  0.00     0.366 OA 
HETATM    8  C   UNL     1     -11.753  10.923  67.378  1.00  0.00     0.272 C  
HETATM    9  C   UNL     1     -10.219  10.133  69.337  1.00  0.00    -0.227 C  
HETATM   10  N   UNL     1     -10.761  11.119  68.444  1.00  0.00    -0.185 N  
ENDROOT
BRANCH   5  11
HETATM   11  C   UNL     1      -8.911  10.469  65.223  1.00  0.00    -0.189 A  
HETATM   12  N   UNL     1      -8.875   9.778  64.098  1.00  0.00    -0.216 NA 
HETATM   13  C   UNL     1      -6.956   9.553  65.240  1.00  0.00    -0.091 A  
HETATM   14  C   UNL     1      -5.680   9.109  65.557  1.00  0.00    -0.053 A  
HETATM   15  C   UNL     1      -7.099   8.227  63.233  1.00  0.00    -0.090 A  
HETATM   16  C   UNL     1      -7.662   9.155  64.117  1.00  0.00    -0.121 A  
HETATM   17  O   UNL     1      -7.751  10.407  65.954  1.00  0.00    -0.134 OA 
HETATM   18 CL   UNL     1      -5.129   6.524  62.531  1.00  0.00    -0.022 Cl 
HETATM   19  C   UNL     1      -5.134   8.159  64.681  1.00  0.00    -0.036 A  
HETATM   20  C   UNL     1      -5.832   7.725  63.546  1.00  0.00    -0.057 A  
ENDBRANCH   5  11
BRANCH   9  21
HETATM   21  C   UNL     1     -10.270   8.609  69.089  1.00  0.00    -0.215 A  
HETATM   22  C   UNL     1      -9.552   8.038  68.030  1.00  0.00    -0.170 A  
HETATM   23  C   UNL     1      -8.314   6.235  66.834  1.00  0.00    -0.109 C  
HETATM   24  C   UNL     1     -11.057   7.672  69.801  1.00  0.00    -0.106 A  
HETATM   25  C   UNL     1     -10.218   5.781  68.435  1.00  0.00    -0.242 A  
HETATM   26  C   UNL     1     -11.078   6.294  69.407  1.00  0.00    -0.477 A  
HETATM   27  C   UNL     1      -9.403   6.667  67.772  1.00  0.00    -0.119 A  
BRANCH  24  28
HETATM   28  N   UNL     1     -11.845   7.956  70.950  1.00  0.00    -0.267 NA 
HETATM   29  N   UNL     1     -11.377   7.880  72.225  1.00  0.00    -0.310 NA 
HETATM   30  C   UNL     1     -13.604   8.083  72.117  1.00  0.00    -0.170 A  
HETATM   31  C   UNL     1     -12.489   8.030  72.950  1.00  0.00     0.236 A  
HETATM   32  N   UNL     1     -13.219   7.984  70.846  1.00  0.00     0.122 NA 
ENDBRANCH  24  28
ENDBRANCH   9  21
TORSDOF 3
ENDMDL
MODEL      133
REMARK 921   NORMALIZED FREE ENERGY PREDICTED BY IDOCK:   -2.82 KCAL/MOL
REMARK 922        TOTAL FREE ENERGY PREDICTED BY IDOCK:   -4.94 KCAL/MOL
REMARK 923 INTER-LIGAND FREE ENERGY PREDICTED BY IDOCK:   -4.23 KCAL/MOL
REMARK 924 INTRA-LIGAND FREE ENERGY PREDICTED BY IDOCK:   -0.71 KCAL/MOL
REMARK 927      BINDING AFFINITY PREDICTED BY RF-SCORE:    0.00 PKD
ROOT
HETATM    1  C   UNL     1     -10.547  13.181  66.421  1.00  0.00    -0.286 C  
HETATM    2  C   UNL     1     -10.972  14.543  65.825  1.00  0.00    -0.319 C  
HETATM    3  C   UNL     1     -11.784  12.378  66.929  1.00  0.00    -0.432 C  
HETATM    4  C   UNL     1     -12.330  12.648  68.341  1.00  0.00     0.355 C  
HETATM    5  N   UNL     1     -11.365  12.385  69.394  1.00  0.00    -0.246 NA 
HETATM    6  C   UNL     1     -10.454  13.454  69.779  1.00  0.00     0.805 C  
HETATM    7  O   UNL     1      -7.919  12.258  66.099  1.00  0.00     0.363 OA 
HETATM    8  C   UNL     1      -9.850  14.180  68.566  1.00  0.00    -0.230 C  
HETATM    9  C   UNL     1      -8.222  12.622  67.247  1.00  0.00    -0.184 C  
HETATM   10  N   UNL     1      -9.466  13.312  67.444  1.00  0.00    -0.211 N  
ENDROOT
BRANCH   5  11
HETATM   11  C   UNL     1     -11.224  11.193  70.022  1.00  0.00    -0.181 A  
HETATM   12  N   UNL     1     -10.358  10.241  69.727  1.00  0.00    -0.253 NA 
HETATM   13  C   UNL     1     -11.671   9.629  71.442  1.00  0.00    -0.404 A  
HETATM   14  C   UNL     1     -12.209   8.834  72.444  1.00  0.00    -0.396 A  
HETATM   15  C   UNL     1     -10.135   7.931  70.690  1.00  0.00    -0.197 A  
HETATM   16  C   UNL     1     -10.659   9.226  70.587  1.00  0.00    -0.262 A  
HETATM   17  O   UNL     1     -12.035  10.900  71.089  1.00  0.00    -0.314 OA 
HETATM   18 CL   UNL     1     -10.129   5.463  71.776  1.00  0.00    -0.241 Cl 
HETATM   19  C   UNL     1     -11.698   7.530  72.523  1.00  0.00    -0.310 A  
HETATM   20  C   UNL     1     -10.686   7.088  71.661  1.00  0.00    -0.220 A  
ENDBRANCH   5  11
BRANCH   9  21
HETATM   21  C   UNL     1      -7.197  12.334  68.366  1.00  0.00    -0.102 A  
HETATM   22  C   UNL     1      -6.757  13.365  69.206  1.00  0.00    -0.072 A  
HETATM   23  C   UNL     1      -5.873  14.356  71.316  1.00  0.00    -0.149 C  
HETATM   24  C   UNL     1      -6.556  11.096  68.615  1.00  0.00    -0.059 A  
HETATM   25  C   UNL     1      -5.282  12.027  70.526  1.00  0.00    -0.128 A  
HETATM   26  C   UNL     1      -5.554  10.990  69.633  1.00  0.00    -0.043 A  
HETATM   27  C   UNL     1      -5.937  13.221  70.336  1.00  0.00    -0.124 A  
BRANCH  24  28
HETATM   28  N   UNL     1      -6.840   9.870  67.953  1.00  0.00    -0.075 NA 
HETATM   29  N   UNL     1      -5.904   9.126  67.305  1.00  0.00    -0.046 NA 
HETATM   30  C   UNL     1      -8.000   8.464  66.880  1.00  0.00    -0.099 A  
HETATM   31  C   UNL     1      -6.646   8.203  66.687  1.00  0.00    -0.056 A  
HETATM   32  N   UNL     1      -8.143   9.550  67.637  1.00  0.00    -0.109 NA 
ENDBRANCH  24  28
ENDBRANCH   9  21
TORSDOF 3
ENDMDL
MODEL      134
REMARK 921   NORMALIZED FREE ENERGY PREDICTED BY IDOCK:   -2.78 KCAL/MOL
REMARK 922        TOTAL FREE ENERGY PREDICTED BY IDOCK:   -4.89 KCAL/MOL
REMARK 923 INTER-LIGAND FREE ENERGY PREDICTED BY IDOCK:   -3.69 KCAL/MOL
REMARK 924 INTRA-LIGAND FREE ENERGY PREDICTED BY IDOCK:   -1.21 KCAL/MOL
REMARK 927      BINDING AFFINITY PREDICTED BY RF-SCORE:    0.00 PKD
ROOT
HETATM    1  C   UNL     1     -10.383  10.866  66.543  1.00  0.00    -0.247 C  
HETATM    2  C   UNL     1     -10.813  11.673  65.296  1.00  0.00    -0.340 C  
HETATM    3  C   UNL     1      -9.957  11.813  67.708  1.00  0.00    -0.198 C  
HETATM    4  C   UNL     1      -8.516  12.349  67.753  1.00  0.00    -0.169 C  
HETATM    5  N   UNL     1      -7.512  11.303  67.851  1.00  0.00    -0.091 NA 
HETATM    6  C   UNL     1      -7.018  10.703  66.619  1.00  0.00    -0.119 C  
HETATM    7  O   UNL     1     -10.843   8.103  66.664  1.00  0.00    -0.100 OA 
HETATM    8  C   UNL     1      -8.146  10.374  65.628  1.00  0.00    -0.156 C  
HETATM    9  C   UNL     1      -9.657   8.443  66.524  1.00  0.00    -0.236 C  
HETATM   10  N   UNL     1      -9.366   9.818  66.230  1.00  0.00    -0.169 N  
ENDROOT
BRANCH   5  11
HETATM   11  C   UNL     1      -7.029  10.814  69.017  1.00  0.00    -0.085 A  
HETATM   12  N   UNL     1      -7.291   9.635  69.551  1.00  0.00    -0.075 NA 
HETATM   13  C   UNL     1      -5.920  10.826  70.870  1.00  0.00     0.017 A  
HETATM   14  C   UNL     1      -5.135  11.152  71.967  1.00  0.00     0.131 A  
HETATM   15  C   UNL     1      -6.610   8.706  71.783  1.00  0.00    -0.076 A  
HETATM   16  C   UNL     1      -6.634   9.646  70.746  1.00  0.00    -0.099 A  
HETATM   17  O   UNL     1      -6.163  11.581  69.755  1.00  0.00    -0.109 OA 
HETATM   18 CL   UNL     1      -5.866   7.933  74.258  1.00  0.00    -0.079 Cl 
HETATM   19  C   UNL     1      -5.139  10.217  73.014  1.00  0.00     0.066 A  
HETATM   20  C   UNL     1      -5.865   9.022  72.924  1.00  0.00    -0.026 A  
ENDBRANCH   5  11
BRANCH   9  21
HETATM   21  C   UNL     1      -8.592   7.330  66.636  1.00  0.00    -0.128 A  
HETATM   22  C   UNL     1      -7.650   7.144  65.616  1.00  0.00    -0.093 A  
HETATM   23  C   UNL     1      -5.458   6.466  64.642  1.00  0.00    -0.022 C  
HETATM   24  C   UNL     1      -8.491   6.371  67.672  1.00  0.00    -0.117 A  
HETATM   25  C   UNL     1      -6.508   5.309  66.631  1.00  0.00    -0.041 A  
HETATM   26  C   UNL     1      -7.505   5.333  67.607  1.00  0.00    -0.083 A  
HETATM   27  C   UNL     1      -6.556   6.267  65.647  1.00  0.00    -0.047 A  
BRANCH  24  28
HETATM   28  N   UNL     1      -9.279   6.345  68.856  1.00  0.00    -0.128 NA 
HETATM   29  N   UNL     1      -8.785   6.592  70.098  1.00  0.00    -0.139 NA 
HETATM   30  C   UNL     1     -10.852   5.731  70.130  1.00  0.00    -0.313 A  
HETATM   31  C   UNL     1      -9.812   6.264  70.888  1.00  0.00    -0.181 A  
HETATM   32  N   UNL     1     -10.510   5.724  68.843  1.00  0.00    -0.237 NA 
ENDBRANCH  24  28
ENDBRANCH   9  21
TORSDOF 3
ENDMDL
MODEL      135
REMARK 921   NORMALIZED FREE ENERGY PREDICTED BY IDOCK:   -2.75 KCAL/MOL
REMARK 922        TOTAL FREE ENERGY PREDICTED BY IDOCK:   -4.85 KCAL/MOL
REMARK 923 INTER-LIGAND FREE ENERGY PREDICTED BY IDOCK:   -4.71 KCAL/MOL
REMARK 924 INTRA-LIGAND FREE ENERGY PREDICTED BY IDOCK:   -0.14 KCAL/MOL
REMARK 927      BINDING AFFINITY PREDICTED BY RF-SCORE:    0.00 PKD
ROOT
HETATM    1  C   UNL     1     -11.791  15.344  68.738  1.00  0.00    -0.318 C  
HETATM    2  C   UNL     1     -12.492  15.651  70.082  1.00  0.00    -0.311 C  
HETATM    3  C   UNL     1     -12.481  14.156  68.000  1.00  0.00     0.218 C  
HETATM    4  C   UNL     1     -12.081  12.714  68.357  1.00  0.00    -0.087 C  
HETATM    5  N   UNL     1     -10.679  12.426  68.116  1.00  0.00    -0.213 NA 
HETATM    6  C   UNL     1      -9.722  12.720  69.173  1.00  0.00     0.530 C  
HETATM    7  O   UNL     1      -9.865  17.108  67.717  1.00  0.00    -0.261 OA 
HETATM    8  C   UNL     1      -9.959  14.095  69.819  1.00  0.00     0.687 C  
HETATM    9  C   UNL     1      -9.428  16.028  68.147  1.00  0.00    -0.208 C  
HETATM   10  N   UNL     1     -10.314  15.172  68.885  1.00  0.00    -0.235 N  
ENDROOT
BRANCH   5  11
HETATM   11  C   UNL     1     -10.187  11.936  66.953  1.00  0.00    -0.208 A  
HETATM   12  N   UNL     1      -9.177  11.097  66.810  1.00  0.00    -0.168 NA 
HETATM   13  C   UNL     1     -10.014  11.692  64.815  1.00  0.00    -0.254 A  
HETATM   14  C   UNL     1     -10.149  11.769  63.435  1.00  0.00    -0.470 A  
HETATM   15  C   UNL     1      -8.066  10.278  64.712  1.00  0.00    -0.151 A  
HETATM   16  C   UNL     1      -9.026  10.969  65.461  1.00  0.00    -0.194 A  
HETATM   17  O   UNL     1     -10.772  12.312  65.770  1.00  0.00    -0.249 OA 
HETATM   18 CL   UNL     1      -6.943   9.602  62.355  1.00  0.00    -0.098 Cl 
HETATM   19  C   UNL     1      -9.167  11.096  62.692  1.00  0.00    -0.357 A  
HETATM   20  C   UNL     1      -8.145  10.371  63.319  1.00  0.00    -0.136 A  
ENDBRANCH   5  11
BRANCH   9  21
HETATM   21  C   UNL     1      -7.937  15.721  67.882  1.00  0.00    -0.147 A  
HETATM   22  C   UNL     1      -7.425  14.438  68.114  1.00  0.00    -0.128 A  
HETATM   23  C   UNL     1      -5.884  12.509  67.771  1.00  0.00    -0.118 C  
HETATM   24  C   UNL     1      -6.951  16.653  67.477  1.00  0.00    -0.148 A  
HETATM   25  C   UNL     1      -5.180  14.918  67.458  1.00  0.00     0.169 A  
HETATM   26  C   UNL     1      -5.581  16.251  67.355  1.00  0.00    -0.158 A  
HETATM   27  C   UNL     1      -6.135  13.989  67.795  1.00  0.00    -0.134 A  
BRANCH  24  28
HETATM   28  N   UNL     1      -7.189  18.010  67.124  1.00  0.00    -0.191 NA 
HETATM   29  N   UNL     1      -7.284  19.021  68.028  1.00  0.00    -0.240 NA 
HETATM   30  C   UNL     1      -7.953  19.613  65.975  1.00  0.00    -0.328 A  
HETATM   31  C   UNL     1      -7.702  20.042  67.276  1.00  0.00    -0.294 A  
HETATM   32  N   UNL     1      -7.685  18.312  65.874  1.00  0.00    -0.512 NA 
ENDBRANCH  24  28
ENDBRANCH   9  21
TORSDOF 3
ENDMDL
MODEL      136
REMARK 921   NORMALIZED FREE ENERGY PREDICTED BY IDOCK:   -2.74 KCAL/MOL
REMARK 922        TOTAL FREE ENERGY PREDICTED BY IDOCK:   -4.85 KCAL/MOL
REMARK 923 INTER-LIGAND FREE ENERGY PREDICTED BY IDOCK:   -3.85 KCAL/MOL
REMARK 924 INTRA-LIGAND FREE ENERGY PREDICTED BY IDOCK:   -1.00 KCAL/MOL
REMARK 927      BINDING AFFINITY PREDICTED BY RF-SCORE:    0.00 PKD
ROOT
HETATM    1  C   UNL     1     -13.049   7.271  71.090  1.00  0.00    -0.230 C  
HETATM    2  C   UNL     1     -13.737   6.522  72.255  1.00  0.00     0.249 C  
HETATM    3  C   UNL     1     -11.809   6.483  70.566  1.00  0.00    -0.393 C  
HETATM    4  C   UNL     1     -10.453   6.657  71.270  1.00  0.00    -0.215 C  
HETATM    5  N   UNL     1      -9.958   8.022  71.242  1.00  0.00    -0.172 NA 
HETATM    6  C   UNL     1     -10.378   8.931  72.299  1.00  0.00    -0.134 C  
HETATM    7  O   UNL     1     -14.296   9.485  69.904  1.00  0.00     1.271 OA 
HETATM    8  C   UNL     1     -11.882   8.835  72.598  1.00  0.00    -0.058 C  
HETATM    9  C   UNL     1     -13.302   9.741  70.604  1.00  0.00     0.027 C  
HETATM   10  N   UNL     1     -12.748   8.697  71.419  1.00  0.00    -0.302 N  
ENDROOT
BRANCH   5  11
HETATM   11  C   UNL     1      -9.160   8.526  70.271  1.00  0.00    -0.154 A  
HETATM   12  N   UNL     1      -8.640   7.867  69.251  1.00  0.00    -0.137 NA 
HETATM   13  C   UNL     1      -7.993  10.016  69.231  1.00  0.00    -0.130 A  
HETATM   14  C   UNL     1      -7.337  11.170  68.823  1.00  0.00    -0.114 A  
HETATM   15  C   UNL     1      -7.003   8.647  67.513  1.00  0.00    -0.078 A  
HETATM   16  C   UNL     1      -7.862   8.785  68.610  1.00  0.00    -0.103 A  
HETATM   17  O   UNL     1      -8.834   9.859  70.298  1.00  0.00    -0.187 OA 
HETATM   18 CL   UNL     1      -5.167   9.643  65.807  1.00  0.00    -0.035 Cl 
HETATM   19  C   UNL     1      -6.459  11.016  67.740  1.00  0.00    -0.063 A  
HETATM   20  C   UNL     1      -6.293   9.780  67.103  1.00  0.00    -0.068 A  
ENDBRANCH   5  11
BRANCH   9  21
HETATM   21  C   UNL     1     -12.774  11.192  70.565  1.00  0.00    -0.302 A  
HETATM   22  C   UNL     1     -13.203  12.128  71.515  1.00  0.00    -0.270 A  
HETATM   23  C   UNL     1     -13.014  14.152  72.958  1.00  0.00    -0.432 C  
HETATM   24  C   UNL     1     -11.913  11.743  69.586  1.00  0.00    -0.312 A  
HETATM   25  C   UNL     1     -11.920  13.964  70.686  1.00  0.00    -0.364 A  
HETATM   26  C   UNL     1     -11.571  13.134  69.620  1.00  0.00    -0.321 A  
HETATM   27  C   UNL     1     -12.709  13.432  71.677  1.00  0.00    -0.360 A  
BRANCH  24  28
HETATM   28  N   UNL     1     -11.285  11.019  68.535  1.00  0.00    -0.244 NA 
HETATM   29  N   UNL     1     -10.710  11.605  67.451  1.00  0.00    -0.222 NA 
HETATM   30  C   UNL     1     -10.950   9.391  67.227  1.00  0.00     0.048 A  
HETATM   31  C   UNL     1     -10.443  10.560  66.664  1.00  0.00    -0.228 A  
HETATM   32  N   UNL     1     -11.536   9.671  68.389  1.00  0.00     0.185 NA 
ENDBRANCH  24  28
ENDBRANCH   9  21
TORSDOF 3
ENDMDL
MODEL      137
REMARK 921   NORMALIZED FREE ENERGY PREDICTED BY IDOCK:   -2.65 KCAL/MOL
REMARK 922        TOTAL FREE ENERGY PREDICTED BY IDOCK:   -4.74 KCAL/MOL
REMARK 923 INTER-LIGAND FREE ENERGY PREDICTED BY IDOCK:   -3.89 KCAL/MOL
REMARK 924 INTRA-LIGAND FREE ENERGY PREDICTED BY IDOCK:   -0.85 KCAL/MOL
REMARK 927      BINDING AFFINITY PREDICTED BY RF-SCORE:    0.00 PKD
ROOT
HETATM    1  C   UNL     1     -10.719   7.462  70.645  1.00  0.00    -0.229 C  
HETATM    2  C   UNL     1     -11.986   6.594  70.831  1.00  0.00    -0.413 C  
HETATM    3  C   UNL     1     -10.994   8.949  71.026  1.00  0.00    -0.341 C  
HETATM    4  C   UNL     1     -11.604   9.895  69.977  1.00  0.00    -0.175 C  
HETATM    5  N   UNL     1     -10.781  10.049  68.790  1.00  0.00    -0.215 NA 
HETATM    6  C   UNL     1     -10.948   9.092  67.705  1.00  0.00     0.037 C  
HETATM    7  O   UNL     1      -8.239   6.251  70.151  1.00  0.00    -0.117 OA 
HETATM    8  C   UNL     1     -11.029   7.641  68.205  1.00  0.00     0.144 C  
HETATM    9  C   UNL     1      -8.743   6.851  69.188  1.00  0.00    -0.135 C  
HETATM   10  N   UNL     1     -10.103   7.301  69.294  1.00  0.00    -0.178 N  
ENDROOT
BRANCH   5  11
HETATM   11  C   UNL     1      -9.834  11.004  68.635  1.00  0.00    -0.193 A  
HETATM   12  N   UNL     1     -10.027  12.261  68.279  1.00  0.00    -0.214 NA 
HETATM   13  C   UNL     1      -7.843  11.838  68.576  1.00  0.00    -0.144 A  
HETATM   14  C   UNL     1      -6.472  12.055  68.608  1.00  0.00    -0.063 A  
HETATM   15  C   UNL     1      -8.342  14.056  67.777  1.00  0.00    -0.176 A  
HETATM   16  C   UNL     1      -8.773  12.790  68.192  1.00  0.00    -0.193 A  
HETATM   17  O   UNL     1      -8.520  10.687  68.871  1.00  0.00    -0.139 OA 
HETATM   18 CL   UNL     1      -6.382  15.808  67.179  1.00  0.00    -0.101 Cl 
HETATM   19  C   UNL     1      -6.048  13.317  68.165  1.00  0.00    -0.108 A  
HETATM   20  C   UNL     1      -6.964  14.293  67.754  1.00  0.00    -0.177 A  
ENDBRANCH   5  11
BRANCH   9  21
HETATM   21  C   UNL     1      -7.863   7.020  67.930  1.00  0.00    -0.114 A  
HETATM   22  C   UNL     1      -7.934   8.193  67.168  1.00  0.00    -0.105 A  
HETATM   23  C   UNL     1      -7.079   9.964  65.635  1.00  0.00    -0.112 C  
HETATM   24  C   UNL     1      -6.994   6.047  67.380  1.00  0.00    -0.069 A  
HETATM   25  C   UNL     1      -6.311   7.556  65.536  1.00  0.00    -0.041 A  
HETATM   26  C   UNL     1      -6.301   6.304  66.153  1.00  0.00    -0.039 A  
HETATM   27  C   UNL     1      -7.105   8.532  66.088  1.00  0.00    -0.077 A  
BRANCH  24  28
HETATM   28  N   UNL     1      -6.687   4.787  67.964  1.00  0.00    -0.053 NA 
HETATM   29  N   UNL     1      -7.519   3.712  67.924  1.00  0.00    -0.062 NA 
HETATM   30  C   UNL     1      -5.813   3.449  69.349  1.00  0.00    -0.023 A  
HETATM   31  C   UNL     1      -6.919   2.851  68.750  1.00  0.00    -0.048 A  
HETATM   32  N   UNL     1      -5.682   4.697  68.903  1.00  0.00    -0.016 NA 
ENDBRANCH  24  28
ENDBRANCH   9  21
TORSDOF 3
ENDMDL
MODEL      138
REMARK 921   NORMALIZED FREE ENERGY PREDICTED BY IDOCK:   -2.62 KCAL/MOL
REMARK 922        TOTAL FREE ENERGY PREDICTED BY IDOCK:   -4.70 KCAL/MOL
REMARK 923 INTER-LIGAND FREE ENERGY PREDICTED BY IDOCK:   -3.09 KCAL/MOL
REMARK 924 INTRA-LIGAND FREE ENERGY PREDICTED BY IDOCK:   -1.61 KCAL/MOL
REMARK 927      BINDING AFFINITY PREDICTED BY RF-SCORE:    0.00 PKD
ROOT
HETATM    1  C   UNL     1      -6.853   7.142  66.500  1.00  0.00    -0.065 C  
HETATM    2  C   UNL     1      -5.457   6.525  66.250  1.00  0.00    -0.014 C  
HETATM    3  C   UNL     1      -6.860   8.669  66.178  1.00  0.00    -0.073 C  
HETATM    4  C   UNL     1      -6.400   9.667  67.253  1.00  0.00    -0.068 C  
HETATM    5  N   UNL     1      -7.203   9.625  68.462  1.00  0.00    -0.070 NA 
HETATM    6  C   UNL     1      -6.837   8.673  69.502  1.00  0.00    -0.044 C  
HETATM    7  O   UNL     1      -9.061   5.486  66.993  1.00  0.00    -0.113 OA 
HETATM    8  C   UNL     1      -6.511   7.281  68.938  1.00  0.00    -0.040 C  
HETATM    9  C   UNL     1      -8.646   6.130  67.970  1.00  0.00    -0.115 C  
HETATM   10  N   UNL     1      -7.392   6.821  67.855  1.00  0.00    -0.094 N  
ENDROOT
BRANCH   5  11
HETATM   11  C   UNL     1      -8.302  10.388  68.678  1.00  0.00    -0.127 A  
HETATM   12  N   UNL     1      -8.643  11.486  68.029  1.00  0.00    -0.143 NA 
HETATM   13  C   UNL     1     -10.131  11.011  69.641  1.00  0.00     0.176 A  
HETATM   14  C   UNL     1     -11.241  11.148  70.464  1.00  0.00     0.153 A  
HETATM   15  C   UNL     1     -10.539  13.074  68.466  1.00  0.00    -0.274 A  
HETATM   16  C   UNL     1      -9.774  11.918  68.657  1.00  0.00    -0.108 A  
HETATM   17  O   UNL     1      -9.191  10.017  69.654  1.00  0.00    -0.210 OA 
HETATM   18 CL   UNL     1     -12.567  14.710  69.163  1.00  0.00     0.010 Cl 
HETATM   19  C   UNL     1     -11.986  12.323  70.283  1.00  0.00    -0.373 A  
HETATM   20  C   UNL     1     -11.639  13.267  69.309  1.00  0.00    -0.314 A  
ENDBRANCH   5  11
BRANCH   9  21
HETATM   21  C   UNL     1      -9.506   6.089  69.252  1.00  0.00    -0.152 A  
HETATM   22  C   UNL     1     -10.501   7.052  69.469  1.00  0.00    -0.235 A  
HETATM   23  C   UNL     1     -12.642   7.941  70.385  1.00  0.00     0.591 C  
HETATM   24  C   UNL     1      -9.355   5.187  70.333  1.00  0.00    -0.157 A  
HETATM   25  C   UNL     1     -11.237   6.211  71.580  1.00  0.00    -0.342 A  
HETATM   26  C   UNL     1     -10.166   5.319  71.506  1.00  0.00    -0.276 A  
HETATM   27  C   UNL     1     -11.435   7.057  70.516  1.00  0.00    -0.363 A  
BRANCH  24  28
HETATM   28  N   UNL     1      -8.462   4.081  70.368  1.00  0.00    -0.064 NA 
HETATM   29  N   UNL     1      -7.121   4.197  70.558  1.00  0.00    -0.037 NA 
HETATM   30  C   UNL     1      -7.739   2.152  69.889  1.00  0.00    -0.042 A  
HETATM   31  C   UNL     1      -6.686   2.957  70.318  1.00  0.00    -0.033 A  
HETATM   32  N   UNL     1      -8.864   2.863  69.863  1.00  0.00    -0.078 NA 
ENDBRANCH  24  28
ENDBRANCH   9  21
TORSDOF 3
ENDMDL
MODEL      139
REMARK 921   NORMALIZED FREE ENERGY PREDICTED BY IDOCK:   -2.48 KCAL/MOL
REMARK 922        TOTAL FREE ENERGY PREDICTED BY IDOCK:   -4.54 KCAL/MOL
REMARK 923 INTER-LIGAND FREE ENERGY PREDICTED BY IDOCK:   -4.30 KCAL/MOL
REMARK 924 INTRA-LIGAND FREE ENERGY PREDICTED BY IDOCK:   -0.24 KCAL/MOL
REMARK 927      BINDING AFFINITY PREDICTED BY RF-SCORE:    0.00 PKD
ROOT
HETATM    1  C   UNL     1     -10.907   9.764  67.712  1.00  0.00    -0.246 C  
HETATM    2  C   UNL     1     -10.926  11.223  67.201  1.00  0.00    -0.348 C  
HETATM    3  C   UNL     1     -11.744   9.613  69.019  1.00  0.00     0.425 C  
HETATM    4  C   UNL     1     -11.089   9.930  70.374  1.00  0.00    -0.319 C  
HETATM    5  N   UNL     1      -9.940   9.092  70.671  1.00  0.00    -0.227 NA 
HETATM    6  C   UNL     1      -8.634   9.515  70.188  1.00  0.00    -0.224 C  
HETATM    7  O   UNL     1      -9.859   7.719  66.105  1.00  0.00    -0.096 OA 
HETATM    8  C   UNL     1      -8.673  10.001  68.730  1.00  0.00    -0.136 C  
HETATM    9  C   UNL     1      -9.171   8.032  67.090  1.00  0.00    -0.142 C  
HETATM   10  N   UNL     1      -9.523   9.212  67.829  1.00  0.00    -0.139 N  
ENDROOT
BRANCH   5  11
HETATM   11  C   UNL     1     -10.005   7.915  71.337  1.00  0.00    -0.172 A  
HETATM   12  N   UNL     1      -9.701   6.720  70.865  1.00  0.00    -0.178 NA 
HETATM   13  C   UNL     1     -10.413   6.585  72.988  1.00  0.00    -0.234 A  
HETATM   14  C   UNL     1     -10.786   6.015  74.198  1.00  0.00    -0.013 A  
HETATM   15  C   UNL     1      -9.963   4.464  71.938  1.00  0.00    -0.258 A  
HETATM   16  C   UNL     1      -9.998   5.862  71.882  1.00  0.00    -0.171 A  
HETATM   17  O   UNL     1     -10.412   7.909  72.648  1.00  0.00    -0.267 OA 
HETATM   18 CL   UNL     1     -10.421   2.135  73.219  1.00  0.00    -0.205 Cl 
HETATM   19  C   UNL     1     -10.773   4.612  74.236  1.00  0.00    -0.277 A  
HETATM   20  C   UNL     1     -10.375   3.854  73.127  1.00  0.00    -0.168 A  
ENDBRANCH   5  11
BRANCH   9  21
HETATM   21  C   UNL     1      -7.954   7.134  67.407  1.00  0.00    -0.112 A  
HETATM   22  C   UNL     1      -6.958   7.576  68.287  1.00  0.00    -0.068 A  
HETATM   23  C   UNL     1      -5.133   7.322  69.967  1.00  0.00    -0.019 C  
HETATM   24  C   UNL     1      -7.671   5.874  66.828  1.00  0.00    -0.100 A  
HETATM   25  C   UNL     1      -5.588   5.624  68.148  1.00  0.00    -0.012 A  
HETATM   26  C   UNL     1      -6.456   5.185  67.147  1.00  0.00    -0.048 A  
HETATM   27  C   UNL     1      -5.876   6.819  68.763  1.00  0.00    -0.018 A  
BRANCH  24  28
HETATM   28  N   UNL     1      -8.525   5.160  65.942  1.00  0.00    -0.117 NA 
HETATM   29  N   UNL     1      -8.560   5.362  64.598  1.00  0.00    -0.130 NA 
HETATM   30  C   UNL     1     -10.258   4.107  65.342  1.00  0.00    -0.177 A  
HETATM   31  C   UNL     1      -9.618   4.638  64.225  1.00  0.00     0.073 A  
HETATM   32  N   UNL     1      -9.609   4.473  66.445  1.00  0.00    -0.171 NA 
ENDBRANCH  24  28
ENDBRANCH   9  21
TORSDOF 3
ENDMDL
MODEL      140
REMARK 921   NORMALIZED FREE ENERGY PREDICTED BY IDOCK:   -2.41 KCAL/MOL
REMARK 922        TOTAL FREE ENERGY PREDICTED BY IDOCK:   -4.46 KCAL/MOL
REMARK 923 INTER-LIGAND FREE ENERGY PREDICTED BY IDOCK:   -3.63 KCAL/MOL
REMARK 924 INTRA-LIGAND FREE ENERGY PREDICTED BY IDOCK:   -0.84 KCAL/MOL
REMARK 927      BINDING AFFINITY PREDICTED BY RF-SCORE:    0.00 PKD
ROOT
HETATM    1  C   UNL     1      -6.976   2.730  72.903  1.00  0.00    -0.028 C  
HETATM    2  C   UNL     1      -7.151   1.828  74.147  1.00  0.00    -0.024 C  
HETATM    3  C   UNL     1      -5.612   3.484  72.940  1.00  0.00     0.000 C  
HETATM    4  C   UNL     1      -5.503   4.806  73.719  1.00  0.00    -0.013 C  
HETATM    5  N   UNL     1      -6.391   5.844  73.224  1.00  0.00    -0.065 NA 
HETATM    6  C   UNL     1      -7.748   5.899  73.749  1.00  0.00    -0.096 C  
HETATM    7  O   UNL     1      -8.762   2.526  70.751  1.00  0.00    -0.057 OA 
HETATM    8  C   UNL     1      -8.410   4.514  73.822  1.00  0.00    -0.104 C  
HETATM    9  C   UNL     1      -8.864   3.557  71.435  1.00  0.00    -0.088 C  
HETATM   10  N   UNL     1      -8.145   3.632  72.677  1.00  0.00    -0.076 N  
ENDROOT
BRANCH   5  11
HETATM   11  C   UNL     1      -6.056   6.746  72.271  1.00  0.00    -0.042 A  
HETATM   12  N   UNL     1      -5.909   8.049  72.430  1.00  0.00    -0.041 NA 
HETATM   13  C   UNL     1      -5.571   7.459  70.292  1.00  0.00    -0.024 A  
HETATM   14  C   UNL     1      -5.310   7.592  68.935  1.00  0.00    -0.022 A  
HETATM   15  C   UNL     1      -5.483   9.830  70.711  1.00  0.00    -0.057 A  
HETATM   16  C   UNL     1      -5.647   8.520  71.178  1.00  0.00    -0.034 A  
HETATM   17  O   UNL     1      -5.825   6.311  70.991  1.00  0.00    -0.025 OA 
HETATM   18 CL   UNL     1      -5.133  11.599  68.707  1.00  0.00    -0.047 Cl 
HETATM   19  C   UNL     1      -5.175   8.910  68.471  1.00  0.00    -0.037 A  
HETATM   20  C   UNL     1      -5.264  10.004  69.341  1.00  0.00    -0.035 A  
ENDBRANCH   5  11
BRANCH   9  21
HETATM   21  C   UNL     1      -9.803   4.661  70.902  1.00  0.00    -0.272 A  
HETATM   22  C   UNL     1     -10.613   5.390  71.783  1.00  0.00    -0.286 A  
HETATM   23  C   UNL     1     -11.906   7.370  72.572  1.00  0.00    -0.226 C  
HETATM   24  C   UNL     1     -10.010   4.998  69.543  1.00  0.00    -0.232 A  
HETATM   25  C   UNL     1     -11.639   6.773  70.129  1.00  0.00    -0.397 A  
HETATM   26  C   UNL     1     -10.982   5.987  69.181  1.00  0.00    -0.429 A  
HETATM   27  C   UNL     1     -11.407   6.499  71.456  1.00  0.00    -0.339 A  
BRANCH  24  28
HETATM   28  N   UNL     1      -9.294   4.460  68.438  1.00  0.00    -0.138 NA 
HETATM   29  N   UNL     1      -7.961   4.641  68.241  1.00  0.00    -0.084 NA 
HETATM   30  C   UNL     1      -9.004   3.778  66.457  1.00  0.00    -0.139 A  
HETATM   31  C   UNL     1      -7.781   4.145  67.014  1.00  0.00    -0.092 A  
HETATM   32  N   UNL     1      -9.982   4.022  67.327  1.00  0.00    -0.079 NA 
ENDBRANCH  24  28
ENDBRANCH   9  21
TORSDOF 3
ENDMDL
MODEL      141
REMARK 921   NORMALIZED FREE ENERGY PREDICTED BY IDOCK:   -2.37 KCAL/MOL
REMARK 922        TOTAL FREE ENERGY PREDICTED BY IDOCK:   -4.41 KCAL/MOL
REMARK 923 INTER-LIGAND FREE ENERGY PREDICTED BY IDOCK:   -3.12 KCAL/MOL
REMARK 924 INTRA-LIGAND FREE ENERGY PREDICTED BY IDOCK:   -1.29 KCAL/MOL
REMARK 927      BINDING AFFINITY PREDICTED BY RF-SCORE:    0.00 PKD
ROOT
HETATM    1  C   UNL     1      -6.317   7.778  71.713  1.00  0.00    -0.039 C  
HETATM    2  C   UNL     1      -6.471   8.383  73.127  1.00  0.00    -0.113 C  
HETATM    3  C   UNL     1      -6.362   8.887  70.617  1.00  0.00    -0.045 C  
HETATM    4  C   UNL     1      -7.724   9.370  70.090  1.00  0.00    -0.136 C  
HETATM    5  N   UNL     1      -8.509   8.319  69.467  1.00  0.00    -0.124 NA 
HETATM    6  C   UNL     1      -9.371   7.507  70.314  1.00  0.00    -0.161 C  
HETATM    7  O   UNL     1      -5.579   5.090  71.401  1.00  0.00    -0.007 OA 
HETATM    8  C   UNL     1      -8.675   7.060  71.610  1.00  0.00    -0.116 C  
HETATM    9  C   UNL     1      -6.757   5.359  71.114  1.00  0.00    -0.044 C  
HETATM   10  N   UNL     1      -7.270   6.656  71.459  1.00  0.00    -0.080 N  
ENDROOT
BRANCH   5  11
HETATM   11  C   UNL     1      -8.466   8.011  68.149  1.00  0.00    -0.123 A  
HETATM   12  N   UNL     1      -8.633   6.818  67.608  1.00  0.00    -0.121 NA 
HETATM   13  C   UNL     1      -8.206   8.359  66.034  1.00  0.00    -0.112 A  
HETATM   14  C   UNL     1      -7.967   8.899  64.778  1.00  0.00    -0.129 A  
HETATM   15  C   UNL     1      -8.386   6.101  65.213  1.00  0.00    -0.144 A  
HETATM   16  C   UNL     1      -8.425   7.014  66.275  1.00  0.00    -0.134 A  
HETATM   17  O   UNL     1      -8.239   9.011  67.237  1.00  0.00    -0.103 OA 
HETATM   18 CL   UNL     1      -7.968   5.513  62.615  1.00  0.00    -0.088 Cl 
HETATM   19  C   UNL     1      -7.902   7.974  63.724  1.00  0.00    -0.142 A  
HETATM   20  C   UNL     1      -8.103   6.605  63.940  1.00  0.00    -0.012 A  
ENDBRANCH   5  11
BRANCH   9  21
HETATM   21  C   UNL     1      -7.587   4.241  70.445  1.00  0.00    -0.045 A  
HETATM   22  C   UNL     1      -7.484   4.010  69.067  1.00  0.00    -0.054 A  
HETATM   23  C   UNL     1      -7.561   2.650  66.979  1.00  0.00    -0.070 C  
HETATM   24  C   UNL     1      -8.551   3.421  71.080  1.00  0.00    -0.072 A  
HETATM   25  C   UNL     1      -9.046   2.205  68.977  1.00  0.00    -0.183 A  
HETATM   26  C   UNL     1      -9.317   2.480  70.319  1.00  0.00    -0.192 A  
HETATM   27  C   UNL     1      -8.073   2.953  68.357  1.00  0.00    -0.071 A  
BRANCH  24  28
HETATM   28  N   UNL     1      -8.831   3.402  72.474  1.00  0.00    -0.084 NA 
HETATM   29  N   UNL     1      -7.896   3.621  73.437  1.00  0.00    -0.073 NA 
HETATM   30  C   UNL     1      -9.820   2.813  74.249  1.00  0.00    -0.103 A  
HETATM   31  C   UNL     1      -8.556   3.310  74.556  1.00  0.00    -0.076 A  
HETATM   32  N   UNL     1      -9.992   2.813  72.929  1.00  0.00    -0.123 NA 
ENDBRANCH  24  28
ENDBRANCH   9  21
TORSDOF 3
ENDMDL
MODEL      142
REMARK 921   NORMALIZED FREE ENERGY PREDICTED BY IDOCK:   -2.36 KCAL/MOL
REMARK 922        TOTAL FREE ENERGY PREDICTED BY IDOCK:   -4.40 KCAL/MOL
REMARK 923 INTER-LIGAND FREE ENERGY PREDICTED BY IDOCK:   -4.12 KCAL/MOL
REMARK 924 INTRA-LIGAND FREE ENERGY PREDICTED BY IDOCK:   -0.28 KCAL/MOL
REMARK 927      BINDING AFFINITY PREDICTED BY RF-SCORE:    0.00 PKD
ROOT
HETATM    1  C   UNL     1     -11.257  13.682  70.560  1.00  0.00     0.597 C  
HETATM    2  C   UNL     1     -12.467  13.241  71.417  1.00  0.00    -0.284 C  
HETATM    3  C   UNL     1     -10.609  14.983  71.126  1.00  0.00     0.334 C  
HETATM    4  C   UNL     1     -11.190  16.349  70.725  1.00  0.00    -0.170 C  
HETATM    5  N   UNL     1     -11.140  16.602  69.295  1.00  0.00    -0.259 NA 
HETATM    6  C   UNL     1     -12.246  16.135  68.472  1.00  0.00     0.579 C  
HETATM    7  O   UNL     1     -10.228  11.974  68.588  1.00  0.00    -0.214 OA 
HETATM    8  C   UNL     1     -12.679  14.702  68.823  1.00  0.00     0.641 C  
HETATM    9  C   UNL     1     -10.838  12.971  68.168  1.00  0.00    -0.247 C  
HETATM   10  N   UNL     1     -11.582  13.767  69.104  1.00  0.00    -0.294 N  
ENDROOT
BRANCH   5  11
HETATM   11  C   UNL     1     -10.109  17.211  68.662  1.00  0.00    -0.329 A  
HETATM   12  N   UNL     1      -9.593  18.393  68.945  1.00  0.00    -0.298 NA 
HETATM   13  C   UNL     1      -8.556  17.466  67.184  1.00  0.00    -0.219 A  
HETATM   14  C   UNL     1      -7.679  17.334  66.116  1.00  0.00    -0.317 A  
HETATM   15  C   UNL     1      -7.823  19.695  67.729  1.00  0.00    -0.325 A  
HETATM   16  C   UNL     1      -8.640  18.588  67.990  1.00  0.00    -0.291 A  
HETATM   17  O   UNL     1      -9.495  16.569  67.616  1.00  0.00    -0.222 OA 
HETATM   18 CL   UNL     1      -5.988  20.977  66.224  1.00  0.00    -0.292 Cl 
HETATM   19  C   UNL     1      -6.883  18.458  65.845  1.00  0.00    -0.317 A  
HETATM   20  C   UNL     1      -6.958  19.614  66.632  1.00  0.00    -0.204 A  
ENDBRANCH   5  11
BRANCH   9  21
HETATM   21  C   UNL     1     -10.776  13.241  66.649  1.00  0.00    -0.284 A  
HETATM   22  C   UNL     1     -11.463  14.328  66.093  1.00  0.00    -0.357 A  
HETATM   23  C   UNL     1     -11.889  16.142  64.437  1.00  0.00     0.051 C  
HETATM   24  C   UNL     1     -10.129  12.434  65.682  1.00  0.00    -0.257 A  
HETATM   25  C   UNL     1     -10.804  13.939  63.831  1.00  0.00     0.428 A  
HETATM   26  C   UNL     1     -10.226  12.754  64.288  1.00  0.00    -0.352 A  
HETATM   27  C   UNL     1     -11.388  14.765  64.762  1.00  0.00    -0.399 A  
BRANCH  24  28
HETATM   28  N   UNL     1      -9.318  11.300  65.959  1.00  0.00    -0.208 NA 
HETATM   29  N   UNL     1      -7.988  11.370  66.231  1.00  0.00    -0.093 NA 
HETATM   30  C   UNL     1      -8.696   9.281  65.847  1.00  0.00    -0.154 A  
HETATM   31  C   UNL     1      -7.623  10.085  66.223  1.00  0.00    -0.106 A  
HETATM   32  N   UNL     1      -9.767  10.041  65.622  1.00  0.00    -0.251 NA 
ENDBRANCH  24  28
ENDBRANCH   9  21
TORSDOF 3
ENDMDL
MODEL      143
REMARK 921   NORMALIZED FREE ENERGY PREDICTED BY IDOCK:   -2.24 KCAL/MOL
REMARK 922        TOTAL FREE ENERGY PREDICTED BY IDOCK:   -4.26 KCAL/MOL
REMARK 923 INTER-LIGAND FREE ENERGY PREDICTED BY IDOCK:   -2.83 KCAL/MOL
REMARK 924 INTRA-LIGAND FREE ENERGY PREDICTED BY IDOCK:   -1.43 KCAL/MOL
REMARK 927      BINDING AFFINITY PREDICTED BY RF-SCORE:    0.00 PKD
ROOT
HETATM    1  C   UNL     1      -6.039  12.652  68.373  1.00  0.00    -0.063 C  
HETATM    2  C   UNL     1      -5.227  13.142  67.152  1.00  0.00     0.395 C  
HETATM    3  C   UNL     1      -5.265  11.547  69.157  1.00  0.00    -0.043 C  
HETATM    4  C   UNL     1      -5.372  10.083  68.697  1.00  0.00    -0.039 C  
HETATM    5  N   UNL     1      -6.728   9.563  68.731  1.00  0.00    -0.052 NA 
HETATM    6  C   UNL     1      -7.573   9.763  67.563  1.00  0.00    -0.091 C  
HETATM    7  O   UNL     1      -8.345  14.028  69.180  1.00  0.00     0.061 OA 
HETATM    8  C   UNL     1      -7.483  11.193  67.006  1.00  0.00    -0.132 C  
HETATM    9  C   UNL     1      -8.539  12.919  68.656  1.00  0.00     0.053 C  
HETATM   10  N   UNL     1      -7.435  12.257  68.018  1.00  0.00    -0.104 N  
ENDROOT
BRANCH   5  11
HETATM   11  C   UNL     1      -7.280   8.936  69.797  1.00  0.00    -0.055 A  
HETATM   12  N   UNL     1      -8.210   7.999  69.771  1.00  0.00    -0.118 NA 
HETATM   13  C   UNL     1      -7.638   8.501  71.881  1.00  0.00    -0.103 A  
HETATM   14  C   UNL     1      -7.647   8.475  73.270  1.00  0.00    -0.040 A  
HETATM   15  C   UNL     1      -9.436   6.911  71.674  1.00  0.00    -0.157 A  
HETATM   16  C   UNL     1      -8.480   7.747  71.083  1.00  0.00    -0.112 A  
HETATM   17  O   UNL     1      -6.855   9.265  71.060  1.00  0.00    -0.094 OA 
HETATM   18 CL   UNL     1     -10.711   5.941  73.843  1.00  0.00    -0.235 Cl 
HETATM   19  C   UNL     1      -8.626   7.656  73.853  1.00  0.00    -0.287 A  
HETATM   20  C   UNL     1      -9.503   6.895  73.071  1.00  0.00    -0.145 A  
ENDBRANCH   5  11
BRANCH   9  21
HETATM   21  C   UNL     1      -9.980  12.366  68.701  1.00  0.00    -0.117 A  
HETATM   22  C   UNL     1     -10.417  11.612  69.799  1.00  0.00     0.515 A  
HETATM   23  C   UNL     1     -12.086  10.704  71.412  1.00  0.00    -0.342 C  
HETATM   24  C   UNL     1     -10.949  12.472  67.674  1.00  0.00    -0.242 A  
HETATM   25  C   UNL     1     -12.635  11.228  69.000  1.00  0.00     0.452 A  
HETATM   26  C   UNL     1     -12.224  11.833  67.810  1.00  0.00     0.374 A  
HETATM   27  C   UNL     1     -11.726  11.165  70.029  1.00  0.00    -0.438 A  
BRANCH  24  28
HETATM   28  N   UNL     1     -10.802  13.217  66.472  1.00  0.00    -0.280 NA 
HETATM   29  N   UNL     1     -11.237  14.496  66.317  1.00  0.00    -0.336 NA 
HETATM   30  C   UNL     1     -10.649  13.529  64.385  1.00  0.00    -0.377 A  
HETATM   31  C   UNL     1     -11.071  14.701  65.007  1.00  0.00    -0.394 A  
HETATM   32  N   UNL     1     -10.524  12.561  65.292  1.00  0.00    -0.281 NA 
ENDBRANCH  24  28
ENDBRANCH   9  21
TORSDOF 3
ENDMDL
MODEL      144
REMARK 921   NORMALIZED FREE ENERGY PREDICTED BY IDOCK:   -2.15 KCAL/MOL
REMARK 922        TOTAL FREE ENERGY PREDICTED BY IDOCK:   -4.15 KCAL/MOL
REMARK 923 INTER-LIGAND FREE ENERGY PREDICTED BY IDOCK:   -3.40 KCAL/MOL
REMARK 924 INTRA-LIGAND FREE ENERGY PREDICTED BY IDOCK:   -0.74 KCAL/MOL
REMARK 927      BINDING AFFINITY PREDICTED BY RF-SCORE:    0.00 PKD
ROOT
HETATM    1  C   UNL     1     -10.406  15.247  69.085  1.00  0.00    -0.248 C  
HETATM    2  C   UNL     1     -10.759  16.751  69.009  1.00  0.00    -0.331 C  
HETATM    3  C   UNL     1      -9.187  15.001  70.025  1.00  0.00     0.350 C  
HETATM    4  C   UNL     1      -7.762  15.146  69.465  1.00  0.00    -0.197 C  
HETATM    5  N   UNL     1      -7.473  14.230  68.375  1.00  0.00    -0.113 NA 
HETATM    6  C   UNL     1      -7.813  14.640  67.020  1.00  0.00    -0.021 C  
HETATM    7  O   UNL     1     -12.142  13.334  67.994  1.00  0.00    -0.332 OA 
HETATM    8  C   UNL     1      -9.210  15.276  66.928  1.00  0.00    -0.234 C  
HETATM    9  C   UNL     1     -11.082  13.511  67.372  1.00  0.00    -0.281 C  
HETATM   10  N   UNL     1     -10.249  14.623  67.736  1.00  0.00    -0.228 N  
ENDROOT
BRANCH   5  11
HETATM   11  C   UNL     1      -6.943  12.994  68.534  1.00  0.00    -0.102 A  
HETATM   12  N   UNL     1      -6.971  12.002  67.664  1.00  0.00    -0.106 NA 
HETATM   13  C   UNL     1      -5.934  11.381  69.555  1.00  0.00    -0.086 A  
HETATM   14  C   UNL     1      -5.278  10.566  70.468  1.00  0.00    -0.062 A  
HETATM   15  C   UNL     1      -6.195   9.627  67.924  1.00  0.00    -0.052 A  
HETATM   16  C   UNL     1      -6.377  10.960  68.313  1.00  0.00    -0.056 A  
HETATM   17  O   UNL     1      -6.287  12.694  69.702  1.00  0.00    -0.124 OA 
HETATM   18 CL   UNL     1      -5.402   7.101  68.438  1.00  0.00    -0.020 Cl 
HETATM   19  C   UNL     1      -5.126   9.225  70.081  1.00  0.00    -0.028 A  
HETATM   20  C   UNL     1      -5.579   8.766  68.838  1.00  0.00    -0.040 A  
ENDBRANCH   5  11
BRANCH   9  21
HETATM   21  C   UNL     1     -10.774  12.531  66.219  1.00  0.00    -0.288 A  
HETATM   22  C   UNL     1     -10.340  11.227  66.493  1.00  0.00    -0.284 A  
HETATM   23  C   UNL     1     -10.050   8.790  66.058  1.00  0.00    -0.031 C  
HETATM   24  C   UNL     1     -10.810  12.830  64.836  1.00  0.00    -0.299 A  
HETATM   25  C   UNL     1     -10.138  10.525  64.219  1.00  0.00    -0.380 A  
HETATM   26  C   UNL     1     -10.413  11.848  63.871  1.00  0.00    -0.441 A  
HETATM   27  C   UNL     1     -10.154  10.201  65.555  1.00  0.00    -0.338 A  
BRANCH  24  28
HETATM   28  N   UNL     1     -11.258  14.053  64.265  1.00  0.00    -0.292 NA 
HETATM   29  N   UNL     1     -10.699  15.262  64.535  1.00  0.00    -0.178 NA 
HETATM   30  C   UNL     1     -12.647  15.420  63.442  1.00  0.00     1.668 A  
HETATM   31  C   UNL     1     -11.550  16.111  63.952  1.00  0.00     0.571 A  
HETATM   32  N   UNL     1     -12.504  14.117  63.680  1.00  0.00    -0.797 NA 
ENDBRANCH  24  28
ENDBRANCH   9  21
TORSDOF 3
ENDMDL
MODEL      145
REMARK 921   NORMALIZED FREE ENERGY PREDICTED BY IDOCK:   -2.03 KCAL/MOL
REMARK 922        TOTAL FREE ENERGY PREDICTED BY IDOCK:   -4.01 KCAL/MOL
REMARK 923 INTER-LIGAND FREE ENERGY PREDICTED BY IDOCK:   -2.82 KCAL/MOL
REMARK 924 INTRA-LIGAND FREE ENERGY PREDICTED BY IDOCK:   -1.19 KCAL/MOL
REMARK 927      BINDING AFFINITY PREDICTED BY RF-SCORE:    0.00 PKD
ROOT
HETATM    1  C   UNL     1      -8.758   4.007  73.090  1.00  0.00    -0.095 C  
HETATM    2  C   UNL     1      -9.158   3.087  74.267  1.00  0.00    -0.091 C  
HETATM    3  C   UNL     1      -7.262   4.436  73.193  1.00  0.00    -0.075 C  
HETATM    4  C   UNL     1      -6.885   5.648  74.062  1.00  0.00    -0.081 C  
HETATM    5  N   UNL     1      -7.509   6.886  73.630  1.00  0.00    -0.081 NA 
HETATM    6  C   UNL     1      -8.833   7.207  74.144  1.00  0.00    -0.210 C  
HETATM    7  O   UNL     1     -10.490   4.343  70.911  1.00  0.00    -0.029 OA 
HETATM    8  C   UNL     1      -9.786   6.001  74.114  1.00  0.00    -0.224 C  
HETATM    9  C   UNL     1     -10.379   5.325  71.663  1.00  0.00    -0.216 C  
HETATM   10  N   UNL     1      -9.693   5.158  72.914  1.00  0.00    -0.147 N  
ENDROOT
BRANCH   5  11
HETATM   11  C   UNL     1      -6.960   7.751  72.745  1.00  0.00    -0.076 A  
HETATM   12  N   UNL     1      -6.761   9.045  72.921  1.00  0.00    -0.318 NA 
HETATM   13  C   UNL     1      -6.099   8.403  70.875  1.00  0.00    -0.034 A  
HETATM   14  C   UNL     1      -5.602   8.499  69.582  1.00  0.00    -0.030 A  
HETATM   15  C   UNL     1      -5.936  10.770  71.293  1.00  0.00     0.277 A  
HETATM   16  C   UNL     1      -6.259   9.480  71.730  1.00  0.00     0.132 A  
HETATM   17  O   UNL     1      -6.541   7.283  71.525  1.00  0.00    -0.046 OA 
HETATM   18 CL   UNL     1      -5.136  12.484  69.370  1.00  0.00    -0.069 Cl 
HETATM   19  C   UNL     1      -5.306   9.799  69.143  1.00  0.00    -0.036 A  
HETATM   20  C   UNL     1      -5.474  10.909  69.980  1.00  0.00    -0.063 A  
ENDBRANCH   5  11
BRANCH   9  21
HETATM   21  C   UNL     1     -11.038   6.641  71.198  1.00  0.00    -0.326 A  
HETATM   22  C   UNL     1     -11.937   7.318  72.033  1.00  0.00    -0.333 A  
HETATM   23  C   UNL     1     -13.137   9.304  72.945  1.00  0.00     0.103 C  
HETATM   24  C   UNL     1     -10.892   7.246  69.926  1.00  0.00    -0.247 A  
HETATM   25  C   UNL     1     -12.394   9.122  70.535  1.00  0.00     0.125 A  
HETATM   26  C   UNL     1     -11.634   8.426  69.593  1.00  0.00     0.490 A  
HETATM   27  C   UNL     1     -12.502   8.580  71.793  1.00  0.00    -0.388 A  
BRANCH  24  28
HETATM   28  N   UNL     1     -10.011   6.809  68.899  1.00  0.00    -0.151 NA 
HETATM   29  N   UNL     1      -8.675   7.064  68.889  1.00  0.00    -0.131 NA 
HETATM   30  C   UNL     1      -9.430   6.261  66.940  1.00  0.00    -0.138 A  
HETATM   31  C   UNL     1      -8.311   6.650  67.672  1.00  0.00    -0.122 A  
HETATM   32  N   UNL     1     -10.524   6.406  67.685  1.00  0.00    -0.195 NA 
ENDBRANCH  24  28
ENDBRANCH   9  21
TORSDOF 3
ENDMDL
MODEL      146
REMARK 921   NORMALIZED FREE ENERGY PREDICTED BY IDOCK:   -1.93 KCAL/MOL
REMARK 922        TOTAL FREE ENERGY PREDICTED BY IDOCK:   -3.89 KCAL/MOL
REMARK 923 INTER-LIGAND FREE ENERGY PREDICTED BY IDOCK:   -2.74 KCAL/MOL
REMARK 924 INTRA-LIGAND FREE ENERGY PREDICTED BY IDOCK:   -1.15 KCAL/MOL
REMARK 927      BINDING AFFINITY PREDICTED BY RF-SCORE:    0.00 PKD
ROOT
HETATM    1  C   UNL     1     -11.450   7.002  71.434  1.00  0.00    -0.276 C  
HETATM    2  C   UNL     1     -12.759   6.463  72.057  1.00  0.00    -0.070 C  
HETATM    3  C   UNL     1     -11.611   7.237  69.900  1.00  0.00    -0.021 C  
HETATM    4  C   UNL     1     -11.403   6.060  68.932  1.00  0.00    -0.006 C  
HETATM    5  N   UNL     1     -10.069   5.488  68.996  1.00  0.00    -0.187 NA 
HETATM    6  C   UNL     1      -9.814   4.442  69.976  1.00  0.00    -0.223 C  
HETATM    7  O   UNL     1      -9.341   7.836  73.083  1.00  0.00    -0.201 OA 
HETATM    8  C   UNL     1     -10.403   4.770  71.358  1.00  0.00    -0.122 C  
HETATM    9  C   UNL     1      -9.151   6.775  72.467  1.00  0.00    -0.133 C  
HETATM   10  N   UNL     1     -10.260   6.169  71.783  1.00  0.00    -0.198 N  
ENDROOT
BRANCH   5  11
HETATM   11  C   UNL     1      -9.027   5.889  68.230  1.00  0.00    -0.112 A  
HETATM   12  N   UNL     1      -8.860   7.077  67.679  1.00  0.00    -0.120 NA 
HETATM   13  C   UNL     1      -7.166   5.703  67.151  1.00  0.00    -0.075 A  
HETATM   14  C   UNL     1      -5.989   5.261  66.563  1.00  0.00    -0.023 A  
HETATM   15  C   UNL     1      -7.078   7.866  66.094  1.00  0.00    -0.062 A  
HETATM   16  C   UNL     1      -7.711   6.960  66.955  1.00  0.00    -0.099 A  
HETATM   17  O   UNL     1      -8.005   5.008  67.979  1.00  0.00    -0.089 OA 
HETATM   18 CL   UNL     1      -5.142   8.486  64.322  1.00  0.00    -0.043 Cl 
HETATM   19  C   UNL     1      -5.377   6.164  65.680  1.00  0.00    -0.013 A  
HETATM   20  C   UNL     1      -5.914   7.437  65.448  1.00  0.00    -0.038 A  
ENDBRANCH   5  11
BRANCH   9  21
HETATM   21  C   UNL     1      -7.731   6.173  72.531  1.00  0.00    -0.103 A  
HETATM   22  C   UNL     1      -7.535   4.866  72.996  1.00  0.00    -0.091 A  
HETATM   23  C   UNL     1      -6.379   2.664  73.169  1.00  0.00    -0.013 C  
HETATM   24  C   UNL     1      -6.523   6.845  72.227  1.00  0.00    -0.057 A  
HETATM   25  C   UNL     1      -5.161   4.838  72.740  1.00  0.00    -0.008 A  
HETATM   26  C   UNL     1      -5.261   6.192  72.416  1.00  0.00    -0.026 A  
HETATM   27  C   UNL     1      -6.327   4.153  72.983  1.00  0.00    -0.024 A  
BRANCH  24  28
HETATM   28  N   UNL     1      -6.419   8.158  71.689  1.00  0.00    -0.043 NA 
HETATM   29  N   UNL     1      -7.007   8.547  70.526  1.00  0.00    -0.038 NA 
HETATM   30  C   UNL     1      -5.521  10.032  71.298  1.00  0.00    -0.075 A  
HETATM   31  C   UNL     1      -6.482   9.759  70.328  1.00  0.00    -0.093 A  
HETATM   32  N   UNL     1      -5.429   9.004  72.139  1.00  0.00    -0.059 NA 
ENDBRANCH  24  28
ENDBRANCH   9  21
TORSDOF 3
ENDMDL
MODEL      147
REMARK 921   NORMALIZED FREE ENERGY PREDICTED BY IDOCK:   -1.82 KCAL/MOL
REMARK 922        TOTAL FREE ENERGY PREDICTED BY IDOCK:   -3.76 KCAL/MOL
REMARK 923 INTER-LIGAND FREE ENERGY PREDICTED BY IDOCK:   -2.26 KCAL/MOL
REMARK 924 INTRA-LIGAND FREE ENERGY PREDICTED BY IDOCK:   -1.50 KCAL/MOL
REMARK 927      BINDING AFFINITY PREDICTED BY RF-SCORE:    0.00 PKD
ROOT
HETATM    1  C   UNL     1     -10.805   7.435  67.693  1.00  0.00    -0.149 C  
HETATM    2  C   UNL     1     -11.349   6.387  66.695  1.00  0.00     0.265 C  
HETATM    3  C   UNL     1     -11.002   8.885  67.150  1.00  0.00     0.119 C  
HETATM    4  C   UNL     1      -9.953   9.480  66.196  1.00  0.00    -0.272 C  
HETATM    5  N   UNL     1      -8.625   9.569  66.779  1.00  0.00    -0.127 NA 
HETATM    6  C   UNL     1      -7.746   8.413  66.673  1.00  0.00    -0.090 C  
HETATM    7  O   UNL     1     -10.052   6.662  70.281  1.00  0.00    -0.177 OA 
HETATM    8  C   UNL     1      -8.465   7.093  66.994  1.00  0.00    -0.122 C  
HETATM    9  C   UNL     1      -9.119   6.962  69.518  1.00  0.00    -0.142 C  
HETATM   10  N   UNL     1      -9.404   7.149  68.123  1.00  0.00    -0.130 N  
ENDROOT
BRANCH   5  11
HETATM   11  C   UNL     1      -8.157  10.645  67.454  1.00  0.00    -0.112 A  
HETATM   12  N   UNL     1      -8.356  11.916  67.156  1.00  0.00    -0.168 NA 
HETATM   13  C   UNL     1      -7.056  11.713  68.973  1.00  0.00    -0.108 A  
HETATM   14  C   UNL     1      -6.255  12.087  70.044  1.00  0.00    -0.110 A  
HETATM   15  C   UNL     1      -7.386  13.976  68.216  1.00  0.00    -0.115 A  
HETATM   16  C   UNL     1      -7.627  12.604  68.081  1.00  0.00    -0.132 A  
HETATM   17  O   UNL     1      -7.399  10.449  68.581  1.00  0.00    -0.078 OA 
HETATM   18 CL   UNL     1      -6.158  16.054  69.419  1.00  0.00    -0.138 Cl 
HETATM   19  C   UNL     1      -5.996  13.461  70.156  1.00  0.00    -0.139 A  
HETATM   20  C   UNL     1      -6.547  14.384  69.257  1.00  0.00    -0.122 A  
ENDBRANCH   5  11
BRANCH   9  21
HETATM   21  C   UNL     1      -7.709   7.063  70.142  1.00  0.00    -0.100 A  
HETATM   22  C   UNL     1      -7.388   8.123  71.000  1.00  0.00    -0.058 A  
HETATM   23  C   UNL     1      -6.181   9.251  72.867  1.00  0.00     0.267 C  
HETATM   24  C   UNL     1      -6.616   6.203  69.881  1.00  0.00    -0.044 A  
HETATM   25  C   UNL     1      -5.135   7.456  71.424  1.00  0.00    -0.027 A  
HETATM   26  C   UNL     1      -5.332   6.465  70.462  1.00  0.00    -0.018 A  
HETATM   27  C   UNL     1      -6.201   8.266  71.734  1.00  0.00    -0.050 A  
BRANCH  24  28
HETATM   28  N   UNL     1      -6.663   5.021  69.092  1.00  0.00    -0.047 NA 
HETATM   29  N   UNL     1      -7.020   3.802  69.578  1.00  0.00    -0.041 NA 
HETATM   30  C   UNL     1      -6.110   3.701  67.534  1.00  0.00    -0.028 A  
HETATM   31  C   UNL     1      -6.728   2.989  68.559  1.00  0.00    -0.040 A  
HETATM   32  N   UNL     1      -6.011   4.984  67.878  1.00  0.00    -0.022 NA 
ENDBRANCH  24  28
ENDBRANCH   9  21
TORSDOF 3
ENDMDL
MODEL      148
REMARK 921   NORMALIZED FREE ENERGY PREDICTED BY IDOCK:   -1.62 KCAL/MOL
REMARK 922        TOTAL FREE ENERGY PREDICTED BY IDOCK:   -3.53 KCAL/MOL
REMARK 923 INTER-LIGAND FREE ENERGY PREDICTED BY IDOCK:   -3.06 KCAL/MOL
REMARK 924 INTRA-LIGAND FREE ENERGY PREDICTED BY IDOCK:   -0.47 KCAL/MOL
REMARK 927      BINDING AFFINITY PREDICTED BY RF-SCORE:    0.00 PKD
ROOT
HETATM    1  C   UNL     1     -10.144  10.038  66.644  1.00  0.00    -0.227 C  
HETATM    2  C   UNL     1     -10.192  11.062  65.486  1.00  0.00    -0.327 C  
HETATM    3  C   UNL     1      -9.881  10.743  68.010  1.00  0.00    -0.180 C  
HETATM    4  C   UNL     1      -8.435  11.052  68.433  1.00  0.00    -0.144 C  
HETATM    5  N   UNL     1      -7.604   9.867  68.557  1.00  0.00    -0.079 NA 
HETATM    6  C   UNL     1      -6.920   9.375  67.370  1.00  0.00    -0.085 C  
HETATM    7  O   UNL     1     -10.931   7.381  66.212  1.00  0.00     0.663 OA 
HETATM    8  C   UNL     1      -7.831   9.354  66.131  1.00  0.00    -0.100 C  
HETATM    9  C   UNL     1      -9.712   7.560  66.372  1.00  0.00    -0.110 C  
HETATM   10  N   UNL     1      -9.209   8.905  66.374  1.00  0.00    -0.174 N  
ENDROOT
BRANCH   5  11
HETATM   11  C   UNL     1      -7.450   9.158  69.701  1.00  0.00    -0.078 A  
HETATM   12  N   UNL     1      -6.310   8.821  70.276  1.00  0.00    -0.037 NA 
HETATM   13  C   UNL     1      -8.059   8.016  71.429  1.00  0.00    -0.107 A  
HETATM   14  C   UNL     1      -8.762   7.328  72.409  1.00  0.00    -0.138 A  
HETATM   15  C   UNL     1      -5.903   7.355  72.275  1.00  0.00    -0.037 A  
HETATM   16  C   UNL     1      -6.678   8.058  71.345  1.00  0.00    -0.048 A  
HETATM   17  O   UNL     1      -8.564   8.729  70.376  1.00  0.00    -0.137 OA 
HETATM   18 CL   UNL     1      -5.670   5.672  74.370  1.00  0.00    -0.047 Cl 
HETATM   19  C   UNL     1      -7.977   6.604  73.320  1.00  0.00    -0.103 A  
HETATM   20  C   UNL     1      -6.578   6.615  73.251  1.00  0.00    -0.064 A  
ENDBRANCH   5  11
BRANCH   9  21
HETATM   21  C   UNL     1      -8.832   6.298  66.512  1.00  0.00    -0.140 A  
HETATM   22  C   UNL     1      -7.814   6.038  65.586  1.00  0.00    -0.103 A  
HETATM   23  C   UNL     1      -5.639   5.106  64.800  1.00  0.00    -0.013 C  
HETATM   24  C   UNL     1      -8.985   5.274  67.478  1.00  0.00    -0.108 A  
HETATM   25  C   UNL     1      -7.062   3.998  66.574  1.00  0.00    -0.064 A  
HETATM   26  C   UNL     1      -8.153   4.109  67.438  1.00  0.00    -0.099 A  
HETATM   27  C   UNL     1      -6.863   5.010  65.665  1.00  0.00    -0.061 A  
BRANCH  24  28
HETATM   28  N   UNL     1      -9.901   5.294  68.566  1.00  0.00    -0.143 NA 
HETATM   29  N   UNL     1     -10.805   6.287  68.775  1.00  0.00    -0.301 NA 
HETATM   30  C   UNL     1     -10.601   4.903  70.523  1.00  0.00     0.014 A  
HETATM   31  C   UNL     1     -11.287   5.988  69.985  1.00  0.00    -0.284 A  
HETATM   32  N   UNL     1      -9.680   4.482  69.658  1.00  0.00    -0.204 NA 
ENDBRANCH  24  28
ENDBRANCH   9  21
TORSDOF 3
ENDMDL
MODEL      149
REMARK 921   NORMALIZED FREE ENERGY PREDICTED BY IDOCK:   -1.56 KCAL/MOL
REMARK 922        TOTAL FREE ENERGY PREDICTED BY IDOCK:   -3.46 KCAL/MOL
REMARK 923 INTER-LIGAND FREE ENERGY PREDICTED BY IDOCK:   -3.13 KCAL/MOL
REMARK 924 INTRA-LIGAND FREE ENERGY PREDICTED BY IDOCK:   -0.33 KCAL/MOL
REMARK 927      BINDING AFFINITY PREDICTED BY RF-SCORE:    0.00 PKD
ROOT
HETATM    1  C   UNL     1      -6.294   2.781  70.539  1.00  0.00    -0.024 C  
HETATM    2  C   UNL     1      -6.409   1.514  71.418  1.00  0.00    -0.018 C  
HETATM    3  C   UNL     1      -5.316   3.819  71.171  1.00  0.00    -0.004 C  
HETATM    4  C   UNL     1      -5.842   4.797  72.235  1.00  0.00    -0.016 C  
HETATM    5  N   UNL     1      -6.905   5.661  71.752  1.00  0.00    -0.065 NA 
HETATM    6  C   UNL     1      -8.276   5.179  71.833  1.00  0.00    -0.117 C  
HETATM    7  O   UNL     1      -7.391   2.813  67.958  1.00  0.00    -0.052 OA 
HETATM    8  C   UNL     1      -8.418   3.721  71.368  1.00  0.00    -0.073 C  
HETATM    9  C   UNL     1      -7.988   3.501  68.803  1.00  0.00    -0.061 C  
HETATM   10  N   UNL     1      -7.625   3.361  70.185  1.00  0.00    -0.044 N  
ENDROOT
BRANCH   5  11
HETATM   11  C   UNL     1      -6.706   6.877  71.191  1.00  0.00    -0.057 A  
HETATM   12  N   UNL     1      -7.147   7.289  70.016  1.00  0.00    -0.064 NA 
HETATM   13  C   UNL     1      -5.934   8.886  71.022  1.00  0.00    -0.045 A  
HETATM   14  C   UNL     1      -5.287  10.101  71.208  1.00  0.00    -0.081 A  
HETATM   15  C   UNL     1      -6.683   9.436  68.799  1.00  0.00    -0.052 A  
HETATM   16  C   UNL     1      -6.628   8.542  69.874  1.00  0.00    -0.042 A  
HETATM   17  O   UNL     1      -5.987   7.822  71.879  1.00  0.00    -0.036 OA 
HETATM   18 CL   UNL     1      -5.978  11.753  67.612  1.00  0.00    -0.061 Cl 
HETATM   19  C   UNL     1      -5.324  10.980  70.115  1.00  0.00    -0.063 A  
HETATM   20  C   UNL     1      -6.004  10.652  68.935  1.00  0.00    -0.040 A  
ENDBRANCH   5  11
BRANCH   9  21
HETATM   21  C   UNL     1      -9.113   4.424  68.285  1.00  0.00    -0.165 A  
HETATM   22  C   UNL     1      -9.997   5.036  69.183  1.00  0.00    -0.267 A  
HETATM   23  C   UNL     1     -11.565   6.802  69.982  1.00  0.00    -0.367 C  
HETATM   24  C   UNL     1      -9.423   4.685  66.929  1.00  0.00    -0.163 A  
HETATM   25  C   UNL     1     -11.295   6.189  67.543  1.00  0.00     0.093 A  
HETATM   26  C   UNL     1     -10.555   5.494  66.586  1.00  0.00    -0.365 A  
HETATM   27  C   UNL     1     -10.973   5.993  68.864  1.00  0.00    -0.395 A  
BRANCH  24  28
HETATM   28  N   UNL     1      -8.670   4.239  65.807  1.00  0.00    -0.117 NA 
HETATM   29  N   UNL     1      -7.605   4.912  65.296  1.00  0.00    -0.077 NA 
HETATM   30  C   UNL     1      -8.325   3.264  63.963  1.00  0.00    -0.090 A  
HETATM   31  C   UNL     1      -7.356   4.244  64.167  1.00  0.00    -0.062 A  
HETATM   32  N   UNL     1      -9.198   3.282  64.968  1.00  0.00    -0.144 NA 
ENDBRANCH  24  28
ENDBRANCH   9  21
TORSDOF 3
ENDMDL
MODEL      150
REMARK 921   NORMALIZED FREE ENERGY PREDICTED BY IDOCK:   -1.23 KCAL/MOL
REMARK 922        TOTAL FREE ENERGY PREDICTED BY IDOCK:   -3.08 KCAL/MOL
REMARK 923 INTER-LIGAND FREE ENERGY PREDICTED BY IDOCK:   -1.91 KCAL/MOL
REMARK 924 INTRA-LIGAND FREE ENERGY PREDICTED BY IDOCK:   -1.17 KCAL/MOL
REMARK 927      BINDING AFFINITY PREDICTED BY RF-SCORE:    0.00 PKD
ROOT
HETATM    1  C   UNL     1     -11.111  15.852  66.907  1.00  0.00    -0.082 C  
HETATM    2  C   UNL     1     -11.506  17.345  66.993  1.00  0.00     1.012 C  
HETATM    3  C   UNL     1     -12.220  14.939  67.515  1.00  0.00     0.122 C  
HETATM    4  C   UNL     1     -12.237  14.684  69.031  1.00  0.00    -0.164 C  
HETATM    5  N   UNL     1     -11.033  14.039  69.523  1.00  0.00    -0.154 NA 
HETATM    6  C   UNL     1      -9.904  14.878  69.899  1.00  0.00     0.144 C  
HETATM    7  O   UNL     1      -8.887  15.066  65.390  1.00  0.00     0.734 OA 
HETATM    8  C   UNL     1      -9.625  15.986  68.871  1.00  0.00    -0.236 C  
HETATM    9  C   UNL     1      -8.749  14.991  66.622  1.00  0.00    -0.254 C  
HETATM   10  N   UNL     1      -9.751  15.582  67.464  1.00  0.00    -0.214 N  
ENDROOT
BRANCH   5  11
HETATM   11  C   UNL     1     -10.869  12.698  69.621  1.00  0.00     0.330 A  
HETATM   12  N   UNL     1      -9.924  11.972  69.053  1.00  0.00     0.039 NA 
HETATM   13  C   UNL     1     -11.332  10.678  70.227  1.00  0.00    -0.319 A  
HETATM   14  C   UNL     1     -11.900   9.528  70.758  1.00  0.00    -0.350 A  
HETATM   15  C   UNL     1      -9.636   9.477  69.007  1.00  0.00    -0.166 A  
HETATM   16  C   UNL     1     -10.230  10.686  69.388  1.00  0.00    -0.192 A  
HETATM   17  O   UNL     1     -11.745  11.972  70.388  1.00  0.00    -0.266 OA 
HETATM   18 CL   UNL     1      -9.564   6.781  68.986  1.00  0.00    -0.136 Cl 
HETATM   19  C   UNL     1     -11.316   8.320  70.348  1.00  0.00    -0.177 A  
HETATM   20  C   UNL     1     -10.211   8.296  69.488  1.00  0.00    -0.210 A  
ENDBRANCH   5  11
BRANCH   9  21
HETATM   21  C   UNL     1      -7.470  14.297  67.142  1.00  0.00     0.062 A  
HETATM   22  C   UNL     1      -7.419  12.902  67.260  1.00  0.00    -0.092 A  
HETATM   23  C   UNL     1      -6.322  10.664  67.310  1.00  0.00    -0.064 C  
HETATM   24  C   UNL     1      -6.300  14.942  67.608  1.00  0.00    -0.123 A  
HETATM   25  C   UNL     1      -5.184  12.782  68.093  1.00  0.00    -0.077 A  
HETATM   26  C   UNL     1      -5.216  14.176  68.149  1.00  0.00    -0.118 A  
HETATM   27  C   UNL     1      -6.289  12.139  67.590  1.00  0.00    -0.109 A  
BRANCH  24  28
HETATM   28  N   UNL     1      -6.052  16.342  67.562  1.00  0.00    -0.149 NA 
HETATM   29  N   UNL     1      -5.705  17.084  68.647  1.00  0.00    -0.139 NA 
HETATM   30  C   UNL     1      -6.259  18.330  66.871  1.00  0.00    -0.172 A  
HETATM   31  C   UNL     1      -5.775  18.333  68.177  1.00  0.00    -0.165 A  
HETATM   32  N   UNL     1      -6.492  17.078  66.482  1.00  0.00    -0.221 NA 
ENDBRANCH  24  28
ENDBRANCH   9  21
TORSDOF 3
ENDMDL
MODEL      151
REMARK 921   NORMALIZED FREE ENERGY PREDICTED BY IDOCK:   -1.07 KCAL/MOL
REMARK 922        TOTAL FREE ENERGY PREDICTED BY IDOCK:   -2.88 KCAL/MOL
REMARK 923 INTER-LIGAND FREE ENERGY PREDICTED BY IDOCK:   -1.81 KCAL/MOL
REMARK 924 INTRA-LIGAND FREE ENERGY PREDICTED BY IDOCK:   -1.07 KCAL/MOL
REMARK 927      BINDING AFFINITY PREDICTED BY RF-SCORE:    0.00 PKD
ROOT
HETATM    1  C   UNL     1     -11.438  11.585  67.053  1.00  0.00    -0.214 C  
HETATM    2  C   UNL     1     -11.807  13.052  66.731  1.00  0.00    -0.451 C  
HETATM    3  C   UNL     1     -12.492  10.933  67.999  1.00  0.00     1.740 C  
HETATM    4  C   UNL     1     -12.365  11.133  69.519  1.00  0.00    -0.194 C  
HETATM    5  N   UNL     1     -11.126  10.613  70.069  1.00  0.00    -0.294 NA 
HETATM    6  C   UNL     1      -9.957  11.481  70.078  1.00  0.00     1.582 C  
HETATM    7  O   UNL     1      -9.381  10.305  65.641  1.00  0.00    -0.169 OA 
HETATM    8  C   UNL     1      -9.767  12.229  68.748  1.00  0.00     0.030 C  
HETATM    9  C   UNL     1      -9.124  10.587  66.823  1.00  0.00    -0.151 C  
HETATM   10  N   UNL     1     -10.034  11.437  67.540  1.00  0.00    -0.181 N  
ENDROOT
BRANCH   5  11
HETATM   11  C   UNL     1     -10.967   9.354  70.542  1.00  0.00    -0.274 A  
HETATM   12  N   UNL     1     -11.035   8.966  71.802  1.00  0.00    -0.339 NA 
HETATM   13  C   UNL     1     -10.564   7.234  70.455  1.00  0.00    -0.222 A  
HETATM   14  C   UNL     1     -10.256   5.937  70.070  1.00  0.00    -0.286 A  
HETATM   15  C   UNL     1     -10.571   6.711  72.807  1.00  0.00    -0.260 A  
HETATM   16  C   UNL     1     -10.735   7.636  71.769  1.00  0.00    -0.216 A  
HETATM   17  O   UNL     1     -10.720   8.334  69.657  1.00  0.00    -0.230 OA 
HETATM   18 CL   UNL     1      -9.929   4.250  73.702  1.00  0.00    -0.159 Cl 
HETATM   19  C   UNL     1     -10.066   5.023  71.118  1.00  0.00    -0.293 A  
HETATM   20  C   UNL     1     -10.216   5.405  72.457  1.00  0.00    -0.195 A  
ENDBRANCH   5  11
BRANCH   9  21
HETATM   21  C   UNL     1      -7.809  10.027  67.407  1.00  0.00    -0.099 A  
HETATM   22  C   UNL     1      -6.946  10.856  68.135  1.00  0.00    -0.069 A  
HETATM   23  C   UNL     1      -5.210  11.391  69.843  1.00  0.00    -0.059 C  
HETATM   24  C   UNL     1      -7.304   8.717  67.224  1.00  0.00    -0.088 A  
HETATM   25  C   UNL     1      -5.292   9.194  68.591  1.00  0.00    -0.034 A  
HETATM   26  C   UNL     1      -6.022   8.353  67.749  1.00  0.00    -0.047 A  
HETATM   27  C   UNL     1      -5.795  10.452  68.827  1.00  0.00    -0.040 A  
BRANCH  24  28
HETATM   28  N   UNL     1      -7.985   7.651  66.573  1.00  0.00    -0.104 NA 
HETATM   29  N   UNL     1      -9.068   7.015  67.094  1.00  0.00    -0.125 NA 
HETATM   30  C   UNL     1      -8.199   5.960  65.321  1.00  0.00    -0.141 A  
HETATM   31  C   UNL     1      -9.232   5.989  66.254  1.00  0.00    -0.154 A  
HETATM   32  N   UNL     1      -7.368   6.976  65.541  1.00  0.00    -0.076 NA 
ENDBRANCH  24  28
ENDBRANCH   9  21
TORSDOF 3
ENDMDL
MODEL      152
REMARK 921   NORMALIZED FREE ENERGY PREDICTED BY IDOCK:   -0.43 KCAL/MOL
REMARK 922        TOTAL FREE ENERGY PREDICTED BY IDOCK:   -2.13 KCAL/MOL
REMARK 923 INTER-LIGAND FREE ENERGY PREDICTED BY IDOCK:   -1.48 KCAL/MOL
REMARK 924 INTRA-LIGAND FREE ENERGY PREDICTED BY IDOCK:   -0.65 KCAL/MOL
REMARK 927      BINDING AFFINITY PREDICTED BY RF-SCORE:    0.00 PKD
ROOT
HETATM    1  C   UNL     1     -12.096   9.950  70.944  1.00  0.00    -0.341 C  
HETATM    2  C   UNL     1     -12.423  11.364  71.477  1.00  0.00    -0.305 C  
HETATM    3  C   UNL     1     -12.079   8.902  72.099  1.00  0.00    -0.430 C  
HETATM    4  C   UNL     1     -10.796   8.715  72.927  1.00  0.00     0.420 C  
HETATM    5  N   UNL     1      -9.655   8.289  72.136  1.00  0.00    -0.239 NA 
HETATM    6  C   UNL     1      -8.835   9.311  71.502  1.00  0.00     0.203 C  
HETATM    7  O   UNL     1     -12.055   9.457  68.184  1.00  0.00     1.648 OA 
HETATM    8  C   UNL     1      -9.675  10.403  70.820  1.00  0.00     1.346 C  
HETATM    9  C   UNL     1     -10.946   9.459  68.744  1.00  0.00    -0.042 C  
HETATM   10  N   UNL     1     -10.863   9.922  70.101  1.00  0.00    -0.281 N  
ENDROOT
BRANCH   5  11
HETATM   11  C   UNL     1      -9.319   6.996  71.912  1.00  0.00    -0.140 A  
HETATM   12  N   UNL     1      -8.313   6.334  72.453  1.00  0.00    -0.111 NA 
HETATM   13  C   UNL     1      -9.445   5.037  71.014  1.00  0.00    -0.162 A  
HETATM   14  C   UNL     1      -9.778   3.920  70.260  1.00  0.00    -0.245 A  
HETATM   15  C   UNL     1      -7.486   4.012  71.971  1.00  0.00    -0.065 A  
HETATM   16  C   UNL     1      -8.351   5.107  71.860  1.00  0.00    -0.121 A  
HETATM   17  O   UNL     1     -10.079   6.249  71.048  1.00  0.00    -0.181 OA 
HETATM   18 CL   UNL     1      -6.690   1.543  71.234  1.00  0.00    -0.023 Cl 
HETATM   19  C   UNL     1      -8.891   2.838  70.356  1.00  0.00    -0.146 A  
HETATM   20  C   UNL     1      -7.767   2.886  71.190  1.00  0.00    -0.043 A  
ENDBRANCH   5  11
BRANCH   9  21
HETATM   21  C   UNL     1      -9.736   8.998  67.903  1.00  0.00    -0.185 A  
HETATM   22  C   UNL     1      -8.786   8.123  68.447  1.00  0.00    -0.133 A  
HETATM   23  C   UNL     1      -7.039   6.346  68.392  1.00  0.00    -0.083 C  
HETATM   24  C   UNL     1      -9.411   9.435  66.597  1.00  0.00    -0.163 A  
HETATM   25  C   UNL     1      -7.388   8.004  66.514  1.00  0.00    -0.084 A  
HETATM   26  C   UNL     1      -8.204   8.994  65.963  1.00  0.00    -0.113 A  
HETATM   27  C   UNL     1      -7.720   7.525  67.759  1.00  0.00    -0.115 A  
BRANCH  24  28
HETATM   28  N   UNL     1     -10.214  10.282  65.783  1.00  0.00    -0.246 NA 
HETATM   29  N   UNL     1     -10.192  10.266  64.424  1.00  0.00    -0.204 NA 
HETATM   30  C   UNL     1     -11.289  12.028  65.265  1.00  0.00    -0.312 A  
HETATM   31  C   UNL     1     -10.931  11.334  64.111  1.00  0.00    -0.305 A  
HETATM   32  N   UNL     1     -10.797  11.404  66.333  1.00  0.00    -0.277 NA 
ENDBRANCH  24  28
ENDBRANCH   9  21
TORSDOF 3
ENDMDL
MODEL      153
REMARK 921   NORMALIZED FREE ENERGY PREDICTED BY IDOCK:   -0.24 KCAL/MOL
REMARK 922        TOTAL FREE ENERGY PREDICTED BY IDOCK:   -1.91 KCAL/MOL
REMARK 923 INTER-LIGAND FREE ENERGY PREDICTED BY IDOCK:   -0.52 KCAL/MOL
REMARK 924 INTRA-LIGAND FREE ENERGY PREDICTED BY IDOCK:   -1.39 KCAL/MOL
REMARK 927      BINDING AFFINITY PREDICTED BY RF-SCORE:    0.00 PKD
ROOT
HETATM    1  C   UNL     1     -11.222   9.239  71.786  1.00  0.00    -0.343 C  
HETATM    2  C   UNL     1     -12.070   8.027  72.237  1.00  0.00    -0.392 C  
HETATM    3  C   UNL     1     -11.724  10.557  72.453  1.00  0.00     2.510 C  
HETATM    4  C   UNL     1     -12.887  11.331  71.809  1.00  0.00    -0.360 C  
HETATM    5  N   UNL     1     -12.604  11.783  70.458  1.00  0.00    -0.201 NA 
HETATM    6  C   UNL     1     -12.885  10.876  69.354  1.00  0.00     0.625 C  
HETATM    7  O   UNL     1      -8.849   8.844  70.346  1.00  0.00    -0.150 OA 
HETATM    8  C   UNL     1     -12.404   9.442  69.631  1.00  0.00     1.092 C  
HETATM    9  C   UNL     1      -9.797   9.315  69.697  1.00  0.00    -0.186 C  
HETATM   10  N   UNL     1     -11.101   9.337  70.300  1.00  0.00    -0.248 N  
ENDROOT
BRANCH   5  11
HETATM   11  C   UNL     1     -12.055  12.982  70.151  1.00  0.00    -0.307 A  
HETATM   12  N   UNL     1     -12.675  14.146  70.096  1.00  0.00    -0.263 NA 
HETATM   13  C   UNL     1     -10.508  14.367  69.558  1.00  0.00    -0.007 A  
HETATM   14  C   UNL     1      -9.325  14.974  69.158  1.00  0.00    -0.189 A  
HETATM   15  C   UNL     1     -11.808  16.385  69.358  1.00  0.00     0.136 A  
HETATM   16  C   UNL     1     -11.720  15.025  69.678  1.00  0.00    -0.321 A  
HETATM   17  O   UNL     1     -10.713  13.051  69.870  1.00  0.00     0.428 OA 
HETATM   18 CL   UNL     1     -10.719  18.671  68.430  1.00  0.00    -0.113 Cl 
HETATM   19  C   UNL     1      -9.429  16.331  68.813  1.00  0.00    -0.237 A  
HETATM   20  C   UNL     1     -10.645  17.019  68.907  1.00  0.00    -0.328 A  
ENDBRANCH   5  11
BRANCH   9  21
HETATM   21  C   UNL     1      -9.491   9.801  68.263  1.00  0.00    -0.148 A  
HETATM   22  C   UNL     1      -9.167  11.143  68.023  1.00  0.00    -0.159 A  
HETATM   23  C   UNL     1      -8.090  13.040  66.817  1.00  0.00     0.172 C  
HETATM   24  C   UNL     1      -9.574   9.025  67.082  1.00  0.00    -0.167 A  
HETATM   25  C   UNL     1      -8.883  10.936  65.661  1.00  0.00    -0.201 A  
HETATM   26  C   UNL     1      -9.349   9.627  65.801  1.00  0.00    -0.286 A  
HETATM   27  C   UNL     1      -8.741  11.688  66.802  1.00  0.00    -0.189 A  
BRANCH  24  28
HETATM   28  N   UNL     1      -9.833   7.628  67.026  1.00  0.00    -0.194 NA 
HETATM   29  N   UNL     1      -8.862   6.684  66.906  1.00  0.00    -0.115 NA 
HETATM   30  C   UNL     1     -10.923   5.870  66.584  1.00  0.00    -0.148 A  
HETATM   31  C   UNL     1      -9.567   5.569  66.696  1.00  0.00    -0.151 A  
HETATM   32  N   UNL     1     -11.104   7.180  66.737  1.00  0.00    -0.078 NA 
ENDBRANCH  24  28
ENDBRANCH   9  21
TORSDOF 3
ENDMDL
MODEL      154
REMARK 921   NORMALIZED FREE ENERGY PREDICTED BY IDOCK:   -0.06 KCAL/MOL
REMARK 922        TOTAL FREE ENERGY PREDICTED BY IDOCK:   -1.69 KCAL/MOL
REMARK 923 INTER-LIGAND FREE ENERGY PREDICTED BY IDOCK:   -1.46 KCAL/MOL
REMARK 924 INTRA-LIGAND FREE ENERGY PREDICTED BY IDOCK:   -0.23 KCAL/MOL
REMARK 927      BINDING AFFINITY PREDICTED BY RF-SCORE:    0.00 PKD
ROOT
HETATM    1  C   UNL     1     -11.506  16.140  67.904  1.00  0.00    -0.103 C  
HETATM    2  C   UNL     1     -11.104  17.629  68.018  1.00  0.00     0.049 C  
HETATM    3  C   UNL     1     -12.362  15.692  69.129  1.00  0.00    -0.019 C  
HETATM    4  C   UNL     1     -11.655  15.239  70.417  1.00  0.00    -0.308 C  
HETATM    5  N   UNL     1     -10.796  14.083  70.230  1.00  0.00     0.359 NA 
HETATM    6  C   UNL     1      -9.419  14.307  69.812  1.00  0.00     0.838 C  
HETATM    7  O   UNL     1     -11.072  14.740  65.514  1.00  0.00    -0.322 OA 
HETATM    8  C   UNL     1      -9.305  15.340  68.680  1.00  0.00    -0.201 C  
HETATM    9  C   UNL     1     -10.331  14.426  66.460  1.00  0.00    -0.281 C  
HETATM   10  N   UNL     1     -10.339  15.246  67.640  1.00  0.00    -0.247 N  
ENDROOT
BRANCH   5  11
HETATM   11  C   UNL     1     -11.198  12.798  70.378  1.00  0.00     0.895 A  
HETATM   12  N   UNL     1     -10.510  11.713  70.076  1.00  0.00     0.767 NA 
HETATM   13  C   UNL     1     -12.543  11.180  70.862  1.00  0.00    -0.386 A  
HETATM   14  C   UNL     1     -13.623  10.394  71.240  1.00  0.00    -0.052 A  
HETATM   15  C   UNL     1     -11.222   9.305  70.127  1.00  0.00    -0.237 A  
HETATM   16  C   UNL     1     -11.365  10.682  70.334  1.00  0.00    -0.304 A  
HETATM   17  O   UNL     1     -12.441  12.544  70.901  1.00  0.00    -0.365 OA 
HETATM   18 CL   UNL     1     -12.210   6.795  70.149  1.00  0.00    -0.178 Cl 
HETATM   19  C   UNL     1     -13.482   9.018  71.004  1.00  0.00    -0.030 A  
HETATM   20  C   UNL     1     -12.308   8.487  70.455  1.00  0.00     0.316 A  
ENDBRANCH   5  11
BRANCH   9  21
HETATM   21  C   UNL     1      -9.424  13.192  66.260  1.00  0.00    -0.194 A  
HETATM   22  C   UNL     1      -8.177  13.119  66.895  1.00  0.00     0.020 A  
HETATM   23  C   UNL     1      -6.217  11.977  67.928  1.00  0.00    -0.073 C  
HETATM   24  C   UNL     1      -9.683  12.094  65.406  1.00  0.00    -0.162 A  
HETATM   25  C   UNL     1      -7.558  10.980  66.030  1.00  0.00    -0.042 A  
HETATM   26  C   UNL     1      -8.711  11.054  65.246  1.00  0.00    -0.099 A  
HETATM   27  C   UNL     1      -7.317  12.010  66.907  1.00  0.00    -0.042 A  
BRANCH  24  28
HETATM   28  N   UNL     1     -10.886  11.877  64.677  1.00  0.00    -0.298 NA 
HETATM   29  N   UNL     1     -10.956  11.874  63.320  1.00  0.00    -0.358 NA 
HETATM   30  C   UNL     1     -12.967  11.928  64.303  1.00  0.00     0.138 A  
HETATM   31  C   UNL     1     -12.273  11.837  63.099  1.00  0.00    -0.156 A  
HETATM   32  N   UNL     1     -12.102  12.009  65.313  1.00  0.00    -0.392 NA 
ENDBRANCH  24  28
ENDBRANCH   9  21
TORSDOF 3
ENDMDL
MODEL      155
REMARK 921   NORMALIZED FREE ENERGY PREDICTED BY IDOCK:   -0.03 KCAL/MOL
REMARK 922        TOTAL FREE ENERGY PREDICTED BY IDOCK:   -1.66 KCAL/MOL
REMARK 923 INTER-LIGAND FREE ENERGY PREDICTED BY IDOCK:   -3.42 KCAL/MOL
REMARK 924 INTRA-LIGAND FREE ENERGY PREDICTED BY IDOCK:    1.77 KCAL/MOL
REMARK 927      BINDING AFFINITY PREDICTED BY RF-SCORE:    0.00 PKD
ROOT
HETATM    1  C   UNL     1     -10.009   9.829  69.431  1.00  0.00    -0.205 C  
HETATM    2  C   UNL     1     -10.858   8.801  70.215  1.00  0.00    -0.252 C  
HETATM    3  C   UNL     1     -10.145  11.257  70.042  1.00  0.00     1.009 C  
HETATM    4  C   UNL     1     -11.327  12.147  69.619  1.00  0.00    -0.153 C  
HETATM    5  N   UNL     1     -11.350  12.440  68.197  1.00  0.00    -0.267 NA 
HETATM    6  C   UNL     1     -12.023  11.502  67.310  1.00  0.00     0.236 C  
HETATM    7  O   UNL     1      -8.164   8.959  67.506  1.00  0.00    -0.108 OA 
HETATM    8  C   UNL     1     -11.676  10.038  67.625  1.00  0.00     1.236 C  
HETATM    9  C   UNL     1      -9.180   9.517  67.061  1.00  0.00    -0.139 C  
HETATM   10  N   UNL     1     -10.267   9.787  67.960  1.00  0.00    -0.179 N  
ENDROOT
BRANCH   5  11
HETATM   11  C   UNL     1     -10.751  13.512  67.627  1.00  0.00    -0.248 A  
HETATM   12  N   UNL     1      -9.461  13.794  67.631  1.00  0.00    -0.210 NA 
HETATM   13  C   UNL     1     -10.625  15.385  66.560  1.00  0.00    -0.306 A  
HETATM   14  C   UNL     1     -10.884  16.563  65.871  1.00  0.00    -0.096 A  
HETATM   15  C   UNL     1      -8.269  15.835  66.780  1.00  0.00    -0.302 A  
HETATM   16  C   UNL     1      -9.371  14.999  67.000  1.00  0.00    -0.224 A  
HETATM   17  O   UNL     1     -11.520  14.427  66.953  1.00  0.00    -0.337 OA 
HETATM   18 CL   UNL     1      -7.191  18.147  65.904  1.00  0.00    -0.301 Cl 
HETATM   19  C   UNL     1      -9.779  17.406  65.680  1.00  0.00     0.177 A  
HETATM   20  C   UNL     1      -8.501  17.051  66.130  1.00  0.00    -0.227 A  
ENDBRANCH   5  11
BRANCH   9  21
HETATM   21  C   UNL     1      -9.199   9.834  65.549  1.00  0.00    -0.270 A  
HETATM   22  C   UNL     1     -10.126  10.746  65.027  1.00  0.00    -0.377 A  
HETATM   23  C   UNL     1     -10.979  12.454  63.424  1.00  0.00    -0.442 C  
HETATM   24  C   UNL     1      -8.393   9.225  64.557  1.00  0.00    -0.164 A  
HETATM   25  C   UNL     1      -9.419  10.580  62.752  1.00  0.00    -0.353 A  
HETATM   26  C   UNL     1      -8.577   9.550  63.174  1.00  0.00    -0.218 A  
HETATM   27  C   UNL     1     -10.168  11.223  63.708  1.00  0.00    -0.431 A  
BRANCH  24  28
HETATM   28  N   UNL     1      -7.338   8.304  64.799  1.00  0.00    -0.085 NA 
HETATM   29  N   UNL     1      -6.875   7.993  66.039  1.00  0.00    -0.057 NA 
HETATM   30  C   UNL     1      -5.551   7.246  64.396  1.00  0.00    -0.033 A  
HETATM   31  C   UNL     1      -5.786   7.269  65.768  1.00  0.00    -0.037 A  
HETATM   32  N   UNL     1      -6.496   7.943  63.769  1.00  0.00    -0.062 NA 
ENDBRANCH  24  28
ENDBRANCH   9  21
TORSDOF 3
ENDMDL
MODEL      156
REMARK 921   NORMALIZED FREE ENERGY PREDICTED BY IDOCK:    0.13 KCAL/MOL
REMARK 922        TOTAL FREE ENERGY PREDICTED BY IDOCK:   -1.48 KCAL/MOL
REMARK 923 INTER-LIGAND FREE ENERGY PREDICTED BY IDOCK:   -1.03 KCAL/MOL
REMARK 924 INTRA-LIGAND FREE ENERGY PREDICTED BY IDOCK:   -0.45 KCAL/MOL
REMARK 927      BINDING AFFINITY PREDICTED BY RF-SCORE:    0.00 PKD
ROOT
HETATM    1  C   UNL     1     -10.501  15.480  65.777  1.00  0.00    -0.361 C  
HETATM    2  C   UNL     1     -10.870  16.788  65.040  1.00  0.00    -0.131 C  
HETATM    3  C   UNL     1     -11.762  14.595  66.019  1.00  0.00    -0.306 C  
HETATM    4  C   UNL     1     -12.641  14.857  67.254  1.00  0.00     0.895 C  
HETATM    5  N   UNL     1     -11.933  14.698  68.512  1.00  0.00    -0.297 NA 
HETATM    6  C   UNL     1     -11.215  15.845  69.050  1.00  0.00    -0.327 C  
HETATM    7  O   UNL     1      -7.812  14.758  66.111  1.00  0.00     0.890 OA 
HETATM    8  C   UNL     1     -10.397  16.585  67.979  1.00  0.00    -0.294 C  
HETATM    9  C   UNL     1      -8.400  15.126  67.141  1.00  0.00    -0.219 C  
HETATM   10  N   UNL     1      -9.701  15.721  67.015  1.00  0.00    -0.225 N  
ENDROOT
BRANCH   5  11
HETATM   11  C   UNL     1     -11.859  13.538  69.206  1.00  0.00    -0.341 A  
HETATM   12  N   UNL     1     -11.159  12.465  68.884  1.00  0.00    -0.251 NA 
HETATM   13  C   UNL     1     -12.308  12.132  70.782  1.00  0.00    -0.297 A  
HETATM   14  C   UNL     1     -12.807  11.475  71.899  1.00  0.00    -0.372 A  
HETATM   15  C   UNL     1     -11.097  10.209  69.985  1.00  0.00    -0.368 A  
HETATM   16  C   UNL     1     -11.469  11.551  69.847  1.00  0.00    -0.260 A  
HETATM   17  O   UNL     1     -12.557  13.416  70.381  1.00  0.00    -0.259 OA 
HETATM   18 CL   UNL     1     -11.252   7.829  71.245  1.00  0.00    -0.266 Cl 
HETATM   19  C   UNL     1     -12.452  10.123  72.014  1.00  0.00    -0.264 A  
HETATM   20  C   UNL     1     -11.619   9.503  71.074  1.00  0.00    -0.344 A  
ENDBRANCH   5  11
BRANCH   9  21
HETATM   21  C   UNL     1      -7.647  14.949  68.478  1.00  0.00    -0.121 A  
HETATM   22  C   UNL     1      -7.145  16.064  69.162  1.00  0.00    -0.197 A  
HETATM   23  C   UNL     1      -6.425  17.370  71.160  1.00  0.00     2.459 C  
HETATM   24  C   UNL     1      -7.321  13.718  69.097  1.00  0.00     0.019 A  
HETATM   25  C   UNL     1      -6.204  14.856  70.996  1.00  0.00     0.171 A  
HETATM   26  C   UNL     1      -6.537  13.695  70.296  1.00  0.00     0.187 A  
HETATM   27  C   UNL     1      -6.563  16.060  70.439  1.00  0.00     0.458 A  
BRANCH  24  28
HETATM   28  N   UNL     1      -7.740  12.433  68.655  1.00  0.00    -0.101 NA 
HETATM   29  N   UNL     1      -7.234  11.266  69.135  1.00  0.00    -0.120 NA 
HETATM   30  C   UNL     1      -8.480  10.991  67.296  1.00  0.00    -0.130 A  
HETATM   31  C   UNL     1      -7.763  10.360  68.309  1.00  0.00    -0.096 A  
HETATM   32  N   UNL     1      -8.431  12.311  67.469  1.00  0.00    -0.162 NA 
ENDBRANCH  24  28
ENDBRANCH   9  21
TORSDOF 3
ENDMDL
MODEL      157
REMARK 921   NORMALIZED FREE ENERGY PREDICTED BY IDOCK:    0.26 KCAL/MOL
REMARK 922        TOTAL FREE ENERGY PREDICTED BY IDOCK:   -1.32 KCAL/MOL
REMARK 923 INTER-LIGAND FREE ENERGY PREDICTED BY IDOCK:   -0.23 KCAL/MOL
REMARK 924 INTRA-LIGAND FREE ENERGY PREDICTED BY IDOCK:   -1.10 KCAL/MOL
REMARK 927      BINDING AFFINITY PREDICTED BY RF-SCORE:    0.00 PKD
ROOT
HETATM    1  C   UNL     1      -7.551   5.600  67.503  1.00  0.00    -0.089 C  
HETATM    2  C   UNL     1      -7.136   4.169  67.089  1.00  0.00    -0.067 C  
HETATM    3  C   UNL     1      -6.362   6.598  67.348  1.00  0.00    -0.044 C  
HETATM    4  C   UNL     1      -5.340   6.735  68.489  1.00  0.00    -0.016 C  
HETATM    5  N   UNL     1      -5.927   7.179  69.741  1.00  0.00    -0.023 NA 
HETATM    6  C   UNL     1      -6.472   6.175  70.643  1.00  0.00    -0.041 C  
HETATM    7  O   UNL     1     -10.248   6.208  67.971  1.00  0.00    -0.144 OA 
HETATM    8  C   UNL     1      -7.321   5.123  69.911  1.00  0.00    -0.060 C  
HETATM    9  C   UNL     1      -9.525   6.169  68.980  1.00  0.00    -0.127 C  
HETATM   10  N   UNL     1      -8.192   5.648  68.851  1.00  0.00    -0.100 N  
ENDROOT
BRANCH   5  11
HETATM   11  C   UNL     1      -6.041   8.476  70.115  1.00  0.00    -0.034 A  
HETATM   12  N   UNL     1      -6.738   9.418  69.505  1.00  0.00    -0.047 NA 
HETATM   13  C   UNL     1      -5.670  10.243  71.298  1.00  0.00     0.008 A  
HETATM   14  C   UNL     1      -5.223  11.172  72.229  1.00  0.00     0.348 A  
HETATM   15  C   UNL     1      -6.866  11.878  69.994  1.00  0.00     0.383 A  
HETATM   16  C   UNL     1      -6.476  10.552  70.215  1.00  0.00    -0.140 A  
HETATM   17  O   UNL     1      -5.392   8.905  71.245  1.00  0.00    -0.032 OA 
HETATM   18 CL   UNL     1      -6.785  14.502  70.613  1.00  0.00     0.071 Cl 
HETATM   19  C   UNL     1      -5.596  12.502  71.983  1.00  0.00     0.645 A  
HETATM   20  C   UNL     1      -6.396  12.847  70.887  1.00  0.00     0.892 A  
ENDBRANCH   5  11
BRANCH   9  21
HETATM   21  C   UNL     1     -10.150   6.649  70.308  1.00  0.00    -0.201 A  
HETATM   22  C   UNL     1     -10.606   7.967  70.441  1.00  0.00    -0.228 A  
HETATM   23  C   UNL     1     -12.033   9.797  71.352  1.00  0.00    -0.493 C  
HETATM   24  C   UNL     1     -10.258   5.896  71.502  1.00  0.00    -0.205 A  
HETATM   25  C   UNL     1     -11.353   7.769  72.701  1.00  0.00    -0.449 A  
HETATM   26  C   UNL     1     -10.780   6.496  72.694  1.00  0.00    -0.260 A  
HETATM   27  C   UNL     1     -11.308   8.495  71.535  1.00  0.00    -0.348 A  
BRANCH  24  28
HETATM   28  N   UNL     1      -9.922   4.521  71.646  1.00  0.00    -0.191 NA 
HETATM   29  N   UNL     1     -10.547   3.516  70.978  1.00  0.00     0.908 NA 
HETATM   30  C   UNL     1      -9.231   2.784  72.635  1.00  0.00    -0.087 A  
HETATM   31  C   UNL     1     -10.050   2.425  71.567  1.00  0.00     0.058 A  
HETATM   32  N   UNL     1      -9.181   4.111  72.734  1.00  0.00    -0.114 NA 
ENDBRANCH  24  28
ENDBRANCH   9  21
TORSDOF 3
ENDMDL
MODEL      158
REMARK 921   NORMALIZED FREE ENERGY PREDICTED BY IDOCK:    0.91 KCAL/MOL
REMARK 922        TOTAL FREE ENERGY PREDICTED BY IDOCK:   -0.56 KCAL/MOL
REMARK 923 INTER-LIGAND FREE ENERGY PREDICTED BY IDOCK:    0.19 KCAL/MOL
REMARK 924 INTRA-LIGAND FREE ENERGY PREDICTED BY IDOCK:   -0.75 KCAL/MOL
REMARK 927      BINDING AFFINITY PREDICTED BY RF-SCORE:    0.00 PKD
ROOT
HETATM    1  C   UNL     1     -11.764  16.560  69.836  1.00  0.00     0.325 C  
HETATM    2  C   UNL     1     -12.244  17.022  71.231  1.00  0.00     2.587 C  
HETATM    3  C   UNL     1     -12.659  15.407  69.285  1.00  0.00     0.139 C  
HETATM    4  C   UNL     1     -12.355  13.956  69.696  1.00  0.00    -0.249 C  
HETATM    5  N   UNL     1     -11.032  13.507  69.299  1.00  0.00    -0.177 NA 
HETATM    6  C   UNL     1      -9.917  13.765  70.199  1.00  0.00     1.988 C  
HETATM    7  O   UNL     1      -9.835  18.044  68.444  1.00  0.00    -0.326 OA 
HETATM    8  C   UNL     1      -9.932  15.195  70.763  1.00  0.00     0.793 C  
HETATM    9  C   UNL     1      -9.449  16.953  68.895  1.00  0.00    -0.241 C  
HETATM   10  N   UNL     1     -10.305  16.243  69.804  1.00  0.00    -0.251 N  
ENDROOT
BRANCH   5  11
HETATM   11  C   UNL     1     -10.753  12.897  68.123  1.00  0.00    -0.241 A  
HETATM   12  N   UNL     1     -10.779  13.443  66.921  1.00  0.00    -0.272 NA 
HETATM   13  C   UNL     1     -10.235  11.269  66.802  1.00  0.00    -0.226 A  
HETATM   14  C   UNL     1      -9.907  10.042  66.241  1.00  0.00    -0.297 A  
HETATM   15  C   UNL     1     -10.470  12.369  64.672  1.00  0.00    -0.338 A  
HETATM   16  C   UNL     1     -10.499  12.414  66.071  1.00  0.00    -0.254 A  
HETATM   17  O   UNL     1     -10.388  11.574  68.127  1.00  0.00    -0.183 OA 
HETATM   18 CL   UNL     1     -10.216  11.012  62.355  1.00  0.00     0.247 Cl 
HETATM   19  C   UNL     1      -9.908   9.999  64.839  1.00  0.00    -0.352 A  
HETATM   20  C   UNL     1     -10.188  11.137  64.072  1.00  0.00    -0.361 A  
ENDBRANCH   5  11
BRANCH   9  21
HETATM   21  C   UNL     1      -8.045  16.475  68.464  1.00  0.00    -0.218 A  
HETATM   22  C   UNL     1      -7.789  15.112  68.267  1.00  0.00    -0.124 A  
HETATM   23  C   UNL     1      -6.646  13.135  67.266  1.00  0.00     0.042 C  
HETATM   24  C   UNL     1      -6.897  17.288  68.306  1.00  0.00    -0.184 A  
HETATM   25  C   UNL     1      -5.492  15.351  67.660  1.00  0.00    -0.064 A  
HETATM   26  C   UNL     1      -5.629  16.700  67.988  1.00  0.00    -0.127 A  
HETATM   27  C   UNL     1      -6.608  14.555  67.753  1.00  0.00    -0.189 A  
BRANCH  24  28
HETATM   28  N   UNL     1      -6.869  18.707  68.395  1.00  0.00    -0.241 NA 
HETATM   29  N   UNL     1      -7.076  19.535  67.336  1.00  0.00    -0.211 NA 
HETATM   30  C   UNL     1      -6.276  20.596  69.138  1.00  0.00    -0.225 A  
HETATM   31  C   UNL     1      -6.762  20.732  67.840  1.00  0.00    -0.302 A  
HETATM   32  N   UNL     1      -6.286  19.312  69.488  1.00  0.00    -0.279 NA 
ENDBRANCH  24  28
ENDBRANCH   9  21
TORSDOF 3
ENDMDL
MODEL      159
REMARK 921   NORMALIZED FREE ENERGY PREDICTED BY IDOCK:    0.92 KCAL/MOL
REMARK 922        TOTAL FREE ENERGY PREDICTED BY IDOCK:   -0.54 KCAL/MOL
REMARK 923 INTER-LIGAND FREE ENERGY PREDICTED BY IDOCK:   -2.97 KCAL/MOL
REMARK 924 INTRA-LIGAND FREE ENERGY PREDICTED BY IDOCK:    2.43 KCAL/MOL
REMARK 927      BINDING AFFINITY PREDICTED BY RF-SCORE:    0.00 PKD
ROOT
HETATM    1  C   UNL     1     -11.794  11.694  66.750  1.00  0.00     0.136 C  
HETATM    2  C   UNL     1     -11.981  13.106  66.146  1.00  0.00    -0.478 C  
HETATM    3  C   UNL     1     -12.399  11.611  68.185  1.00  0.00     0.571 C  
HETATM    4  C   UNL     1     -11.553  12.065  69.387  1.00  0.00    -0.330 C  
HETATM    5  N   UNL     1     -10.325  11.307  69.549  1.00  0.00    -0.012 NA 
HETATM    6  C   UNL     1      -9.140  11.749  68.826  1.00  0.00     0.017 C  
HETATM    7  O   UNL     1     -10.903   9.577  65.142  1.00  0.00     1.391 OA 
HETATM    8  C   UNL     1      -9.443  12.115  67.364  1.00  0.00    -0.179 C  
HETATM    9  C   UNL     1     -10.084   9.999  65.974  1.00  0.00    -0.248 C  
HETATM   10  N   UNL     1     -10.381  11.217  66.675  1.00  0.00    -0.229 N  
ENDROOT
BRANCH   5  11
HETATM   11  C   UNL     1     -10.211  10.185  70.298  1.00  0.00    -0.120 A  
HETATM   12  N   UNL     1      -9.296   9.241  70.178  1.00  0.00    -0.209 NA 
HETATM   13  C   UNL     1     -10.749   8.746  71.815  1.00  0.00    -0.343 A  
HETATM   14  C   UNL     1     -11.358   8.029  72.836  1.00  0.00    -0.364 A  
HETATM   15  C   UNL     1      -9.103   7.042  71.376  1.00  0.00    -0.147 A  
HETATM   16  C   UNL     1      -9.650   8.301  71.101  1.00  0.00    -0.163 A  
HETATM   17  O   UNL     1     -11.112   9.964  71.310  1.00  0.00    -0.351 OA 
HETATM   18 CL   UNL     1      -9.133   4.687  72.691  1.00  0.00    -0.136 Cl 
HETATM   19  C   UNL     1     -10.822   6.757  73.087  1.00  0.00    -0.315 A  
HETATM   20  C   UNL     1      -9.721   6.273  72.368  1.00  0.00    -0.153 A  
ENDBRANCH   5  11
BRANCH   9  21
HETATM   21  C   UNL     1      -8.782   9.187  66.149  1.00  0.00    -0.169 A  
HETATM   22  C   UNL     1      -7.600   9.597  65.520  1.00  0.00    -0.109 A  
HETATM   23  C   UNL     1      -5.133   9.822  65.240  1.00  0.00    -0.044 C  
HETATM   24  C   UNL     1      -8.647   7.965  66.852  1.00  0.00    -0.129 A  
HETATM   25  C   UNL     1      -6.227   7.821  66.333  1.00  0.00    -0.045 A  
HETATM   26  C   UNL     1      -7.395   7.267  66.860  1.00  0.00    -0.092 A  
HETATM   27  C   UNL     1      -6.327   9.034  65.696  1.00  0.00    -0.063 A  
BRANCH  24  28
HETATM   28  N   UNL     1      -9.663   7.338  67.625  1.00  0.00    -0.138 NA 
HETATM   29  N   UNL     1     -10.587   8.019  68.353  1.00  0.00    -0.152 NA 
HETATM   30  C   UNL     1     -10.547   5.828  68.813  1.00  0.00    -0.251 A  
HETATM   31  C   UNL     1     -11.182   7.045  69.047  1.00  0.00     0.000 A  
HETATM   32  N   UNL     1      -9.545   6.005  67.954  1.00  0.00    -0.115 NA 
ENDBRANCH  24  28
ENDBRANCH   9  21
TORSDOF 3
ENDMDL
MODEL      160
REMARK 921   NORMALIZED FREE ENERGY PREDICTED BY IDOCK:    1.32 KCAL/MOL
REMARK 922        TOTAL FREE ENERGY PREDICTED BY IDOCK:   -0.08 KCAL/MOL
REMARK 923 INTER-LIGAND FREE ENERGY PREDICTED BY IDOCK:    0.88 KCAL/MOL
REMARK 924 INTRA-LIGAND FREE ENERGY PREDICTED BY IDOCK:   -0.96 KCAL/MOL
REMARK 927      BINDING AFFINITY PREDICTED BY RF-SCORE:    0.00 PKD
ROOT
HETATM    1  C   UNL     1      -7.043  11.462  69.552  1.00  0.00    -0.019 C  
HETATM    2  C   UNL     1      -6.331  12.829  69.686  1.00  0.00    -0.091 C  
HETATM    3  C   UNL     1      -6.340  10.373  70.420  1.00  0.00    -0.127 C  
HETATM    4  C   UNL     1      -5.127   9.620  69.846  1.00  0.00    -0.033 C  
HETATM    5  N   UNL     1      -5.429   8.874  68.637  1.00  0.00    -0.037 NA 
HETATM    6  C   UNL     1      -5.330   9.562  67.358  1.00  0.00    -0.036 C  
HETATM    7  O   UNL     1      -9.527  11.285  68.263  1.00  0.00    -0.175 OA 
HETATM    8  C   UNL     1      -5.972  10.959  67.388  1.00  0.00    -0.047 C  
HETATM    9  C   UNL     1      -8.565  10.801  67.642  1.00  0.00    -0.123 C  
HETATM   10  N   UNL     1      -7.237  11.051  68.129  1.00  0.00    -0.081 N  
ENDROOT
BRANCH   5  11
HETATM   11  C   UNL     1      -5.838   7.583  68.617  1.00  0.00    -0.024 A  
HETATM   12  N   UNL     1      -6.134   6.862  67.551  1.00  0.00    -0.031 NA 
HETATM   13  C   UNL     1      -6.436   5.675  69.431  1.00  0.00    -0.045 A  
HETATM   14  C   UNL     1      -6.776   4.607  70.251  1.00  0.00    -0.036 A  
HETATM   15  C   UNL     1      -7.079   4.539  67.406  1.00  0.00    -0.065 A  
HETATM   16  C   UNL     1      -6.558   5.667  68.052  1.00  0.00    -0.053 A  
HETATM   17  O   UNL     1      -5.964   6.904  69.803  1.00  0.00    -0.022 OA 
HETATM   18 CL   UNL     1      -8.191   2.083  67.464  1.00  0.00    -0.068 Cl 
HETATM   19  C   UNL     1      -7.323   3.492  69.597  1.00  0.00    -0.045 A  
HETATM   20  C   UNL     1      -7.475   3.462  68.205  1.00  0.00    -0.053 A  
ENDBRANCH   5  11
BRANCH   9  21
HETATM   21  C   UNL     1      -8.890  10.002  66.361  1.00  0.00    -0.158 A  
HETATM   22  C   UNL     1      -8.396  10.422  65.119  1.00  0.00    -0.165 A  
HETATM   23  C   UNL     1      -7.607  10.135  62.772  1.00  0.00    -0.144 C  
HETATM   24  C   UNL     1      -9.735   8.870  66.274  1.00  0.00    -0.275 A  
HETATM   25  C   UNL     1      -9.370   8.663  63.831  1.00  0.00     1.206 A  
HETATM   26  C   UNL     1     -10.023   8.276  65.002  1.00  0.00     2.086 A  
HETATM   27  C   UNL     1      -8.502   9.725  63.906  1.00  0.00    -0.186 A  
BRANCH  24  28
HETATM   28  N   UNL     1     -10.334   8.197  67.375  1.00  0.00    -0.257 NA 
HETATM   29  N   UNL     1      -9.757   8.092  68.601  1.00  0.00    -0.156 NA 
HETATM   30  C   UNL     1     -11.535   6.756  68.350  1.00  0.00     0.228 A  
HETATM   31  C   UNL     1     -10.564   7.232  69.228  1.00  0.00    -0.221 A  
HETATM   32  N   UNL     1     -11.371   7.317  67.154  1.00  0.00     0.138 NA 
ENDBRANCH  24  28
ENDBRANCH   9  21
TORSDOF 3
ENDMDL
MODEL      161
REMARK 921   NORMALIZED FREE ENERGY PREDICTED BY IDOCK:    2.21 KCAL/MOL
REMARK 922        TOTAL FREE ENERGY PREDICTED BY IDOCK:    0.97 KCAL/MOL
REMARK 923 INTER-LIGAND FREE ENERGY PREDICTED BY IDOCK:    1.45 KCAL/MOL
REMARK 924 INTRA-LIGAND FREE ENERGY PREDICTED BY IDOCK:   -0.48 KCAL/MOL
REMARK 927      BINDING AFFINITY PREDICTED BY RF-SCORE:    0.00 PKD
ROOT
HETATM    1  C   UNL     1      -8.199   7.782  63.921  1.00  0.00     0.012 C  
HETATM    2  C   UNL     1      -8.929   7.074  62.755  1.00  0.00     0.946 C  
HETATM    3  C   UNL     1      -7.536   6.747  64.881  1.00  0.00    -0.094 C  
HETATM    4  C   UNL     1      -8.377   6.112  66.001  1.00  0.00    -0.136 C  
HETATM    5  N   UNL     1      -8.908   7.080  66.945  1.00  0.00    -0.120 NA 
HETATM    6  C   UNL     1     -10.185   7.710  66.643  1.00  0.00    -0.202 C  
HETATM    7  O   UNL     1      -7.821  10.560  63.870  1.00  0.00    -0.098 OA 
HETATM    8  C   UNL     1     -10.285   8.168  65.179  1.00  0.00     2.961 C  
HETATM    9  C   UNL     1      -8.654  10.148  64.694  1.00  0.00    -0.183 C  
HETATM   10  N   UNL     1      -9.066   8.773  64.627  1.00  0.00     0.076 N  
ENDROOT
BRANCH   5  11
HETATM   11  C   UNL     1      -8.275   7.471  68.077  1.00  0.00    -0.124 A  
HETATM   12  N   UNL     1      -8.051   8.711  68.470  1.00  0.00    -0.116 NA 
HETATM   13  C   UNL     1      -7.191   7.239  69.929  1.00  0.00    -0.081 A  
HETATM   14  C   UNL     1      -6.512   6.760  71.042  1.00  0.00    -0.049 A  
HETATM   15  C   UNL     1      -6.731   9.549  70.436  1.00  0.00    -0.093 A  
HETATM   16  C   UNL     1      -7.325   8.581  69.618  1.00  0.00    -0.060 A  
HETATM   17  O   UNL     1      -7.808   6.517  68.945  1.00  0.00    -0.106 OA 
HETATM   18 CL   UNL     1      -5.186  10.247  72.535  1.00  0.00     0.064 Cl 
HETATM   19  C   UNL     1      -5.896   7.735  71.841  1.00  0.00    -0.035 A  
HETATM   20  C   UNL     1      -6.000   9.099  71.541  1.00  0.00    -0.071 A  
ENDBRANCH   5  11
BRANCH   9  21
HETATM   21  C   UNL     1      -9.211  11.177  65.701  1.00  0.00    -0.238 A  
HETATM   22  C   UNL     1     -10.510  11.681  65.555  1.00  0.00    -0.321 A  
HETATM   23  C   UNL     1     -12.674  12.648  66.328  1.00  0.00     0.831 C  
HETATM   24  C   UNL     1      -8.501  11.763  66.777  1.00  0.00    -0.177 A  
HETATM   25  C   UNL     1     -10.463  13.114  67.465  1.00  0.00    -0.229 A  
HETATM   26  C   UNL     1      -9.114  12.777  67.583  1.00  0.00    -0.193 A  
HETATM   27  C   UNL     1     -11.184  12.513  66.461  1.00  0.00    -0.356 A  
BRANCH  24  28
HETATM   28  N   UNL     1      -7.188  11.410  67.192  1.00  0.00    -0.126 NA 
HETATM   29  N   UNL     1      -6.411  12.192  67.988  1.00  0.00    -0.062 NA 
HETATM   30  C   UNL     1      -5.283  10.501  67.049  1.00  0.00    -0.041 A  
HETATM   31  C   UNL     1      -5.231  11.568  67.942  1.00  0.00    -0.046 A  
HETATM   32  N   UNL     1      -6.503  10.419  66.522  1.00  0.00    -0.082 NA 
ENDBRANCH  24  28
ENDBRANCH   9  21
TORSDOF 3
ENDMDL
MODEL      162
REMARK 921   NORMALIZED FREE ENERGY PREDICTED BY IDOCK:    4.63 KCAL/MOL
REMARK 922        TOTAL FREE ENERGY PREDICTED BY IDOCK:    3.81 KCAL/MOL
REMARK 923 INTER-LIGAND FREE ENERGY PREDICTED BY IDOCK:    1.97 KCAL/MOL
REMARK 924 INTRA-LIGAND FREE ENERGY PREDICTED BY IDOCK:    1.84 KCAL/MOL
REMARK 927      BINDING AFFINITY PREDICTED BY RF-SCORE:    0.00 PKD
ROOT
HETATM    1  C   UNL     1      -6.026   6.430  65.468  1.00  0.00    -0.029 C  
HETATM    2  C   UNL     1      -5.878   5.809  64.060  1.00  0.00    -0.024 C  
HETATM    3  C   UNL     1      -5.635   5.409  66.580  1.00  0.00    -0.017 C  
HETATM    4  C   UNL     1      -6.685   4.405  67.084  1.00  0.00    -0.051 C  
HETATM    5  N   UNL     1      -7.853   5.037  67.674  1.00  0.00    -0.094 NA 
HETATM    6  C   UNL     1      -8.952   5.412  66.796  1.00  0.00    -0.112 C  
HETATM    7  O   UNL     1      -6.482   9.183  65.755  1.00  0.00    -0.062 OA 
HETATM    8  C   UNL     1      -8.471   6.102  65.509  1.00  0.00    -0.149 C  
HETATM    9  C   UNL     1      -7.448   8.449  66.020  1.00  0.00    -0.084 C  
HETATM   10  N   UNL     1      -7.366   7.055  65.684  1.00  0.00    -0.076 N  
ENDROOT
BRANCH   5  11
HETATM   11  C   UNL     1      -7.976   5.341  68.988  1.00  0.00    -0.086 A  
HETATM   12  N   UNL     1      -8.436   6.467  69.500  1.00  0.00    -0.130 NA 
HETATM   13  C   UNL     1      -7.805   5.048  71.120  1.00  0.00    -0.093 A  
HETATM   14  C   UNL     1      -7.550   4.567  72.397  1.00  0.00    -0.084 A  
HETATM   15  C   UNL     1      -8.530   7.210  71.898  1.00  0.00    -0.112 A  
HETATM   16  C   UNL     1      -8.292   6.316  70.848  1.00  0.00    -0.127 A  
HETATM   17  O   UNL     1      -7.607   4.410  69.926  1.00  0.00    -0.050 OA 
HETATM   18 CL   UNL     1      -8.445   7.864  74.513  1.00  0.00    -0.236 Cl 
HETATM   19  C   UNL     1      -7.766   5.480  73.441  1.00  0.00    -0.096 A  
HETATM   20  C   UNL     1      -8.241   6.774  73.195  1.00  0.00    -0.111 A  
ENDBRANCH   5  11
BRANCH   9  21
HETATM   21  C   UNL     1      -8.685   9.123  66.654  1.00  0.00    -0.140 A  
HETATM   22  C   UNL     1      -9.900   8.432  66.745  1.00  0.00    -0.329 A  
HETATM   23  C   UNL     1     -12.122   7.860  67.720  1.00  0.00     4.116 C  
HETATM   24  C   UNL     1      -8.765  10.459  67.116  1.00  0.00    -0.129 A  
HETATM   25  C   UNL     1     -11.132  10.186  67.799  1.00  0.00    -0.293 A  
HETATM   26  C   UNL     1     -10.005  10.986  67.601  1.00  0.00    -0.196 A  
HETATM   27  C   UNL     1     -11.056   8.870  67.409  1.00  0.00     0.303 A  
BRANCH  24  28
HETATM   28  N   UNL     1      -7.679  11.375  67.191  1.00  0.00    -0.144 NA 
HETATM   29  N   UNL     1      -7.745  12.574  67.827  1.00  0.00    -0.129 NA 
HETATM   30  C   UNL     1      -5.917  12.355  66.554  1.00  0.00     0.961 A  
HETATM   31  C   UNL     1      -6.596  13.154  67.470  1.00  0.00    -0.152 A  
HETATM   32  N   UNL     1      -6.616  11.246  66.323  1.00  0.00    -0.073 NA 
ENDBRANCH  24  28
ENDBRANCH   9  21
TORSDOF 3
ENDMDL
MODEL      163
REMARK 921   NORMALIZED FREE ENERGY PREDICTED BY IDOCK:    6.92 KCAL/MOL
REMARK 922        TOTAL FREE ENERGY PREDICTED BY IDOCK:    6.51 KCAL/MOL
REMARK 923 INTER-LIGAND FREE ENERGY PREDICTED BY IDOCK:    7.34 KCAL/MOL
REMARK 924 INTRA-LIGAND FREE ENERGY PREDICTED BY IDOCK:   -0.83 KCAL/MOL
REMARK 927      BINDING AFFINITY PREDICTED BY RF-SCORE:    0.00 PKD
ROOT
HETATM    1  C   UNL     1      -9.252  15.417  69.222  1.00  0.00    -0.259 C  
HETATM    2  C   UNL     1      -9.125  16.685  68.346  1.00  0.00    -0.226 C  
HETATM    3  C   UNL     1      -7.957  15.177  70.058  1.00  0.00     0.269 C  
HETATM    4  C   UNL     1      -6.777  14.425  69.418  1.00  0.00    -0.140 C  
HETATM    5  N   UNL     1      -7.109  13.072  69.007  1.00  0.00    -0.068 NA 
HETATM    6  C   UNL     1      -7.671  12.873  67.679  1.00  0.00    -0.162 C  
HETATM    7  O   UNL     1     -11.731  14.137  69.500  1.00  0.00    -0.272 OA 
HETATM    8  C   UNL     1      -8.766  13.897  67.342  1.00  0.00    -0.203 C  
HETATM    9  C   UNL     1     -10.889  13.532  68.817  1.00  0.00    -0.253 C  
HETATM   10  N   UNL     1      -9.684  14.218  68.443  1.00  0.00    -0.221 N  
ENDROOT
BRANCH   5  11
HETATM   11  C   UNL     1      -6.967  11.978  69.792  1.00  0.00     0.277 A  
HETATM   12  N   UNL     1      -5.963  11.712  70.607  1.00  0.00    -0.326 NA 
HETATM   13  C   UNL     1      -7.474  10.053  70.628  1.00  0.00     0.204 A  
HETATM   14  C   UNL     1      -8.062   8.837  70.951  1.00  0.00    -0.174 A  
HETATM   15  C   UNL     1      -5.505   9.642  71.955  1.00  0.00    -0.046 A  
HETATM   16  C   UNL     1      -6.246  10.476  71.108  1.00  0.00     0.273 A  
HETATM   17  O   UNL     1      -7.949  11.020  69.786  1.00  0.00     0.132 OA 
HETATM   18 CL   UNL     1      -5.140   7.299  73.240  1.00  0.00    -0.037 Cl 
HETATM   19  C   UNL     1      -7.300   7.997  71.777  1.00  0.00    -0.084 A  
HETATM   20  C   UNL     1      -6.047   8.391  72.264  1.00  0.00    -0.065 A  
ENDBRANCH   5  11
BRANCH   9  21
HETATM   21  C   UNL     1     -11.242  12.090  68.387  1.00  0.00    -0.313 A  
HETATM   22  C   UNL     1     -10.848  11.608  67.132  1.00  0.00    -0.306 A  
HETATM   23  C   UNL     1     -10.185   9.874  65.469  1.00  0.00    -0.194 C  
HETATM   24  C   UNL     1     -12.022  11.166  69.122  1.00  0.00    -0.343 A  
HETATM   25  C   UNL     1     -11.792   9.427  67.370  1.00  0.00     3.084 A  
HETATM   26  C   UNL     1     -12.349   9.887  68.564  1.00  0.00     2.314 A  
HETATM   27  C   UNL     1     -10.984  10.291  66.669  1.00  0.00    -0.030 A  
BRANCH  24  28
HETATM   28  N   UNL     1     -12.513  11.363  70.443  1.00  0.00    -0.285 NA 
HETATM   29  N   UNL     1     -13.692  11.977  70.726  1.00  0.00     1.459 NA 
HETATM   30  C   UNL     1     -12.400  11.681  72.530  1.00  0.00     2.466 A  
HETATM   31  C   UNL     1     -13.636  12.110  72.054  1.00  0.00    -0.164 A  
HETATM   32  N   UNL     1     -11.653  11.253  71.514  1.00  0.00     1.034 NA 
ENDBRANCH  24  28
ENDBRANCH   9  21
TORSDOF 3
ENDMDL
MODEL      164
REMARK 921   NORMALIZED FREE ENERGY PREDICTED BY IDOCK:    7.14 KCAL/MOL
REMARK 922        TOTAL FREE ENERGY PREDICTED BY IDOCK:    6.77 KCAL/MOL
REMARK 923 INTER-LIGAND FREE ENERGY PREDICTED BY IDOCK:    7.42 KCAL/MOL
REMARK 924 INTRA-LIGAND FREE ENERGY PREDICTED BY IDOCK:   -0.66 KCAL/MOL
REMARK 927      BINDING AFFINITY PREDICTED BY RF-SCORE:    0.00 PKD
ROOT
HETATM    1  C   UNL     1     -11.382  10.459  65.616  1.00  0.00     1.146 C  
HETATM    2  C   UNL     1     -12.607  11.384  65.435  1.00  0.00     2.484 C  
HETATM    3  C   UNL     1     -11.766   9.160  66.390  1.00  0.00     4.463 C  
HETATM    4  C   UNL     1     -11.783   9.176  67.928  1.00  0.00     2.061 C  
HETATM    5  N   UNL     1     -10.494   9.490  68.517  1.00  0.00    -0.211 NA 
HETATM    6  C   UNL     1     -10.152  10.891  68.724  1.00  0.00    -0.194 C  
HETATM    7  O   UNL     1      -8.994  10.994  64.247  1.00  0.00    -0.146 OA 
HETATM    8  C   UNL     1     -10.497  11.768  67.510  1.00  0.00    -0.202 C  
HETATM    9  C   UNL     1      -8.968  11.203  65.470  1.00  0.00    -0.166 C  
HETATM   10  N   UNL     1     -10.204  11.169  66.201  1.00  0.00    -0.237 N  
ENDROOT
BRANCH   5  11
HETATM   11  C   UNL     1      -9.562   8.568  68.854  1.00  0.00    -0.160 A  
HETATM   12  N   UNL     1      -8.815   7.857  68.029  1.00  0.00    -0.125 NA 
HETATM   13  C   UNL     1      -8.386   7.317  70.164  1.00  0.00    -0.137 A  
HETATM   14  C   UNL     1      -7.820   6.659  71.247  1.00  0.00    -0.102 A  
HETATM   15  C   UNL     1      -7.206   5.996  68.532  1.00  0.00    -0.084 A  
HETATM   16  C   UNL     1      -8.099   7.028  68.841  1.00  0.00    -0.121 A  
HETATM   17  O   UNL     1      -9.322   8.314  70.182  1.00  0.00    -0.157 OA 
HETATM   18 CL   UNL     1      -5.606   3.953  69.268  1.00  0.00    -0.016 Cl 
HETATM   19  C   UNL     1      -6.947   5.608  70.928  1.00  0.00    -0.061 A  
HETATM   20  C   UNL     1      -6.651   5.281  69.598  1.00  0.00    -0.043 A  
ENDBRANCH   5  11
BRANCH   9  21
HETATM   21  C   UNL     1      -7.594  11.529  66.096  1.00  0.00     0.189 A  
HETATM   22  C   UNL     1      -7.505  12.369  67.214  1.00  0.00    -0.135 A  
HETATM   23  C   UNL     1      -6.504  13.253  69.319  1.00  0.00    -0.107 C  
HETATM   24  C   UNL     1      -6.332  11.117  65.604  1.00  0.00     0.201 A  
HETATM   25  C   UNL     1      -5.128  12.280  67.432  1.00  0.00    -0.095 A  
HETATM   26  C   UNL     1      -5.126  11.568  66.232  1.00  0.00    -0.031 A  
HETATM   27  C   UNL     1      -6.346  12.642  67.956  1.00  0.00    -0.093 A  
BRANCH  24  28
HETATM   28  N   UNL     1      -6.119  10.225  64.517  1.00  0.00    -0.135 NA 
HETATM   29  N   UNL     1      -6.075   8.872  64.647  1.00  0.00    -0.065 NA 
HETATM   30  C   UNL     1      -5.366   9.585  62.647  1.00  0.00    -0.083 A  
HETATM   31  C   UNL     1      -5.663   8.479  63.439  1.00  0.00    -0.072 A  
HETATM   32  N   UNL     1      -5.598  10.702  63.334  1.00  0.00    -0.142 NA 
ENDBRANCH  24  28
ENDBRANCH   9  21
TORSDOF 3
ENDMDL
MODEL      165
REMARK 921   NORMALIZED FREE ENERGY PREDICTED BY IDOCK:    8.71 KCAL/MOL
REMARK 922        TOTAL FREE ENERGY PREDICTED BY IDOCK:    8.61 KCAL/MOL
REMARK 923 INTER-LIGAND FREE ENERGY PREDICTED BY IDOCK:   -1.27 KCAL/MOL
REMARK 924 INTRA-LIGAND FREE ENERGY PREDICTED BY IDOCK:    9.88 KCAL/MOL
REMARK 927      BINDING AFFINITY PREDICTED BY RF-SCORE:    0.00 PKD
ROOT
HETATM    1  C   UNL     1      -7.551   5.600  67.503  1.00  0.00    -0.089 C  
HETATM    2  C   UNL     1      -7.136   4.169  67.089  1.00  0.00    -0.067 C  
HETATM    3  C   UNL     1      -6.362   6.598  67.348  1.00  0.00    -0.044 C  
HETATM    4  C   UNL     1      -5.340   6.735  68.489  1.00  0.00    -0.016 C  
HETATM    5  N   UNL     1      -5.927   7.179  69.741  1.00  0.00    -0.023 NA 
HETATM    6  C   UNL     1      -6.472   6.175  70.643  1.00  0.00    -0.041 C  
HETATM    7  O   UNL     1     -10.248   6.208  67.971  1.00  0.00    -0.144 OA 
HETATM    8  C   UNL     1      -7.321   5.123  69.911  1.00  0.00    -0.060 C  
HETATM    9  C   UNL     1      -9.525   6.169  68.980  1.00  0.00    -0.127 C  
HETATM   10  N   UNL     1      -8.192   5.648  68.851  1.00  0.00    -0.100 N  
ENDROOT
BRANCH   5  11
HETATM   11  C   UNL     1      -6.041   8.476  70.115  1.00  0.00    -0.034 A  
HETATM   12  N   UNL     1      -6.738   9.418  69.505  1.00  0.00    -0.047 NA 
HETATM   13  C   UNL     1      -5.670  10.243  71.298  1.00  0.00     0.008 A  
HETATM   14  C   UNL     1      -5.223  11.172  72.229  1.00  0.00     0.348 A  
HETATM   15  C   UNL     1      -6.866  11.878  69.994  1.00  0.00     0.383 A  
HETATM   16  C   UNL     1      -6.476  10.552  70.215  1.00  0.00    -0.140 A  
HETATM   17  O   UNL     1      -5.392   8.905  71.245  1.00  0.00    -0.032 OA 
HETATM   18 CL   UNL     1      -6.785  14.502  70.613  1.00  0.00     0.071 Cl 
HETATM   19  C   UNL     1      -5.596  12.502  71.983  1.00  0.00     0.645 A  
HETATM   20  C   UNL     1      -6.396  12.847  70.887  1.00  0.00     0.892 A  
ENDBRANCH   5  11
BRANCH   9  21
HETATM   21  C   UNL     1     -10.150   6.649  70.308  1.00  0.00    -0.201 A  
HETATM   22  C   UNL     1     -10.665   5.723  71.225  1.00  0.00    -0.323 A  
HETATM   23  C   UNL     1     -11.300   4.868  73.479  1.00  0.00    -0.303 C  
HETATM   24  C   UNL     1     -10.341   7.994  70.704  1.00  0.00    -0.202 A  
HETATM   25  C   UNL     1     -11.367   7.319  72.857  1.00  0.00    -0.290 A  
HETATM   26  C   UNL     1     -11.018   8.301  71.929  1.00  0.00    -0.354 A  
HETATM   27  C   UNL     1     -11.137   6.008  72.515  1.00  0.00    -0.321 A  
BRANCH  24  28
HETATM   28  N   UNL     1      -9.876   9.139  69.999  1.00  0.00    -0.182 NA 
HETATM   29  N   UNL     1      -8.562   9.410  69.781  1.00  0.00    -0.158 NA 
HETATM   30  C   UNL     1      -9.906  11.134  69.298  1.00  0.00     0.026 A  
HETATM   31  C   UNL     1      -8.602  10.646  69.276  1.00  0.00    -0.085 A  
HETATM   32  N   UNL     1     -10.721  10.211  69.804  1.00  0.00    -0.260 NA 
ENDBRANCH  24  28
ENDBRANCH   9  21
TORSDOF 3
ENDMDL
MODEL      166
REMARK 921   NORMALIZED FREE ENERGY PREDICTED BY IDOCK:    9.50 KCAL/MOL
REMARK 922        TOTAL FREE ENERGY PREDICTED BY IDOCK:    9.54 KCAL/MOL
REMARK 923 INTER-LIGAND FREE ENERGY PREDICTED BY IDOCK:   10.42 KCAL/MOL
REMARK 924 INTRA-LIGAND FREE ENERGY PREDICTED BY IDOCK:   -0.89 KCAL/MOL
REMARK 927      BINDING AFFINITY PREDICTED BY RF-SCORE:    0.00 PKD
ROOT
HETATM    1  C   UNL     1      -8.309  14.621  70.828  1.00  0.00     2.453 C  
HETATM    2  C   UNL     1      -7.872  15.719  71.825  1.00  0.00     6.205 C  
HETATM    3  C   UNL     1      -7.191  13.551  70.641  1.00  0.00     2.024 C  
HETATM    4  C   UNL     1      -6.067  13.807  69.622  1.00  0.00    -0.118 C  
HETATM    5  N   UNL     1      -6.546  13.963  68.260  1.00  0.00    -0.097 NA 
HETATM    6  C   UNL     1      -6.950  15.290  67.818  1.00  0.00    -0.165 C  
HETATM    7  O   UNL     1     -10.972  14.486  69.958  1.00  0.00    -0.179 OA 
HETATM    8  C   UNL     1      -7.818  16.019  68.856  1.00  0.00    -0.202 C  
HETATM    9  C   UNL     1     -10.150  14.873  69.110  1.00  0.00    -0.226 C  
HETATM   10  N   UNL     1      -8.814  15.181  69.539  1.00  0.00    -0.177 N  
ENDROOT
BRANCH   5  11
HETATM   11  C   UNL     1      -6.682  12.946  67.376  1.00  0.00    -0.124 A  
HETATM   12  N   UNL     1      -5.820  11.971  67.150  1.00  0.00    -0.145 NA 
HETATM   13  C   UNL     1      -7.613  11.782  65.814  1.00  0.00     0.880 A  
HETATM   14  C   UNL     1      -8.445  11.279  64.822  1.00  0.00     0.380 A  
HETATM   15  C   UNL     1      -5.879  10.157  65.414  1.00  0.00    -0.098 A  
HETATM   16  C   UNL     1      -6.373  11.253  66.132  1.00  0.00     0.009 A  
HETATM   17  O   UNL     1      -7.823  12.869  66.617  1.00  0.00     0.155 OA 
HETATM   18 CL   UNL     1      -6.075   8.355  63.417  1.00  0.00    -0.076 Cl 
HETATM   19  C   UNL     1      -7.930  10.199  64.090  1.00  0.00    -0.154 A  
HETATM   20  C   UNL     1      -6.672   9.653  64.378  1.00  0.00    -0.111 A  
ENDBRANCH   5  11
BRANCH   9  21
HETATM   21  C   UNL     1     -10.661  15.030  67.661  1.00  0.00    -0.267 A  
HETATM   22  C   UNL     1     -10.670  16.289  67.046  1.00  0.00    -0.233 A  
HETATM   23  C   UNL     1     -10.583  17.885  65.133  1.00  0.00     0.531 C  
HETATM   24  C   UNL     1     -11.221  14.010  66.856  1.00  0.00    -0.313 A  
HETATM   25  C   UNL     1     -11.573  15.564  64.958  1.00  0.00    -0.133 A  
HETATM   26  C   UNL     1     -11.739  14.314  65.556  1.00  0.00    -0.353 A  
HETATM   27  C   UNL     1     -10.980  16.554  65.704  1.00  0.00    -0.053 A  
BRANCH  24  28
HETATM   28  N   UNL     1     -11.295  12.632  67.200  1.00  0.00    -0.300 NA 
HETATM   29  N   UNL     1     -10.246  11.916  67.687  1.00  0.00    -0.198 NA 
HETATM   30  C   UNL     1     -11.978  10.634  67.081  1.00  0.00     1.669 A  
HETATM   31  C   UNL     1     -10.716  10.666  67.669  1.00  0.00    -0.267 A  
HETATM   32  N   UNL     1     -12.339  11.866  66.727  1.00  0.00     0.106 NA 
ENDBRANCH  24  28
ENDBRANCH   9  21
TORSDOF 3
ENDMDL
MODEL      167
REMARK 921   NORMALIZED FREE ENERGY PREDICTED BY IDOCK:    9.91 KCAL/MOL
REMARK 922        TOTAL FREE ENERGY PREDICTED BY IDOCK:   10.02 KCAL/MOL
REMARK 923 INTER-LIGAND FREE ENERGY PREDICTED BY IDOCK:    7.28 KCAL/MOL
REMARK 924 INTRA-LIGAND FREE ENERGY PREDICTED BY IDOCK:    2.74 KCAL/MOL
REMARK 927      BINDING AFFINITY PREDICTED BY RF-SCORE:    0.00 PKD
ROOT
HETATM    1  C   UNL     1      -7.221   9.078  64.619  1.00  0.00    -0.097 C  
HETATM    2  C   UNL     1      -7.497   7.669  64.045  1.00  0.00    -0.107 C  
HETATM    3  C   UNL     1      -6.248   9.010  65.837  1.00  0.00    -0.056 C  
HETATM    4  C   UNL     1      -6.815   8.723  67.238  1.00  0.00    -0.067 C  
HETATM    5  N   UNL     1      -7.772   9.718  67.690  1.00  0.00    -0.094 NA 
HETATM    6  C   UNL     1      -9.171   9.544  67.328  1.00  0.00    -0.134 C  
HETATM    7  O   UNL     1      -8.058  11.361  63.221  1.00  0.00     0.410 OA 
HETATM    8  C   UNL     1      -9.355   9.148  65.854  1.00  0.00    -0.243 C  
HETATM    9  C   UNL     1      -8.691  11.105  64.259  1.00  0.00     0.189 C  
HETATM   10  N   UNL     1      -8.473   9.841  64.904  1.00  0.00    -0.145 N  
ENDROOT
BRANCH   5  11
HETATM   11  C   UNL     1      -7.446  10.826  68.396  1.00  0.00    -0.095 A  
HETATM   12  N   UNL     1      -6.270  11.112  68.924  1.00  0.00    -0.045 NA 
HETATM   13  C   UNL     1      -7.767  12.721  69.381  1.00  0.00     0.642 A  
HETATM   14  C   UNL     1      -8.294  13.890  69.913  1.00  0.00     1.511 A  
HETATM   15  C   UNL     1      -5.608  13.030  70.406  1.00  0.00    -0.159 A  
HETATM   16  C   UNL     1      -6.469  12.286  69.590  1.00  0.00    -0.073 A  
HETATM   17  O   UNL     1      -8.401  11.790  68.605  1.00  0.00    -0.145 OA 
HETATM   18 CL   UNL     1      -5.125  15.098  72.068  1.00  0.00    -0.150 Cl 
HETATM   19  C   UNL     1      -7.433  14.614  70.752  1.00  0.00     1.320 A  
HETATM   20  C   UNL     1      -6.121  14.190  70.996  1.00  0.00    -0.123 A  
ENDBRANCH   5  11
BRANCH   9  21
HETATM   21  C   UNL     1      -9.703  12.168  64.741  1.00  0.00    -0.074 A  
HETATM   22  C   UNL     1     -11.051  12.083  64.372  1.00  0.00    -0.399 A  
HETATM   23  C   UNL     1     -13.506  12.434  64.631  1.00  0.00     1.057 C  
HETATM   24  C   UNL     1      -9.402  13.327  65.496  1.00  0.00     0.338 A  
HETATM   25  C   UNL     1     -11.774  14.046  65.525  1.00  0.00    -0.353 A  
HETATM   26  C   UNL     1     -10.426  14.281  65.801  1.00  0.00    -0.326 A  
HETATM   27  C   UNL     1     -12.093  12.897  64.841  1.00  0.00    -0.479 A  
BRANCH  24  28
HETATM   28  N   UNL     1      -8.131  13.648  66.049  1.00  0.00     1.630 NA 
HETATM   29  N   UNL     1      -7.041  12.839  65.958  1.00  0.00     2.008 NA 
HETATM   30  C   UNL     1      -6.769  14.521  67.411  1.00  0.00     0.009 A  
HETATM   31  C   UNL     1      -6.168  13.440  66.770  1.00  0.00     1.681 A  
HETATM   32  N   UNL     1      -8.032  14.635  67.006  1.00  0.00    -0.148 NA 
ENDBRANCH  24  28
ENDBRANCH   9  21
TORSDOF 3
ENDMDL
MODEL      168
REMARK 921   NORMALIZED FREE ENERGY PREDICTED BY IDOCK:   11.57 KCAL/MOL
REMARK 922        TOTAL FREE ENERGY PREDICTED BY IDOCK:   11.98 KCAL/MOL
REMARK 923 INTER-LIGAND FREE ENERGY PREDICTED BY IDOCK:   13.19 KCAL/MOL
REMARK 924 INTRA-LIGAND FREE ENERGY PREDICTED BY IDOCK:   -1.22 KCAL/MOL
REMARK 927      BINDING AFFINITY PREDICTED BY RF-SCORE:    0.00 PKD
ROOT
HETATM    1  C   UNL     1     -10.249  15.698  65.165  1.00  0.00    -0.262 C  
HETATM    2  C   UNL     1     -10.534  17.199  64.928  1.00  0.00     0.564 C  
HETATM    3  C   UNL     1     -11.566  14.863  65.135  1.00  0.00    -0.330 C  
HETATM    4  C   UNL     1     -12.411  14.743  66.415  1.00  0.00     0.231 C  
HETATM    5  N   UNL     1     -11.703  14.122  67.520  1.00  0.00    -0.366 NA 
HETATM    6  C   UNL     1     -10.902  14.971  68.390  1.00  0.00    -0.256 C  
HETATM    7  O   UNL     1      -7.613  14.741  65.145  1.00  0.00     6.329 OA 
HETATM    8  C   UNL     1     -10.045  15.979  67.607  1.00  0.00    -0.245 C  
HETATM    9  C   UNL     1      -8.163  14.772  66.258  1.00  0.00     0.742 C  
HETATM   10  N   UNL     1      -9.421  15.454  66.385  1.00  0.00    -0.273 N  
ENDROOT
BRANCH   5  11
HETATM   11  C   UNL     1     -11.702  12.792  67.777  1.00  0.00    -0.359 A  
HETATM   12  N   UNL     1     -11.503  11.818  66.908  1.00  0.00    -0.477 NA 
HETATM   13  C   UNL     1     -11.902  10.996  68.958  1.00  0.00    -0.329 A  
HETATM   14  C   UNL     1     -12.110  10.062  69.964  1.00  0.00    -0.090 A  
HETATM   15  C   UNL     1     -11.668   9.332  67.232  1.00  0.00     2.697 A  
HETATM   16  C   UNL     1     -11.673  10.674  67.632  1.00  0.00     0.344 A  
HETATM   17  O   UNL     1     -11.914  12.360  69.062  1.00  0.00    -0.296 OA 
HETATM   18 CL   UNL     1     -11.999   6.708  67.756  1.00  0.00     1.416 Cl 
HETATM   19  C   UNL     1     -12.131   8.722  69.550  1.00  0.00     1.392 A  
HETATM   20  C   UNL     1     -11.919   8.366  68.212  1.00  0.00     3.164 A  
ENDBRANCH   5  11
BRANCH   9  21
HETATM   21  C   UNL     1      -7.411  14.105  67.430  1.00  0.00    -0.143 A  
HETATM   22  C   UNL     1      -6.901  14.880  68.479  1.00  0.00    -0.106 A  
HETATM   23  C   UNL     1      -6.172  15.343  70.818  1.00  0.00     0.249 C  
HETATM   24  C   UNL     1      -7.091  12.730  67.543  1.00  0.00    -0.148 A  
HETATM   25  C   UNL     1      -5.966  13.070  69.726  1.00  0.00    -0.130 A  
HETATM   26  C   UNL     1      -6.307  12.256  68.645  1.00  0.00    -0.071 A  
HETATM   27  C   UNL     1      -6.318  14.397  69.660  1.00  0.00    -0.140 A  
BRANCH  24  28
HETATM   28  N   UNL     1      -7.519  11.705  66.655  1.00  0.00    -0.088 NA 
HETATM   29  N   UNL     1      -8.439  10.759  66.980  1.00  0.00    -0.126 NA 
HETATM   30  C   UNL     1      -7.351  10.308  65.076  1.00  0.00    -0.117 A  
HETATM   31  C   UNL     1      -8.370   9.921  65.942  1.00  0.00    -0.123 A  
HETATM   32  N   UNL     1      -6.764  11.409  65.540  1.00  0.00     0.540 NA 
ENDBRANCH  24  28
ENDBRANCH   9  21
TORSDOF 3
ENDMDL
MODEL      169
REMARK 921   NORMALIZED FREE ENERGY PREDICTED BY IDOCK:   11.81 KCAL/MOL
REMARK 922        TOTAL FREE ENERGY PREDICTED BY IDOCK:   12.26 KCAL/MOL
REMARK 923 INTER-LIGAND FREE ENERGY PREDICTED BY IDOCK:   11.97 KCAL/MOL
REMARK 924 INTRA-LIGAND FREE ENERGY PREDICTED BY IDOCK:    0.29 KCAL/MOL
REMARK 927      BINDING AFFINITY PREDICTED BY RF-SCORE:    0.00 PKD
ROOT
HETATM    1  C   UNL     1      -6.376  14.930  72.276  1.00  0.00     1.176 C  
HETATM    2  C   UNL     1      -5.244  15.984  72.254  1.00  0.00     0.640 C  
HETATM    3  C   UNL     1      -5.964  13.678  73.109  1.00  0.00     0.747 C  
HETATM    4  C   UNL     1      -5.151  12.559  72.436  1.00  0.00     0.181 C  
HETATM    5  N   UNL     1      -5.834  11.944  71.311  1.00  0.00    -0.290 NA 
HETATM    6  C   UNL     1      -5.680  12.548  69.996  1.00  0.00    -0.140 C  
HETATM    7  O   UNL     1      -8.925  15.576  71.300  1.00  0.00     2.480 OA 
HETATM    8  C   UNL     1      -5.818  14.079  70.029  1.00  0.00    -0.133 C  
HETATM    9  C   UNL     1      -8.264  14.795  70.597  1.00  0.00     1.846 C  
HETATM   10  N   UNL     1      -6.877  14.593  70.909  1.00  0.00     0.388 N  
ENDROOT
BRANCH   5  11
HETATM   11  C   UNL     1      -6.643  10.862  71.407  1.00  0.00     1.749 A  
HETATM   12  N   UNL     1      -6.270   9.605  71.565  1.00  0.00    -0.279 NA 
HETATM   13  C   UNL     1      -8.504   9.767  71.420  1.00  0.00     1.327 A  
HETATM   14  C   UNL     1      -9.832   9.369  71.365  1.00  0.00    -0.180 A  
HETATM   15  C   UNL     1      -7.661   7.514  71.562  1.00  0.00    -0.085 A  
HETATM   16  C   UNL     1      -7.433   8.895  71.529  1.00  0.00    -0.050 A  
HETATM   17  O   UNL     1      -8.003  11.038  71.349  1.00  0.00     4.208 OA 
HETATM   18 CL   UNL     1      -9.311   5.385  71.421  1.00  0.00    -0.171 Cl 
HETATM   19  C   UNL     1     -10.049   7.982  71.370  1.00  0.00    -0.228 A  
HETATM   20  C   UNL     1      -8.986   7.076  71.462  1.00  0.00    -0.139 A  
ENDBRANCH   5  11
BRANCH   9  21
HETATM   21  C   UNL     1      -8.995  14.136  69.406  1.00  0.00     0.508 A  
HETATM   22  C   UNL     1      -9.080  12.741  69.310  1.00  0.00     0.957 A  
HETATM   23  C   UNL     1     -10.093  10.567  68.631  1.00  0.00    -0.190 C  
HETATM   24  C   UNL     1      -9.562  14.809  68.297  1.00  0.00    -0.215 A  
HETATM   25  C   UNL     1     -10.314  12.684  67.266  1.00  0.00    -0.230 A  
HETATM   26  C   UNL     1     -10.135  14.067  67.213  1.00  0.00    -0.249 A  
HETATM   27  C   UNL     1      -9.820  12.018  68.362  1.00  0.00    -0.204 A  
BRANCH  24  28
HETATM   28  N   UNL     1      -9.665  16.220  68.150  1.00  0.00    -0.225 NA 
HETATM   29  N   UNL     1      -8.896  17.110  68.832  1.00  0.00    -0.232 NA 
HETATM   30  C   UNL     1     -10.620  18.070  67.774  1.00  0.00    -0.394 A  
HETATM   31  C   UNL     1      -9.469  18.278  68.531  1.00  0.00    -0.331 A  
HETATM   32  N   UNL     1     -10.790  16.765  67.568  1.00  0.00    -0.270 NA 
ENDBRANCH  24  28
ENDBRANCH   9  21
TORSDOF 3
ENDMDL
MODEL      170
REMARK 921   NORMALIZED FREE ENERGY PREDICTED BY IDOCK:   13.13 KCAL/MOL
REMARK 922        TOTAL FREE ENERGY PREDICTED BY IDOCK:   13.81 KCAL/MOL
REMARK 923 INTER-LIGAND FREE ENERGY PREDICTED BY IDOCK:   12.65 KCAL/MOL
REMARK 924 INTRA-LIGAND FREE ENERGY PREDICTED BY IDOCK:    1.16 KCAL/MOL
REMARK 927      BINDING AFFINITY PREDICTED BY RF-SCORE:    0.00 PKD
ROOT
HETATM    1  C   UNL     1      -7.005   4.284  69.166  1.00  0.00    -0.050 C  
HETATM    2  C   UNL     1      -7.067   3.013  70.046  1.00  0.00    -0.040 C  
HETATM    3  C   UNL     1      -6.000   5.325  69.748  1.00  0.00    -0.017 C  
HETATM    4  C   UNL     1      -6.472   6.297  70.842  1.00  0.00    -0.048 C  
HETATM    5  N   UNL     1      -7.564   7.157  70.420  1.00  0.00    -0.088 NA 
HETATM    6  C   UNL     1      -8.927   6.668  70.573  1.00  0.00    -0.152 C  
HETATM    7  O   UNL     1      -8.240   4.317  66.648  1.00  0.00    -0.101 OA 
HETATM    8  C   UNL     1      -9.086   5.210  70.112  1.00  0.00    -0.128 C  
HETATM    9  C   UNL     1      -8.794   5.000  67.526  1.00  0.00    -0.102 C  
HETATM   10  N   UNL     1      -8.356   4.858  68.886  1.00  0.00    -0.083 N  
ENDROOT
BRANCH   5  11
HETATM   11  C   UNL     1      -7.401   8.376  69.852  1.00  0.00    -0.060 A  
HETATM   12  N   UNL     1      -6.259   8.952  69.525  1.00  0.00    -0.042 NA 
HETATM   13  C   UNL     1      -7.996  10.293  69.056  1.00  0.00    -0.125 A  
HETATM   14  C   UNL     1      -8.688  11.421  68.636  1.00  0.00    -0.121 A  
HETATM   15  C   UNL     1      -5.830  11.267  68.652  1.00  0.00    -0.042 A  
HETATM   16  C   UNL     1      -6.616  10.184  69.063  1.00  0.00    -0.053 A  
HETATM   17  O   UNL     1      -8.510   9.128  69.556  1.00  0.00    -0.117 OA 
HETATM   18 CL   UNL     1      -5.571  13.821  67.824  1.00  0.00    -0.099 Cl 
HETATM   19  C   UNL     1      -7.893  12.511  68.252  1.00  0.00    -0.144 A  
HETATM   20  C   UNL     1      -6.494  12.436  68.265  1.00  0.00    -0.061 A  
ENDBRANCH   5  11
BRANCH   9  21
HETATM   21  C   UNL     1      -9.949   5.919  67.072  1.00  0.00    -0.195 A  
HETATM   22  C   UNL     1     -10.313   7.033  67.841  1.00  0.00    -0.247 A  
HETATM   23  C   UNL     1     -11.237   9.313  68.244  1.00  0.00     0.202 C  
HETATM   24  C   UNL     1     -10.782   5.721  65.945  1.00  0.00     0.439 A  
HETATM   25  C   UNL     1     -12.081   7.778  66.419  1.00  0.00     6.939 A  
HETATM   26  C   UNL     1     -11.879   6.606  65.689  1.00  0.00     5.599 A  
HETATM   27  C   UNL     1     -11.246   8.018  67.484  1.00  0.00     0.554 A  
BRANCH  24  28
HETATM   28  N   UNL     1     -10.618   4.705  64.963  1.00  0.00    -0.033 NA 
HETATM   29  N   UNL     1     -10.196   3.444  65.243  1.00  0.00     0.152 NA 
HETATM   30  C   UNL     1     -10.204   3.900  63.051  1.00  0.00    -0.174 A  
HETATM   31  C   UNL     1     -10.004   2.926  64.027  1.00  0.00    -0.154 A  
HETATM   32  N   UNL     1     -10.542   5.050  63.630  1.00  0.00     1.245 NA 
ENDBRANCH  24  28
ENDBRANCH   9  21
TORSDOF 3
ENDMDL
MODEL      171
REMARK 921   NORMALIZED FREE ENERGY PREDICTED BY IDOCK:   14.46 KCAL/MOL
REMARK 922        TOTAL FREE ENERGY PREDICTED BY IDOCK:   15.37 KCAL/MOL
REMARK 923 INTER-LIGAND FREE ENERGY PREDICTED BY IDOCK:   13.63 KCAL/MOL
REMARK 924 INTRA-LIGAND FREE ENERGY PREDICTED BY IDOCK:    1.74 KCAL/MOL
REMARK 927      BINDING AFFINITY PREDICTED BY RF-SCORE:    0.00 PKD
ROOT
HETATM    1  C   UNL     1     -10.919  17.971  69.516  1.00  0.00     1.356 C  
HETATM    2  C   UNL     1     -11.128  19.014  70.639  1.00  0.00     3.944 C  
HETATM    3  C   UNL     1     -11.063  16.517  70.063  1.00  0.00    -0.217 C  
HETATM    4  C   UNL     1      -9.846  15.833  70.709  1.00  0.00     1.164 C  
HETATM    5  N   UNL     1      -8.717  15.690  69.808  1.00  0.00    -0.100 NA 
HETATM    6  C   UNL     1      -7.769  16.791  69.709  1.00  0.00     0.713 C  
HETATM    7  O   UNL     1     -10.795  18.788  66.837  1.00  0.00    -0.379 OA 
HETATM    8  C   UNL     1      -8.462  18.159  69.606  1.00  0.00     0.965 C  
HETATM    9  C   UNL     1      -9.720  18.411  67.332  1.00  0.00    -0.299 C  
HETATM   10  N   UNL     1      -9.656  18.193  68.751  1.00  0.00    -0.313 N  
ENDROOT
BRANCH   5  11
HETATM   11  C   UNL     1      -8.502  14.613  69.016  1.00  0.00    -0.095 A  
HETATM   12  N   UNL     1      -9.240  13.520  68.946  1.00  0.00     0.105 NA 
HETATM   13  C   UNL     1      -7.472  13.381  67.572  1.00  0.00    -0.162 A  
HETATM   14  C   UNL     1      -6.584  12.843  66.651  1.00  0.00     1.299 A  
HETATM   15  C   UNL     1      -8.835  11.397  67.666  1.00  0.00    -0.139 A  
HETATM   16  C   UNL     1      -8.577  12.712  68.071  1.00  0.00    -0.189 A  
HETATM   17  O   UNL     1      -7.421  14.611  68.170  1.00  0.00    -0.106 OA 
HETATM   18 CL   UNL     1      -8.167   9.167  66.305  1.00  0.00    -0.110 Cl 
HETATM   19  C   UNL     1      -6.835  11.515  66.272  1.00  0.00     0.147 A  
HETATM   20  C   UNL     1      -7.935  10.808  66.773  1.00  0.00    -0.138 A  
ENDBRANCH   5  11
BRANCH   9  21
HETATM   21  C   UNL     1      -8.522  18.253  66.370  1.00  0.00    -0.266 A  
HETATM   22  C   UNL     1      -7.516  19.227  66.324  1.00  0.00    -0.284 A  
HETATM   23  C   UNL     1      -5.208  20.096  65.956  1.00  0.00    -0.179 C  
HETATM   24  C   UNL     1      -8.344  17.219  65.420  1.00  0.00     1.484 A  
HETATM   25  C   UNL     1      -6.189  18.168  64.645  1.00  0.00     0.737 A  
HETATM   26  C   UNL     1      -7.226  17.242  64.524  1.00  0.00     6.211 A  
HETATM   27  C   UNL     1      -6.317  19.147  65.600  1.00  0.00    -0.273 A  
BRANCH  24  28
HETATM   28  N   UNL     1      -9.177  16.076  65.275  1.00  0.00    -0.014 NA 
HETATM   29  N   UNL     1     -10.356  16.081  64.598  1.00  0.00    -0.266 NA 
HETATM   30  C   UNL     1     -10.051  14.227  65.816  1.00  0.00    -0.335 A  
HETATM   31  C   UNL     1     -10.865  14.882  64.894  1.00  0.00    -0.413 A  
HETATM   32  N   UNL     1      -9.003  14.993  66.111  1.00  0.00    -0.214 NA 
ENDBRANCH  24  28
ENDBRANCH   9  21
TORSDOF 3
ENDMDL
MODEL      172
REMARK 921   NORMALIZED FREE ENERGY PREDICTED BY IDOCK:   16.62 KCAL/MOL
REMARK 922        TOTAL FREE ENERGY PREDICTED BY IDOCK:   17.91 KCAL/MOL
REMARK 923 INTER-LIGAND FREE ENERGY PREDICTED BY IDOCK:   17.89 KCAL/MOL
REMARK 924 INTRA-LIGAND FREE ENERGY PREDICTED BY IDOCK:    0.02 KCAL/MOL
REMARK 927      BINDING AFFINITY PREDICTED BY RF-SCORE:    0.00 PKD
ROOT
HETATM    1  C   UNL     1      -6.590   7.326  66.562  1.00  0.00    -0.056 C  
HETATM    2  C   UNL     1      -5.303   6.478  66.689  1.00  0.00    -0.013 C  
HETATM    3  C   UNL     1      -6.270   8.851  66.632  1.00  0.00    -0.061 C  
HETATM    4  C   UNL     1      -6.145   9.532  68.006  1.00  0.00    -0.052 C  
HETATM    5  N   UNL     1      -7.357   9.457  68.801  1.00  0.00    -0.074 NA 
HETATM    6  C   UNL     1      -7.559   8.286  69.644  1.00  0.00    -0.094 C  
HETATM    7  O   UNL     1      -9.010   6.116  65.825  1.00  0.00    -0.151 OA 
HETATM    8  C   UNL     1      -7.222   6.973  68.920  1.00  0.00    -0.091 C  
HETATM    9  C   UNL     1      -8.933   6.481  67.010  1.00  0.00    -0.120 C  
HETATM   10  N   UNL     1      -7.656   6.901  67.518  1.00  0.00    -0.107 N  
ENDROOT
BRANCH   5  11
HETATM   11  C   UNL     1      -8.342  10.386  68.785  1.00  0.00    -0.134 A  
HETATM   12  N   UNL     1      -8.196  11.692  68.653  1.00  0.00    -0.140 NA 
HETATM   13  C   UNL     1     -10.359  11.148  68.903  1.00  0.00    -0.201 A  
HETATM   14  C   UNL     1     -11.731  11.311  69.039  1.00  0.00    -0.410 A  
HETATM   15  C   UNL     1      -9.919  13.514  68.800  1.00  0.00    -0.078 A  
HETATM   16  C   UNL     1      -9.459  12.192  68.772  1.00  0.00     0.059 A  
HETATM   17  O   UNL     1      -9.647   9.980  68.904  1.00  0.00    -0.165 OA 
HETATM   18 CL   UNL     1     -11.895  15.325  69.099  1.00  0.00    -0.347 Cl 
HETATM   19  C   UNL     1     -12.179  12.640  69.094  1.00  0.00    -0.056 A  
HETATM   20  C   UNL     1     -11.291  13.717  68.981  1.00  0.00    -0.287 A  
ENDBRANCH   5  11
BRANCH   9  21
HETATM   21  C   UNL     1     -10.226   6.407  67.851  1.00  0.00    -0.200 A  
HETATM   22  C   UNL     1     -10.310   7.071  69.081  1.00  0.00    -0.209 A  
HETATM   23  C   UNL     1     -11.460   8.239  70.960  1.00  0.00    -0.303 C  
HETATM   24  C   UNL     1     -11.379   5.646  67.545  1.00  0.00     0.965 A  
HETATM   25  C   UNL     1     -12.546   6.406  69.596  1.00  0.00     2.350 A  
HETATM   26  C   UNL     1     -12.479   5.596  68.462  1.00  0.00     7.448 A  
HETATM   27  C   UNL     1     -11.458   7.197  69.879  1.00  0.00    -0.154 A  
BRANCH  24  28
HETATM   28  N   UNL     1     -11.594   4.914  66.345  1.00  0.00     1.833 NA 
HETATM   29  N   UNL     1     -11.017   3.712  66.079  1.00  0.00     1.876 NA 
HETATM   30  C   UNL     1     -11.998   4.630  64.288  1.00  0.00     2.702 A  
HETATM   31  C   UNL     1     -11.338   3.514  64.797  1.00  0.00     1.354 A  
HETATM   32  N   UNL     1     -12.121   5.551  65.242  1.00  0.00     2.809 NA 
ENDBRANCH  24  28
ENDBRANCH   9  21
TORSDOF 3
ENDMDL
MODEL      173
REMARK 921   NORMALIZED FREE ENERGY PREDICTED BY IDOCK:   18.40 KCAL/MOL
REMARK 922        TOTAL FREE ENERGY PREDICTED BY IDOCK:   20.00 KCAL/MOL
REMARK 923 INTER-LIGAND FREE ENERGY PREDICTED BY IDOCK:   21.05 KCAL/MOL
REMARK 924 INTRA-LIGAND FREE ENERGY PREDICTED BY IDOCK:   -1.06 KCAL/MOL
REMARK 927      BINDING AFFINITY PREDICTED BY RF-SCORE:    0.00 PKD
ROOT
HETATM    1  C   UNL     1     -11.625   9.742  66.209  1.00  0.00     2.718 C  
HETATM    2  C   UNL     1     -13.079  10.191  65.932  1.00  0.00    13.437 C  
HETATM    3  C   UNL     1     -11.553   8.209  66.490  1.00  0.00     3.737 C  
HETATM    4  C   UNL     1     -11.817   7.691  67.914  1.00  0.00     2.299 C  
HETATM    5  N   UNL     1     -10.884   8.208  68.900  1.00  0.00    -0.047 NA 
HETATM    6  C   UNL     1     -11.191   9.479  69.541  1.00  0.00    -0.074 C  
HETATM    7  O   UNL     1      -9.492  11.501  65.743  1.00  0.00    -0.227 OA 
HETATM    8  C   UNL     1     -11.673  10.543  68.541  1.00  0.00    -0.049 C  
HETATM    9  C   UNL     1      -9.748  11.274  66.937  1.00  0.00    -0.192 C  
HETATM   10  N   UNL     1     -10.957  10.568  67.259  1.00  0.00    -0.285 N  
ENDROOT
BRANCH   5  11
HETATM   11  C   UNL     1      -9.719   7.607  69.239  1.00  0.00    -0.164 A  
HETATM   12  N   UNL     1      -9.505   6.310  69.369  1.00  0.00    -0.139 NA 
HETATM   13  C   UNL     1      -7.648   7.480  69.836  1.00  0.00    -0.093 A  
HETATM   14  C   UNL     1      -6.339   7.738  70.219  1.00  0.00    -0.037 A  
HETATM   15  C   UNL     1      -7.455   5.103  70.175  1.00  0.00    -0.063 A  
HETATM   16  C   UNL     1      -8.212   6.217  69.792  1.00  0.00    -0.123 A  
HETATM   17  O   UNL     1      -8.611   8.381  69.473  1.00  0.00    -0.126 OA 
HETATM   18 CL   UNL     1      -5.201   4.002  71.165  1.00  0.00     0.000 Cl 
HETATM   19  C   UNL     1      -5.597   6.619  70.628  1.00  0.00    -0.023 A  
HETATM   20  C   UNL     1      -6.146   5.331  70.610  1.00  0.00    -0.022 A  
ENDBRANCH   5  11
BRANCH   9  21
HETATM   21  C   UNL     1      -8.750  11.818  67.982  1.00  0.00    -0.167 A  
HETATM   22  C   UNL     1      -7.545  11.147  68.229  1.00  0.00    -0.111 A  
HETATM   23  C   UNL     1      -5.154  10.944  68.904  1.00  0.00    -0.041 C  
HETATM   24  C   UNL     1      -8.949  12.940  68.823  1.00  0.00     0.182 A  
HETATM   25  C   UNL     1      -6.732  12.653  69.895  1.00  0.00     0.243 A  
HETATM   26  C   UNL     1      -7.975  13.284  69.816  1.00  0.00     1.515 A  
HETATM   27  C   UNL     1      -6.498  11.597  69.048  1.00  0.00    -0.082 A  
BRANCH  24  28
HETATM   28  N   UNL     1     -10.053  13.834  68.762  1.00  0.00    -0.184 NA 
HETATM   29  N   UNL     1     -10.617  14.414  69.855  1.00  0.00     0.064 NA 
HETATM   30  C   UNL     1     -11.842  14.663  67.997  1.00  0.00    -0.311 A  
HETATM   31  C   UNL     1     -11.709  14.990  69.345  1.00  0.00    -0.326 A  
HETATM   32  N   UNL     1     -10.828  13.885  67.624  1.00  0.00    -0.252 NA 
ENDBRANCH  24  28
ENDBRANCH   9  21
TORSDOF 3
ENDMDL
MODEL      174
REMARK 921   NORMALIZED FREE ENERGY PREDICTED BY IDOCK:   18.57 KCAL/MOL
REMARK 922        TOTAL FREE ENERGY PREDICTED BY IDOCK:   20.20 KCAL/MOL
REMARK 923 INTER-LIGAND FREE ENERGY PREDICTED BY IDOCK:   21.63 KCAL/MOL
REMARK 924 INTRA-LIGAND FREE ENERGY PREDICTED BY IDOCK:   -1.43 KCAL/MOL
REMARK 927      BINDING AFFINITY PREDICTED BY RF-SCORE:    0.00 PKD
ROOT
HETATM    1  C   UNL     1     -11.872   8.451  67.157  1.00  0.00     4.044 C  
HETATM    2  C   UNL     1     -13.347   8.543  66.703  1.00  0.00    20.359 C  
HETATM    3  C   UNL     1     -11.719   7.512  68.393  1.00  0.00     1.421 C  
HETATM    4  C   UNL     1     -11.954   8.080  69.804  1.00  0.00     0.875 C  
HETATM    5  N   UNL     1     -11.047   9.160  70.150  1.00  0.00    -0.240 NA 
HETATM    6  C   UNL     1     -11.418  10.518  69.780  1.00  0.00    -0.294 C  
HETATM    7  O   UNL     1      -9.833   9.513  65.552  1.00  0.00    -0.306 OA 
HETATM    8  C   UNL     1     -11.956  10.612  68.343  1.00  0.00     0.187 C  
HETATM    9  C   UNL     1     -10.074  10.141  66.596  1.00  0.00    -0.223 C  
HETATM   10  N   UNL     1     -11.244   9.793  67.353  1.00  0.00     0.017 N  
ENDROOT
BRANCH   5  11
HETATM   11  C   UNL     1      -9.852   8.988  70.764  1.00  0.00    -0.243 A  
HETATM   12  N   UNL     1      -9.630   8.360  71.904  1.00  0.00    -0.227 NA 
HETATM   13  C   UNL     1      -7.724   9.195  71.064  1.00  0.00    -0.100 A  
HETATM   14  C   UNL     1      -6.376   9.517  70.975  1.00  0.00    -0.077 A  
HETATM   15  C   UNL     1      -7.502   8.147  73.222  1.00  0.00    -0.189 A  
HETATM   16  C   UNL     1      -8.295   8.522  72.130  1.00  0.00    -0.132 A  
HETATM   17  O   UNL     1      -8.720   9.492  70.174  1.00  0.00    -0.196 OA 
HETATM   18 CL   UNL     1      -5.148   8.124  74.537  1.00  0.00    -0.068 Cl 
HETATM   19  C   UNL     1      -5.595   9.162  72.085  1.00  0.00    -0.072 A  
HETATM   20  C   UNL     1      -6.148   8.496  73.186  1.00  0.00    -0.095 A  
ENDBRANCH   5  11
BRANCH   9  21
HETATM   21  C   UNL     1      -9.104  11.284  66.966  1.00  0.00    -0.167 A  
HETATM   22  C   UNL     1      -7.898  11.006  67.624  1.00  0.00    -0.114 A  
HETATM   23  C   UNL     1      -5.520  11.386  68.268  1.00  0.00    -0.042 C  
HETATM   24  C   UNL     1      -9.330  12.668  66.774  1.00  0.00    -0.232 A  
HETATM   25  C   UNL     1      -7.134  13.265  67.758  1.00  0.00    -0.149 A  
HETATM   26  C   UNL     1      -8.380  13.631  67.247  1.00  0.00    -0.182 A  
HETATM   27  C   UNL     1      -6.872  11.923  67.899  1.00  0.00    -0.083 A  
BRANCH  24  28
HETATM   28  N   UNL     1     -10.440  13.238  66.092  1.00  0.00    -0.288 NA 
HETATM   29  N   UNL     1     -10.390  13.688  64.810  1.00  0.00    -0.408 NA 
HETATM   30  C   UNL     1     -12.253  14.309  65.886  1.00  0.00    -0.407 A  
HETATM   31  C   UNL     1     -11.568  14.302  64.673  1.00  0.00    -0.408 A  
HETATM   32  N   UNL     1     -11.527  13.685  66.812  1.00  0.00    -0.331 NA 
ENDBRANCH  24  28
ENDBRANCH   9  21
TORSDOF 3
ENDMDL
MODEL      175
REMARK 921   NORMALIZED FREE ENERGY PREDICTED BY IDOCK:   20.03 KCAL/MOL
REMARK 922        TOTAL FREE ENERGY PREDICTED BY IDOCK:   21.92 KCAL/MOL
REMARK 923 INTER-LIGAND FREE ENERGY PREDICTED BY IDOCK:   21.99 KCAL/MOL
REMARK 924 INTRA-LIGAND FREE ENERGY PREDICTED BY IDOCK:   -0.07 KCAL/MOL
REMARK 927      BINDING AFFINITY PREDICTED BY RF-SCORE:    0.00 PKD
ROOT
HETATM    1  C   UNL     1     -13.245   8.063  70.863  1.00  0.00     0.238 C  
HETATM    2  C   UNL     1     -14.375   7.030  71.081  1.00  0.00    -0.016 C  
HETATM    3  C   UNL     1     -13.755   9.296  70.056  1.00  0.00     1.833 C  
HETATM    4  C   UNL     1     -13.778   9.233  68.519  1.00  0.00    11.862 C  
HETATM    5  N   UNL     1     -12.467   9.027  67.929  1.00  0.00     5.449 NA 
HETATM    6  C   UNL     1     -11.993   7.660  67.760  1.00  0.00     3.038 C  
HETATM    7  O   UNL     1     -10.810   7.800  72.230  1.00  0.00    -0.243 OA 
HETATM    8  C   UNL     1     -12.247   6.790  69.002  1.00  0.00     1.821 C  
HETATM    9  C   UNL     1     -10.770   7.559  71.013  1.00  0.00    -0.231 C  
HETATM   10  N   UNL     1     -12.007   7.452  70.291  1.00  0.00    -0.024 N  
ENDROOT
BRANCH   5  11
HETATM   11  C   UNL     1     -11.629  10.024  67.559  1.00  0.00     0.929 A  
HETATM   12  N   UNL     1     -10.689  10.584  68.297  1.00  0.00    -0.212 NA 
HETATM   13  C   UNL     1     -10.789  11.538  66.268  1.00  0.00    -0.282 A  
HETATM   14  C   UNL     1     -10.495  12.408  65.228  1.00  0.00    -0.316 A  
HETATM   15  C   UNL     1      -9.217  12.555  67.785  1.00  0.00    -0.198 A  
HETATM   16  C   UNL     1     -10.179  11.575  67.511  1.00  0.00    -0.184 A  
HETATM   17  O   UNL     1     -11.719  10.535  66.288  1.00  0.00     0.565 OA 
HETATM   18 CL   UNL     1      -7.810  14.747  67.088  1.00  0.00    -0.221 Cl 
HETATM   19  C   UNL     1      -9.550  13.404  65.521  1.00  0.00     0.036 A  
HETATM   20  C   UNL     1      -8.929  13.477  66.774  1.00  0.00    -0.176 A  
ENDBRANCH   5  11
BRANCH   9  21
HETATM   21  C   UNL     1      -9.374   7.347  70.387  1.00  0.00    -0.161 A  
HETATM   22  C   UNL     1      -9.234   7.187  69.003  1.00  0.00    -0.135 A  
HETATM   23  C   UNL     1      -8.063   7.320  66.805  1.00  0.00    -0.119 C  
HETATM   24  C   UNL     1      -8.153   7.216  71.092  1.00  0.00    -0.104 A  
HETATM   25  C   UNL     1      -6.859   6.937  68.996  1.00  0.00    -0.069 A  
HETATM   26  C   UNL     1      -6.937   6.932  70.390  1.00  0.00    -0.063 A  
HETATM   27  C   UNL     1      -8.025   7.119  68.293  1.00  0.00    -0.123 A  
BRANCH  24  28
HETATM   28  N   UNL     1      -7.985   7.381  72.495  1.00  0.00    -0.098 NA 
HETATM   29  N   UNL     1      -7.921   8.592  73.111  1.00  0.00    -0.390 NA 
HETATM   30  C   UNL     1      -7.318   6.896  74.442  1.00  0.00    -0.101 A  
HETATM   31  C   UNL     1      -7.566   8.264  74.356  1.00  0.00    -0.223 A  
HETATM   32  N   UNL     1      -7.527   6.328  73.256  1.00  0.00    -0.091 NA 
ENDBRANCH  24  28
ENDBRANCH   9  21
TORSDOF 3
ENDMDL
MODEL      176
REMARK 921   NORMALIZED FREE ENERGY PREDICTED BY IDOCK:   20.11 KCAL/MOL
REMARK 922        TOTAL FREE ENERGY PREDICTED BY IDOCK:   22.01 KCAL/MOL
REMARK 923 INTER-LIGAND FREE ENERGY PREDICTED BY IDOCK:   23.22 KCAL/MOL
REMARK 924 INTRA-LIGAND FREE ENERGY PREDICTED BY IDOCK:   -1.21 KCAL/MOL
REMARK 927      BINDING AFFINITY PREDICTED BY RF-SCORE:    0.00 PKD
ROOT
HETATM    1  C   UNL     1     -11.872   8.451  67.157  1.00  0.00     4.044 C  
HETATM    2  C   UNL     1     -13.350   8.509  66.706  1.00  0.00    20.102 C  
HETATM    3  C   UNL     1     -11.699   7.534  68.407  1.00  0.00     1.421 C  
HETATM    4  C   UNL     1     -11.941   8.118  69.809  1.00  0.00     0.903 C  
HETATM    5  N   UNL     1     -11.053   9.219  70.137  1.00  0.00    -0.240 NA 
HETATM    6  C   UNL     1     -11.449  10.565  69.748  1.00  0.00    -0.294 C  
HETATM    7  O   UNL     1      -9.856   9.526  65.531  1.00  0.00    -0.306 OA 
HETATM    8  C   UNL     1     -11.992  10.628  68.311  1.00  0.00     0.275 C  
HETATM    9  C   UNL     1     -10.106  10.165  66.566  1.00  0.00    -0.234 C  
HETATM   10  N   UNL     1     -11.268   9.807  67.331  1.00  0.00     0.017 N  
ENDROOT
BRANCH   5  11
HETATM   11  C   UNL     1      -9.853   9.078  70.750  1.00  0.00    -0.243 A  
HETATM   12  N   UNL     1      -9.584   8.325  71.800  1.00  0.00    -0.187 NA 
HETATM   13  C   UNL     1      -7.758   9.441  71.125  1.00  0.00     0.101 A  
HETATM   14  C   UNL     1      -6.447   9.897  71.111  1.00  0.00     0.089 A  
HETATM   15  C   UNL     1      -7.460   8.135  73.127  1.00  0.00    -0.175 A  
HETATM   16  C   UNL     1      -8.273   8.579  72.078  1.00  0.00    -0.130 A  
HETATM   17  O   UNL     1      -8.768   9.761  70.260  1.00  0.00    -0.209 OA 
HETATM   18 CL   UNL     1      -5.128   8.154  74.483  1.00  0.00    -0.068 Cl 
HETATM   19  C   UNL     1      -5.647   9.469  72.182  1.00  0.00    -0.005 A  
HETATM   20  C   UNL     1      -6.145   8.611  73.170  1.00  0.00    -0.081 A  
ENDBRANCH   5  11
BRANCH   9  21
HETATM   21  C   UNL     1      -9.156  11.331  66.916  1.00  0.00    -0.172 A  
HETATM   22  C   UNL     1      -9.672  12.572  67.310  1.00  0.00    -0.202 A  
HETATM   23  C   UNL     1      -9.663  14.765  68.497  1.00  0.00    -0.218 C  
HETATM   24  C   UNL     1      -7.744  11.319  66.812  1.00  0.00    -0.155 A  
HETATM   25  C   UNL     1      -7.566  13.657  67.617  1.00  0.00    -0.186 A  
HETATM   26  C   UNL     1      -6.987  12.504  67.085  1.00  0.00    -0.060 A  
HETATM   27  C   UNL     1      -8.931  13.667  67.779  1.00  0.00    -0.196 A  
BRANCH  24  28
HETATM   28  N   UNL     1      -6.948  10.186  66.485  1.00  0.00    -0.097 NA 
HETATM   29  N   UNL     1      -6.567   9.871  65.219  1.00  0.00    -0.098 NA 
HETATM   30  C   UNL     1      -6.184   8.224  66.687  1.00  0.00    -0.054 A  
HETATM   31  C   UNL     1      -6.026   8.659  65.374  1.00  0.00    -0.048 A  
HETATM   32  N   UNL     1      -6.816   9.159  67.395  1.00  0.00    -0.076 NA 
ENDBRANCH  24  28
ENDBRANCH   9  21
TORSDOF 3
ENDMDL
MODEL      177
REMARK 921   NORMALIZED FREE ENERGY PREDICTED BY IDOCK:   21.26 KCAL/MOL
REMARK 922        TOTAL FREE ENERGY PREDICTED BY IDOCK:   23.36 KCAL/MOL
REMARK 923 INTER-LIGAND FREE ENERGY PREDICTED BY IDOCK:   24.12 KCAL/MOL
REMARK 924 INTRA-LIGAND FREE ENERGY PREDICTED BY IDOCK:   -0.76 KCAL/MOL
REMARK 927      BINDING AFFINITY PREDICTED BY RF-SCORE:    0.00 PKD
ROOT
HETATM    1  C   UNL     1      -7.563  15.970  71.741  1.00  0.00     6.594 C  
HETATM    2  C   UNL     1      -6.444  16.798  72.413  1.00  0.00     4.863 C  
HETATM    3  C   UNL     1      -7.259  14.442  71.819  1.00  0.00     2.975 C  
HETATM    4  C   UNL     1      -6.357  13.798  70.752  1.00  0.00     0.129 C  
HETATM    5  N   UNL     1      -6.883  13.917  69.403  1.00  0.00    -0.098 NA 
HETATM    6  C   UNL     1      -6.561  15.114  68.639  1.00  0.00    -0.090 C  
HETATM    7  O   UNL     1      -9.964  17.200  70.976  1.00  0.00     2.581 OA 
HETATM    8  C   UNL     1      -6.710  16.401  69.467  1.00  0.00    -0.202 C  
HETATM    9  C   UNL     1      -9.213  16.867  70.045  1.00  0.00     1.445 C  
HETATM   10  N   UNL     1      -7.878  16.440  70.358  1.00  0.00     1.863 N  
ENDROOT
BRANCH   5  11
HETATM   11  C   UNL     1      -7.692  13.005  68.814  1.00  0.00     0.004 A  
HETATM   12  N   UNL     1      -7.468  12.359  67.684  1.00  0.00    -0.126 NA 
HETATM   13  C   UNL     1      -9.456  11.787  68.553  1.00  0.00    -0.163 A  
HETATM   14  C   UNL     1     -10.693  11.168  68.665  1.00  0.00    -0.234 A  
HETATM   15  C   UNL     1      -8.970  10.802  66.409  1.00  0.00    -0.179 A  
HETATM   16  C   UNL     1      -8.595  11.620  67.482  1.00  0.00    -0.149 A  
HETATM   17  O   UNL     1      -8.877  12.672  69.420  1.00  0.00     0.820 OA 
HETATM   18 CL   UNL     1     -10.768   9.244  65.138  1.00  0.00     2.058 Cl 
HETATM   19  C   UNL     1     -11.072  10.372  67.573  1.00  0.00    -0.336 A  
HETATM   20  C   UNL     1     -10.230  10.197  66.468  1.00  0.00    -0.223 A  
ENDBRANCH   5  11
BRANCH   9  21
HETATM   21  C   UNL     1      -9.778  16.988  68.613  1.00  0.00    -0.282 A  
HETATM   22  C   UNL     1      -9.872  15.858  67.790  1.00  0.00    -0.222 A  
HETATM   23  C   UNL     1     -10.815  14.448  65.963  1.00  0.00    -0.309 C  
HETATM   24  C   UNL     1     -10.168  18.185  67.966  1.00  0.00    -0.380 A  
HETATM   25  C   UNL     1     -10.801  16.977  65.896  1.00  0.00    -0.024 A  
HETATM   26  C   UNL     1     -10.592  18.165  66.598  1.00  0.00    -0.296 A  
HETATM   27  C   UNL     1     -10.481  15.799  66.528  1.00  0.00    -0.304 A  
BRANCH  24  28
HETATM   28  N   UNL     1     -10.225  19.471  68.570  1.00  0.00    -0.438 NA 
HETATM   29  N   UNL     1      -9.595  19.789  69.733  1.00  0.00     0.133 NA 
HETATM   30  C   UNL     1     -11.066  21.345  69.077  1.00  0.00     2.240 A  
HETATM   31  C   UNL     1     -10.085  21.002  70.004  1.00  0.00     1.579 A  
HETATM   32  N   UNL     1     -11.206  20.361  68.190  1.00  0.00     0.892 NA 
ENDBRANCH  24  28
ENDBRANCH   9  21
TORSDOF 3
ENDMDL
MODEL      178
REMARK 921   NORMALIZED FREE ENERGY PREDICTED BY IDOCK:   24.84 KCAL/MOL
REMARK 922        TOTAL FREE ENERGY PREDICTED BY IDOCK:   27.57 KCAL/MOL
REMARK 923 INTER-LIGAND FREE ENERGY PREDICTED BY IDOCK:   28.50 KCAL/MOL
REMARK 924 INTRA-LIGAND FREE ENERGY PREDICTED BY IDOCK:   -0.93 KCAL/MOL
REMARK 927      BINDING AFFINITY PREDICTED BY RF-SCORE:    0.00 PKD
ROOT
HETATM    1  C   UNL     1      -7.880  13.724  72.473  1.00  0.00     8.998 C  
HETATM    2  C   UNL     1      -7.538  14.363  73.840  1.00  0.00     6.218 C  
HETATM    3  C   UNL     1      -7.179  12.341  72.306  1.00  0.00     9.926 C  
HETATM    4  C   UNL     1      -5.730  12.289  71.790  1.00  0.00     0.793 C  
HETATM    5  N   UNL     1      -5.568  12.855  70.463  1.00  0.00    -0.162 NA 
HETATM    6  C   UNL     1      -5.326  14.286  70.348  1.00  0.00    -0.109 C  
HETATM    7  O   UNL     1      -9.890  14.831  70.862  1.00  0.00     0.964 OA 
HETATM    8  C   UNL     1      -6.247  15.116  71.256  1.00  0.00     0.529 C  
HETATM    9  C   UNL     1      -8.729  14.989  70.453  1.00  0.00     1.164 C  
HETATM   10  N   UNL     1      -7.640  14.652  71.327  1.00  0.00     2.152 N  
ENDROOT
BRANCH   5  11
HETATM   11  C   UNL     1      -5.667  12.148  69.312  1.00  0.00    -0.073 A  
HETATM   12  N   UNL     1      -5.223  10.923  69.094  1.00  0.00    -0.041 NA 
HETATM   13  C   UNL     1      -6.173  11.772  67.247  1.00  0.00    -0.130 A  
HETATM   14  C   UNL     1      -6.604  11.854  65.930  1.00  0.00     1.322 A  
HETATM   15  C   UNL     1      -5.180   9.596  66.962  1.00  0.00    -0.038 A  
HETATM   16  C   UNL     1      -5.494  10.689  67.779  1.00  0.00    -0.043 A  
HETATM   17  O   UNL     1      -6.296  12.714  68.232  1.00  0.00    -0.061 OA 
HETATM   18 CL   UNL     1      -5.128   8.379  64.556  1.00  0.00    -0.035 Cl 
HETATM   19  C   UNL     1      -6.260  10.766  65.112  1.00  0.00     0.057 A  
HETATM   20  C   UNL     1      -5.559   9.664  65.618  1.00  0.00    -0.049 A  
ENDBRANCH   5  11
BRANCH   9  21
HETATM   21  C   UNL     1      -8.560  15.585  69.038  1.00  0.00    -0.234 A  
HETATM   22  C   UNL     1      -7.913  16.814  68.859  1.00  0.00    -0.237 A  
HETATM   23  C   UNL     1      -6.572  18.520  67.630  1.00  0.00    -0.205 C  
HETATM   24  C   UNL     1      -9.073  15.042  67.836  1.00  0.00    -0.180 A  
HETATM   25  C   UNL     1      -8.131  16.892  66.482  1.00  0.00    -0.327 A  
HETATM   26  C   UNL     1      -8.920  15.747  66.598  1.00  0.00    -0.313 A  
HETATM   27  C   UNL     1      -7.576  17.404  67.631  1.00  0.00    -0.199 A  
BRANCH  24  28
HETATM   28  N   UNL     1      -9.728  13.786  67.708  1.00  0.00    -0.224 NA 
HETATM   29  N   UNL     1      -9.160  12.599  68.052  1.00  0.00    -0.201 NA 
HETATM   30  C   UNL     1     -11.051  12.360  66.878  1.00  0.00    -0.287 A  
HETATM   31  C   UNL     1     -10.040  11.711  67.582  1.00  0.00    -0.188 A  
HETATM   32  N   UNL     1     -10.840  13.674  66.902  1.00  0.00    -0.282 NA 
ENDBRANCH  24  28
ENDBRANCH   9  21
TORSDOF 3
ENDMDL
MODEL      179
REMARK 921   NORMALIZED FREE ENERGY PREDICTED BY IDOCK:   25.21 KCAL/MOL
REMARK 922        TOTAL FREE ENERGY PREDICTED BY IDOCK:   28.01 KCAL/MOL
REMARK 923 INTER-LIGAND FREE ENERGY PREDICTED BY IDOCK:   -2.36 KCAL/MOL
REMARK 924 INTRA-LIGAND FREE ENERGY PREDICTED BY IDOCK:   30.36 KCAL/MOL
REMARK 927      BINDING AFFINITY PREDICTED BY RF-SCORE:    0.00 PKD
ROOT
HETATM    1  C   UNL     1     -10.590   7.967  72.491  1.00  0.00    -0.329 C  
HETATM    2  C   UNL     1     -10.319   8.220  73.993  1.00  0.00     2.413 C  
HETATM    3  C   UNL     1     -10.401   6.462  72.130  1.00  0.00    -0.213 C  
HETATM    4  C   UNL     1      -8.993   5.937  71.802  1.00  0.00    -0.139 C  
HETATM    5  N   UNL     1      -8.387   6.586  70.653  1.00  0.00    -0.131 NA 
HETATM    6  C   UNL     1      -7.640   7.817  70.869  1.00  0.00    -0.079 C  
HETATM    7  O   UNL     1     -11.730   9.979  70.905  1.00  0.00    -0.315 OA 
HETATM    8  C   UNL     1      -8.370   8.794  71.806  1.00  0.00    -0.094 C  
HETATM    9  C   UNL     1     -10.531   9.740  70.688  1.00  0.00    -0.289 C  
HETATM   10  N   UNL     1      -9.822   8.890  71.603  1.00  0.00    -0.307 N  
ENDROOT
BRANCH   5  11
HETATM   11  C   UNL     1      -8.502   6.146  69.377  1.00  0.00    -0.120 A  
HETATM   12  N   UNL     1      -9.539   6.304  68.575  1.00  0.00    -0.126 NA 
HETATM   13  C   UNL     1      -7.916   5.130  67.565  1.00  0.00    -0.100 A  
HETATM   14  C   UNL     1      -7.264   4.396  66.583  1.00  0.00    -0.079 A  
HETATM   15  C   UNL     1      -9.937   5.373  66.276  1.00  0.00    -0.199 A  
HETATM   16  C   UNL     1      -9.202   5.627  67.441  1.00  0.00    -0.109 A  
HETATM   17  O   UNL     1      -7.454   5.468  68.807  1.00  0.00    -0.076 OA 
HETATM   18 CL   UNL     1     -10.218   4.194  63.867  1.00  0.00    -0.125 Cl 
HETATM   19  C   UNL     1      -8.018   4.123  65.431  1.00  0.00    -0.097 A  
HETATM   20  C   UNL     1      -9.328   4.598  65.285  1.00  0.00    -0.157 A  
ENDBRANCH   5  11
BRANCH   9  21
HETATM   21  C   UNL     1      -9.892  10.426  69.460  1.00  0.00    -0.211 A  
HETATM   22  C   UNL     1     -10.555  11.475  68.809  1.00  0.00    -0.241 A  
HETATM   23  C   UNL     1     -10.730  13.561  67.456  1.00  0.00    -0.266 C  
HETATM   24  C   UNL     1      -8.678  10.055  68.832  1.00  0.00    -0.146 A  
HETATM   25  C   UNL     1      -8.887  11.857  67.142  1.00  0.00    -0.180 A  
HETATM   26  C   UNL     1      -8.244  10.723  67.641  1.00  0.00    -0.115 A  
HETATM   27  C   UNL     1     -10.037  12.268  67.774  1.00  0.00    -0.202 A  
BRANCH  24  28
HETATM   28  N   UNL     1      -7.774   9.063  69.301  1.00  0.00    -0.088 NA 
HETATM   29  N   UNL     1      -6.759   9.315  70.170  1.00  0.00    -0.052 NA 
HETATM   30  C   UNL     1      -6.620   7.292  69.220  1.00  0.00    -0.041 A  
HETATM   31  C   UNL     1      -6.078   8.166  70.160  1.00  0.00    -0.032 A  
HETATM   32  N   UNL     1      -7.664   7.866  68.626  1.00  0.00    -0.111 NA 
ENDBRANCH  24  28
ENDBRANCH   9  21
TORSDOF 3
ENDMDL
MODEL      180
REMARK 921   NORMALIZED FREE ENERGY PREDICTED BY IDOCK:   26.04 KCAL/MOL
REMARK 922        TOTAL FREE ENERGY PREDICTED BY IDOCK:   28.98 KCAL/MOL
REMARK 923 INTER-LIGAND FREE ENERGY PREDICTED BY IDOCK:   30.53 KCAL/MOL
REMARK 924 INTRA-LIGAND FREE ENERGY PREDICTED BY IDOCK:   -1.54 KCAL/MOL
REMARK 927      BINDING AFFINITY PREDICTED BY RF-SCORE:    0.00 PKD
ROOT
HETATM    1  C   UNL     1     -12.075   8.154  68.222  1.00  0.00     3.711 C  
HETATM    2  C   UNL     1     -13.207   7.991  67.181  1.00  0.00    17.224 C  
HETATM    3  C   UNL     1     -12.139   9.553  68.910  1.00  0.00     1.455 C  
HETATM    4  C   UNL     1     -11.472  10.759  68.228  1.00  0.00    -0.280 C  
HETATM    5  N   UNL     1     -10.041  10.598  68.039  1.00  0.00    -0.154 NA 
HETATM    6  C   UNL     1      -9.575   9.934  66.829  1.00  0.00    -0.183 C  
HETATM    7  O   UNL     1     -10.519   5.946  68.973  1.00  0.00    -0.209 OA 
HETATM    8  C   UNL     1     -10.379   8.665  66.505  1.00  0.00    -0.166 C  
HETATM    9  C   UNL     1      -9.943   6.793  68.272  1.00  0.00    -0.146 C  
HETATM   10  N   UNL     1     -10.727   7.831  67.663  1.00  0.00    -0.199 N  
ENDROOT
BRANCH   5  11
HETATM   11  C   UNL     1      -9.102  10.989  68.933  1.00  0.00    -0.123 A  
HETATM   12  N   UNL     1      -9.014  12.165  69.526  1.00  0.00     1.192 NA 
HETATM   13  C   UNL     1      -7.332  10.821  70.157  1.00  0.00     0.297 A  
HETATM   14  C   UNL     1      -6.169  10.409  70.795  1.00  0.00    -0.033 A  
HETATM   15  C   UNL     1      -7.222  13.059  71.042  1.00  0.00     4.057 A  
HETATM   16  C   UNL     1      -7.873  12.091  70.268  1.00  0.00     3.160 A  
HETATM   17  O   UNL     1      -8.124  10.102  69.305  1.00  0.00    -0.123 OA 
HETATM   18 CL   UNL     1      -5.147  13.869  72.563  1.00  0.00    -0.191 Cl 
HETATM   19  C   UNL     1      -5.510  11.394  71.546  1.00  0.00     0.192 A  
HETATM   20  C   UNL     1      -6.024  12.692  71.662  1.00  0.00     1.161 A  
ENDBRANCH   5  11
BRANCH   9  21
HETATM   21  C   UNL     1      -8.420   6.623  68.078  1.00  0.00    -0.116 A  
HETATM   22  C   UNL     1      -7.540   6.857  69.143  1.00  0.00    -0.097 A  
HETATM   23  C   UNL     1      -5.447   6.571  70.467  1.00  0.00    -0.019 C  
HETATM   24  C   UNL     1      -7.760   6.310  66.866  1.00  0.00    -0.100 A  
HETATM   25  C   UNL     1      -5.531   6.369  67.947  1.00  0.00    -0.005 A  
HETATM   26  C   UNL     1      -6.329   6.271  66.807  1.00  0.00    -0.041 A  
HETATM   27  C   UNL     1      -6.158   6.616  69.145  1.00  0.00    -0.026 A  
BRANCH  24  28
HETATM   28  N   UNL     1      -8.398   5.976  65.639  1.00  0.00    -0.139 NA 
HETATM   29  N   UNL     1      -8.888   4.740  65.355  1.00  0.00    -0.140 NA 
HETATM   30  C   UNL     1      -8.799   6.082  63.565  1.00  0.00     0.550 A  
HETATM   31  C   UNL     1      -9.200   4.844  64.060  1.00  0.00     0.082 A  
HETATM   32  N   UNL     1      -8.239   6.794  64.541  1.00  0.00    -0.064 NA 
ENDBRANCH  24  28
ENDBRANCH   9  21
TORSDOF 3
ENDMDL
MODEL      181
REMARK 921   NORMALIZED FREE ENERGY PREDICTED BY IDOCK:   26.77 KCAL/MOL
REMARK 922        TOTAL FREE ENERGY PREDICTED BY IDOCK:   29.84 KCAL/MOL
REMARK 923 INTER-LIGAND FREE ENERGY PREDICTED BY IDOCK:   29.81 KCAL/MOL
REMARK 924 INTRA-LIGAND FREE ENERGY PREDICTED BY IDOCK:    0.04 KCAL/MOL
REMARK 927      BINDING AFFINITY PREDICTED BY RF-SCORE:    0.00 PKD
ROOT
HETATM    1  C   UNL     1     -12.075   8.154  68.222  1.00  0.00     3.711 C  
HETATM    2  C   UNL     1     -13.207   7.991  67.181  1.00  0.00    17.224 C  
HETATM    3  C   UNL     1     -12.139   9.553  68.910  1.00  0.00     1.455 C  
HETATM    4  C   UNL     1     -11.472  10.759  68.228  1.00  0.00    -0.280 C  
HETATM    5  N   UNL     1     -10.041  10.598  68.039  1.00  0.00    -0.154 NA 
HETATM    6  C   UNL     1      -9.575   9.934  66.829  1.00  0.00    -0.183 C  
HETATM    7  O   UNL     1     -10.519   5.946  68.973  1.00  0.00    -0.209 OA 
HETATM    8  C   UNL     1     -10.379   8.665  66.505  1.00  0.00    -0.166 C  
HETATM    9  C   UNL     1      -9.943   6.793  68.272  1.00  0.00    -0.146 C  
HETATM   10  N   UNL     1     -10.727   7.831  67.663  1.00  0.00    -0.199 N  
ENDROOT
BRANCH   5  11
HETATM   11  C   UNL     1      -9.102  10.989  68.933  1.00  0.00    -0.123 A  
HETATM   12  N   UNL     1      -9.014  12.165  69.526  1.00  0.00     1.192 NA 
HETATM   13  C   UNL     1      -7.332  10.821  70.157  1.00  0.00     0.297 A  
HETATM   14  C   UNL     1      -6.169  10.409  70.795  1.00  0.00    -0.033 A  
HETATM   15  C   UNL     1      -7.222  13.059  71.042  1.00  0.00     4.057 A  
HETATM   16  C   UNL     1      -7.873  12.091  70.268  1.00  0.00     3.160 A  
HETATM   17  O   UNL     1      -8.124  10.102  69.305  1.00  0.00    -0.123 OA 
HETATM   18 CL   UNL     1      -5.147  13.869  72.563  1.00  0.00    -0.191 Cl 
HETATM   19  C   UNL     1      -5.510  11.394  71.546  1.00  0.00     0.192 A  
HETATM   20  C   UNL     1      -6.024  12.692  71.662  1.00  0.00     1.161 A  
ENDBRANCH   5  11
BRANCH   9  21
HETATM   21  C   UNL     1      -8.420   6.623  68.078  1.00  0.00    -0.116 A  
HETATM   22  C   UNL     1      -7.617   7.727  67.764  1.00  0.00    -0.113 A  
HETATM   23  C   UNL     1      -5.517   9.070  67.710  1.00  0.00    -0.035 C  
HETATM   24  C   UNL     1      -7.704   5.402  68.112  1.00  0.00    -0.085 A  
HETATM   25  C   UNL     1      -5.547   6.541  67.670  1.00  0.00    -0.005 A  
HETATM   26  C   UNL     1      -6.300   5.377  67.826  1.00  0.00    -0.039 A  
HETATM   27  C   UNL     1      -6.216   7.741  67.691  1.00  0.00    -0.050 A  
BRANCH  24  28
HETATM   28  N   UNL     1      -8.247   4.133  68.454  1.00  0.00    -0.083 NA 
HETATM   29  N   UNL     1      -8.315   3.658  69.726  1.00  0.00    -0.052 NA 
HETATM   30  C   UNL     1      -8.747   2.096  68.181  1.00  0.00    -0.095 A  
HETATM   31  C   UNL     1      -8.697   2.392  69.542  1.00  0.00    -0.076 A  
HETATM   32  N   UNL     1      -8.411   3.175  67.477  1.00  0.00    -0.087 NA 
ENDBRANCH  24  28
ENDBRANCH   9  21
TORSDOF 3
ENDMDL
MODEL      182
REMARK 921   NORMALIZED FREE ENERGY PREDICTED BY IDOCK:   28.99 KCAL/MOL
REMARK 922        TOTAL FREE ENERGY PREDICTED BY IDOCK:   32.44 KCAL/MOL
REMARK 923 INTER-LIGAND FREE ENERGY PREDICTED BY IDOCK:   24.96 KCAL/MOL
REMARK 924 INTRA-LIGAND FREE ENERGY PREDICTED BY IDOCK:    7.48 KCAL/MOL
REMARK 927      BINDING AFFINITY PREDICTED BY RF-SCORE:    0.00 PKD
ROOT
HETATM    1  C   UNL     1      -7.206  11.550  69.772  1.00  0.00     0.279 C  
HETATM    2  C   UNL     1      -6.463  12.906  69.737  1.00  0.00    -0.003 C  
HETATM    3  C   UNL     1      -6.455  10.519  70.669  1.00  0.00    -0.002 C  
HETATM    4  C   UNL     1      -5.305   9.694  70.068  1.00  0.00    -0.032 C  
HETATM    5  N   UNL     1      -5.714   8.859  68.952  1.00  0.00    -0.040 NA 
HETATM    6  C   UNL     1      -5.705   9.439  67.616  1.00  0.00    -0.041 C  
HETATM    7  O   UNL     1      -9.787  11.326  68.699  1.00  0.00    -0.197 OA 
HETATM    8  C   UNL     1      -6.319  10.847  67.580  1.00  0.00    -0.055 C  
HETATM    9  C   UNL     1      -8.887  10.771  68.048  1.00  0.00    -0.132 C  
HETATM   10  N   UNL     1      -7.520  11.029  68.408  1.00  0.00    -0.094 N  
ENDROOT
BRANCH   5  11
HETATM   11  C   UNL     1      -6.144   7.581  69.071  1.00  0.00    -0.034 A  
HETATM   12  N   UNL     1      -7.397   7.171  69.149  1.00  0.00    -0.089 NA 
HETATM   13  C   UNL     1      -5.977   5.439  69.285  1.00  0.00    -0.024 A  
HETATM   14  C   UNL     1      -5.537   4.130  69.428  1.00  0.00    -0.016 A  
HETATM   15  C   UNL     1      -8.300   4.864  69.562  1.00  0.00    -0.085 A  
HETATM   16  C   UNL     1      -7.307   5.823  69.331  1.00  0.00    -0.071 A  
HETATM   17  O   UNL     1      -5.222   6.565  69.109  1.00  0.00    -0.011 OA 
HETATM   18 CL   UNL     1      -9.066   2.338  70.120  1.00  0.00    -0.161 Cl 
HETATM   19  C   UNL     1      -6.537   3.180  69.687  1.00  0.00    -0.033 A  
HETATM   20  C   UNL     1      -7.888   3.541  69.757  1.00  0.00    -0.050 A  
ENDBRANCH   5  11
BRANCH   9  21
HETATM   21  C   UNL     1      -9.325   9.878  66.867  1.00  0.00    -0.184 A  
HETATM   22  C   UNL     1     -10.607   9.312  66.844  1.00  0.00    -0.239 A  
HETATM   23  C   UNL     1     -12.666   8.390  65.783  1.00  0.00    16.614 C  
HETATM   24  C   UNL     1      -8.518   9.479  65.775  1.00  0.00    -0.134 A  
HETATM   25  C   UNL     1     -10.363   8.172  64.759  1.00  0.00     4.889 A  
HETATM   26  C   UNL     1      -9.026   8.571  64.791  1.00  0.00     0.127 A  
HETATM   27  C   UNL     1     -11.179   8.596  65.781  1.00  0.00     4.254 A  
BRANCH  24  28
HETATM   28  N   UNL     1      -7.196   9.935  65.514  1.00  0.00    -0.115 NA 
HETATM   29  N   UNL     1      -6.840  11.247  65.492  1.00  0.00     0.370 NA 
HETATM   30  C   UNL     1      -5.259   9.894  64.667  1.00  0.00    -0.070 A  
HETATM   31  C   UNL     1      -5.591  11.199  65.019  1.00  0.00     0.410 A  
HETATM   32  N   UNL     1      -6.285   9.086  64.923  1.00  0.00    -0.065 NA 
ENDBRANCH  24  28
ENDBRANCH   9  21
TORSDOF 3
ENDMDL
MODEL      183
REMARK 921   NORMALIZED FREE ENERGY PREDICTED BY IDOCK:   29.50 KCAL/MOL
REMARK 922        TOTAL FREE ENERGY PREDICTED BY IDOCK:   33.04 KCAL/MOL
REMARK 923 INTER-LIGAND FREE ENERGY PREDICTED BY IDOCK:   24.00 KCAL/MOL
REMARK 924 INTRA-LIGAND FREE ENERGY PREDICTED BY IDOCK:    9.04 KCAL/MOL
REMARK 927      BINDING AFFINITY PREDICTED BY RF-SCORE:    0.00 PKD
ROOT
HETATM    1  C   UNL     1      -7.541  15.531  69.820  1.00  0.00    -0.065 C  
HETATM    2  C   UNL     1      -6.388  15.599  70.849  1.00  0.00     0.618 C  
HETATM    3  C   UNL     1      -8.164  14.102  69.766  1.00  0.00     0.835 C  
HETATM    4  C   UNL     1      -7.515  13.030  68.874  1.00  0.00     0.014 C  
HETATM    5  N   UNL     1      -7.491  13.387  67.466  1.00  0.00    -0.168 NA 
HETATM    6  C   UNL     1      -6.367  14.168  66.971  1.00  0.00     1.102 C  
HETATM    7  O   UNL     1      -8.544  17.881  68.666  1.00  0.00    -0.302 OA 
HETATM    8  C   UNL     1      -6.004  15.337  67.901  1.00  0.00    -0.150 C  
HETATM    9  C   UNL     1      -7.878  17.154  67.910  1.00  0.00    -0.193 C  
HETATM   10  N   UNL     1      -7.148  16.056  68.478  1.00  0.00    -0.128 N  
ENDROOT
BRANCH   5  11
HETATM   11  C   UNL     1      -8.469  13.076  66.582  1.00  0.00     0.106 A  
HETATM   12  N   UNL     1      -8.804  13.755  65.500  1.00  0.00     1.129 NA 
HETATM   13  C   UNL     1     -10.121  11.957  65.759  1.00  0.00    -0.241 A  
HETATM   14  C   UNL     1     -11.143  11.050  65.510  1.00  0.00     0.001 A  
HETATM   15  C   UNL     1     -10.708  13.381  63.906  1.00  0.00    -0.011 A  
HETATM   16  C   UNL     1      -9.878  13.085  64.994  1.00  0.00    -0.038 A  
HETATM   17  O   UNL     1      -9.212  11.939  66.780  1.00  0.00    -0.183 OA 
HETATM   18 CL   UNL     1     -12.870  12.875  62.375  1.00  0.00     1.900 Cl 
HETATM   19  C   UNL     1     -11.987  11.369  64.435  1.00  0.00     0.187 A  
HETATM   20  C   UNL     1     -11.776  12.512  63.654  1.00  0.00    -0.515 A  
ENDBRANCH   5  11
BRANCH   9  21
HETATM   21  C   UNL     1      -7.861  17.532  66.412  1.00  0.00    -0.329 A  
HETATM   22  C   UNL     1      -6.815  18.302  65.887  1.00  0.00    -0.325 A  
HETATM   23  C   UNL     1      -5.256  19.114  64.119  1.00  0.00    -0.261 C  
HETATM   24  C   UNL     1      -8.871  17.238  65.464  1.00  0.00     0.866 A  
HETATM   25  C   UNL     1      -7.622  18.360  63.640  1.00  0.00    10.300 A  
HETATM   26  C   UNL     1      -8.770  17.727  64.121  1.00  0.00    10.596 A  
HETATM   27  C   UNL     1      -6.606  18.603  64.532  1.00  0.00     0.932 A  
BRANCH  24  28
HETATM   28  N   UNL     1     -10.019  16.434  65.701  1.00  0.00    -0.529 NA 
HETATM   29  N   UNL     1     -10.576  16.254  66.928  1.00  0.00    -0.299 NA 
HETATM   30  C   UNL     1     -11.374  14.840  65.387  1.00  0.00    -0.356 A  
HETATM   31  C   UNL     1     -11.476  15.294  66.700  1.00  0.00    -0.107 A  
HETATM   32  N   UNL     1     -10.417  15.515  64.753  1.00  0.00    -0.385 NA 
ENDBRANCH  24  28
ENDBRANCH   9  21
TORSDOF 3
ENDMDL
MODEL      184
REMARK 921   NORMALIZED FREE ENERGY PREDICTED BY IDOCK:   34.21 KCAL/MOL
REMARK 922        TOTAL FREE ENERGY PREDICTED BY IDOCK:   38.58 KCAL/MOL
REMARK 923 INTER-LIGAND FREE ENERGY PREDICTED BY IDOCK:   37.44 KCAL/MOL
REMARK 924 INTRA-LIGAND FREE ENERGY PREDICTED BY IDOCK:    1.13 KCAL/MOL
REMARK 927      BINDING AFFINITY PREDICTED BY RF-SCORE:    0.00 PKD
ROOT
HETATM    1  C   UNL     1      -7.908   8.980  69.991  1.00  0.00    -0.088 C  
HETATM    2  C   UNL     1      -7.729   8.769  71.513  1.00  0.00    -0.139 C  
HETATM    3  C   UNL     1      -7.792  10.489  69.614  1.00  0.00    -0.097 C  
HETATM    4  C   UNL     1      -9.033  11.390  69.725  1.00  0.00     1.353 C  
HETATM    5  N   UNL     1     -10.134  10.966  68.878  1.00  0.00    -0.194 NA 
HETATM    6  C   UNL     1     -11.070   9.983  69.403  1.00  0.00    -0.223 C  
HETATM    7  O   UNL     1      -7.939   6.778  68.255  1.00  0.00    -0.109 OA 
HETATM    8  C   UNL     1     -10.366   8.817  70.115  1.00  0.00    -0.208 C  
HETATM    9  C   UNL     1      -9.032   7.344  68.422  1.00  0.00    -0.134 C  
HETATM   10  N   UNL     1      -9.144   8.330  69.460  1.00  0.00    -0.153 N  
ENDROOT
BRANCH   5  11
HETATM   11  C   UNL     1     -10.329  11.394  67.608  1.00  0.00    -0.183 A  
HETATM   12  N   UNL     1     -10.465  12.644  67.205  1.00  0.00    -0.234 NA 
HETATM   13  C   UNL     1     -10.645  11.221  65.479  1.00  0.00    -0.246 A  
HETATM   14  C   UNL     1     -10.841  10.777  64.178  1.00  0.00     0.095 A  
HETATM   15  C   UNL     1     -11.020  13.535  64.923  1.00  0.00    -0.359 A  
HETATM   16  C   UNL     1     -10.712  12.548  65.867  1.00  0.00    -0.264 A  
HETATM   17  O   UNL     1     -10.390  10.471  66.594  1.00  0.00    -0.228 OA 
HETATM   18 CL   UNL     1     -11.727  14.284  62.430  1.00  0.00     3.893 Cl 
HETATM   19  C   UNL     1     -11.177  11.769  63.244  1.00  0.00    -0.357 A  
HETATM   20  C   UNL     1     -11.268  13.118  63.611  1.00  0.00    -0.194 A  
ENDBRANCH   5  11
BRANCH   9  21
HETATM   21  C   UNL     1     -10.198   6.896  67.514  1.00  0.00    -0.249 A  
HETATM   22  C   UNL     1     -11.276   7.757  67.268  1.00  0.00     0.457 A  
HETATM   23  C   UNL     1     -13.178   8.702  65.962  1.00  0.00    20.835 C  
HETATM   24  C   UNL     1     -10.355   5.619  66.923  1.00  0.00    -0.259 A  
HETATM   25  C   UNL     1     -12.492   6.270  65.849  1.00  0.00     6.087 A  
HETATM   26  C   UNL     1     -11.535   5.307  66.173  1.00  0.00     0.941 A  
HETATM   27  C   UNL     1     -12.328   7.532  66.367  1.00  0.00     8.238 A  
BRANCH  24  28
HETATM   28  N   UNL     1      -9.400   4.566  66.963  1.00  0.00    -0.135 NA 
HETATM   29  N   UNL     1      -8.466   4.429  67.941  1.00  0.00    -0.098 NA 
HETATM   30  C   UNL     1      -8.097   3.094  66.182  1.00  0.00    -0.089 A  
HETATM   31  C   UNL     1      -7.690   3.451  67.465  1.00  0.00    -0.077 A  
HETATM   32  N   UNL     1      -9.148   3.830  65.825  1.00  0.00    -0.141 NA 
ENDBRANCH  24  28
ENDBRANCH   9  21
TORSDOF 3
ENDMDL
MODEL      185
REMARK 921   NORMALIZED FREE ENERGY PREDICTED BY IDOCK:   37.00 KCAL/MOL
REMARK 922        TOTAL FREE ENERGY PREDICTED BY IDOCK:   41.87 KCAL/MOL
REMARK 923 INTER-LIGAND FREE ENERGY PREDICTED BY IDOCK:   42.02 KCAL/MOL
REMARK 924 INTRA-LIGAND FREE ENERGY PREDICTED BY IDOCK:   -0.15 KCAL/MOL
REMARK 927      BINDING AFFINITY PREDICTED BY RF-SCORE:    0.00 PKD
ROOT
HETATM    1  C   UNL     1      -9.187  16.032  72.158  1.00  0.00     8.102 C  
HETATM    2  C   UNL     1      -9.685  15.272  73.410  1.00  0.00     7.849 C  
HETATM    3  C   UNL     1      -9.875  17.426  72.034  1.00  0.00     7.863 C  
HETATM    4  C   UNL     1     -11.251  17.529  71.356  1.00  0.00     1.986 C  
HETATM    5  N   UNL     1     -11.248  17.087  69.972  1.00  0.00     0.318 NA 
HETATM    6  C   UNL     1     -11.463  15.673  69.699  1.00  0.00    -0.340 C  
HETATM    7  O   UNL     1      -6.988  15.072  70.706  1.00  0.00     0.285 OA 
HETATM    8  C   UNL     1     -10.650  14.761  70.632  1.00  0.00     0.295 C  
HETATM    9  C   UNL     1      -8.091  14.955  70.148  1.00  0.00     0.601 C  
HETATM   10  N   UNL     1      -9.280  15.214  70.912  1.00  0.00     1.618 N  
ENDROOT
BRANCH   5  11
HETATM   11  C   UNL     1     -11.018  17.896  68.911  1.00  0.00     0.606 A  
HETATM   12  N   UNL     1     -10.715  17.523  67.681  1.00  0.00    -0.345 NA 
HETATM   13  C   UNL     1     -10.771  19.760  67.850  1.00  0.00    -0.235 A  
HETATM   14  C   UNL     1     -10.665  21.093  67.475  1.00  0.00     1.811 A  
HETATM   15  C   UNL     1     -10.083  18.927  65.696  1.00  0.00     0.115 A  
HETATM   16  C   UNL     1     -10.510  18.692  67.009  1.00  0.00    -0.407 A  
HETATM   17  O   UNL     1     -11.108  19.256  69.076  1.00  0.00     1.110 OA 
HETATM   18 CL   UNL     1      -9.326  20.598  63.719  1.00  0.00     4.953 Cl 
HETATM   19  C   UNL     1     -10.210  21.319  66.167  1.00  0.00     2.534 A  
HETATM   20  C   UNL     1      -9.921  20.258  65.299  1.00  0.00     0.486 A  
ENDBRANCH   5  11
BRANCH   9  21
HETATM   21  C   UNL     1      -8.084  14.492  68.674  1.00  0.00    -0.150 A  
HETATM   22  C   UNL     1      -8.678  15.281  67.680  1.00  0.00    -0.179 A  
HETATM   23  C   UNL     1      -8.993  16.175  65.375  1.00  0.00     0.818 C  
HETATM   24  C   UNL     1      -7.585  13.260  68.187  1.00  0.00    -0.141 A  
HETATM   25  C   UNL     1      -8.192  13.824  65.851  1.00  0.00     2.120 A  
HETATM   26  C   UNL     1      -7.723  12.917  66.803  1.00  0.00     0.321 A  
HETATM   27  C   UNL     1      -8.629  15.048  66.297  1.00  0.00     0.055 A  
BRANCH  24  28
HETATM   28  N   UNL     1      -6.889  12.287  68.957  1.00  0.00    -0.101 NA 
HETATM   29  N   UNL     1      -7.500  11.407  69.794  1.00  0.00     0.245 NA 
HETATM   30  C   UNL     1      -5.276  11.467  70.053  1.00  0.00    -0.071 A  
HETATM   31  C   UNL     1      -6.466  10.849  70.430  1.00  0.00    -0.035 A  
HETATM   32  N   UNL     1      -5.531  12.419  69.158  1.00  0.00    -0.067 NA 
ENDBRANCH  24  28
ENDBRANCH   9  21
TORSDOF 3
ENDMDL
MODEL      186
REMARK 921   NORMALIZED FREE ENERGY PREDICTED BY IDOCK:   37.75 KCAL/MOL
REMARK 922        TOTAL FREE ENERGY PREDICTED BY IDOCK:   42.75 KCAL/MOL
REMARK 923 INTER-LIGAND FREE ENERGY PREDICTED BY IDOCK:   44.07 KCAL/MOL
REMARK 924 INTRA-LIGAND FREE ENERGY PREDICTED BY IDOCK:   -1.33 KCAL/MOL
REMARK 927      BINDING AFFINITY PREDICTED BY RF-SCORE:    0.00 PKD
ROOT
HETATM    1  C   UNL     1      -9.177  16.047  72.161  1.00  0.00     8.102 C  
HETATM    2  C   UNL     1      -9.642  15.302  73.434  1.00  0.00     8.461 C  
HETATM    3  C   UNL     1      -9.905  17.418  72.013  1.00  0.00     7.863 C  
HETATM    4  C   UNL     1     -11.290  17.468  71.346  1.00  0.00     2.116 C  
HETATM    5  N   UNL     1     -11.287  16.995  69.973  1.00  0.00     0.476 NA 
HETATM    6  C   UNL     1     -11.464  15.570  69.733  1.00  0.00    -0.331 C  
HETATM    7  O   UNL     1      -6.965  15.116  70.709  1.00  0.00     0.326 OA 
HETATM    8  C   UNL     1     -10.617  14.702  70.678  1.00  0.00     0.458 C  
HETATM    9  C   UNL     1      -8.070  14.956  70.164  1.00  0.00     0.601 C  
HETATM   10  N   UNL     1      -9.258  15.198  70.934  1.00  0.00     1.618 N  
ENDROOT
BRANCH   5  11
HETATM   11  C   UNL     1     -11.090  17.786  68.891  1.00  0.00     0.711 A  
HETATM   12  N   UNL     1     -10.782  17.394  67.669  1.00  0.00    -0.347 NA 
HETATM   13  C   UNL     1     -10.909  19.632  67.786  1.00  0.00    -0.217 A  
HETATM   14  C   UNL     1     -10.848  20.958  67.379  1.00  0.00     1.544 A  
HETATM   15  C   UNL     1     -10.208  18.771  65.647  1.00  0.00     0.028 A  
HETATM   16  C   UNL     1     -10.619  18.553  66.968  1.00  0.00    -0.380 A  
HETATM   17  O   UNL     1     -11.222  19.145  69.025  1.00  0.00     1.481 OA 
HETATM   18 CL   UNL     1      -9.517  20.419  63.627  1.00  0.00     6.813 Cl 
HETATM   19  C   UNL     1     -10.409  21.168  66.063  1.00  0.00     2.198 A  
HETATM   20  C   UNL     1     -10.091  20.097  65.218  1.00  0.00     0.377 A  
ENDBRANCH   5  11
BRANCH   9  21
HETATM   21  C   UNL     1      -8.063  14.460  68.702  1.00  0.00    -0.146 A  
HETATM   22  C   UNL     1      -8.657  13.236  68.365  1.00  0.00    -0.130 A  
HETATM   23  C   UNL     1      -9.809  11.602  66.877  1.00  0.00    -0.218 C  
HETATM   24  C   UNL     1      -7.430  15.095  67.606  1.00  0.00    -0.181 A  
HETATM   25  C   UNL     1      -8.169  13.331  66.029  1.00  0.00     1.560 A  
HETATM   26  C   UNL     1      -7.426  14.477  66.313  1.00  0.00     2.460 A  
HETATM   27  C   UNL     1      -8.838  12.731  67.069  1.00  0.00    -0.213 A  
BRANCH  24  28
HETATM   28  N   UNL     1      -6.795  16.367  67.641  1.00  0.00    -0.126 NA 
HETATM   29  N   UNL     1      -7.449  17.532  67.896  1.00  0.00    -0.200 NA 
HETATM   30  C   UNL     1      -5.370  17.842  67.124  1.00  0.00    -0.134 A  
HETATM   31  C   UNL     1      -6.516  18.450  67.631  1.00  0.00    -0.199 A  
HETATM   32  N   UNL     1      -5.549  16.524  67.073  1.00  0.00    -0.301 NA 
ENDBRANCH  24  28
ENDBRANCH   9  21
TORSDOF 3
ENDMDL
MODEL      187
REMARK 921   NORMALIZED FREE ENERGY PREDICTED BY IDOCK:   49.28 KCAL/MOL
REMARK 922        TOTAL FREE ENERGY PREDICTED BY IDOCK:   56.30 KCAL/MOL
REMARK 923 INTER-LIGAND FREE ENERGY PREDICTED BY IDOCK:   55.82 KCAL/MOL
REMARK 924 INTRA-LIGAND FREE ENERGY PREDICTED BY IDOCK:    0.48 KCAL/MOL
REMARK 927      BINDING AFFINITY PREDICTED BY RF-SCORE:    0.00 PKD
ROOT
HETATM    1  C   UNL     1      -7.950   8.981  69.992  1.00  0.00    -0.113 C  
HETATM    2  C   UNL     1      -7.604   8.783  71.486  1.00  0.00    -0.130 C  
HETATM    3  C   UNL     1      -7.772  10.471  69.564  1.00  0.00    -0.141 C  
HETATM    4  C   UNL     1      -8.923  11.464  69.799  1.00  0.00     1.353 C  
HETATM    5  N   UNL     1     -10.145  11.109  69.100  1.00  0.00    -0.162 NA 
HETATM    6  C   UNL     1     -11.080  10.207  69.759  1.00  0.00    -0.279 C  
HETATM    7  O   UNL     1      -8.349   6.758  68.329  1.00  0.00    -0.117 OA 
HETATM    8  C   UNL     1     -10.380   9.004  70.412  1.00  0.00    -0.212 C  
HETATM    9  C   UNL     1      -9.370   7.407  68.611  1.00  0.00    -0.139 C  
HETATM   10  N   UNL     1      -9.285   8.416  69.629  1.00  0.00    -0.159 N  
ENDROOT
BRANCH   5  11
HETATM   11  C   UNL     1     -10.462  11.528  67.852  1.00  0.00    -0.184 A  
HETATM   12  N   UNL     1     -11.425  12.367  67.518  1.00  0.00    -0.324 NA 
HETATM   13  C   UNL     1     -10.335  11.634  65.699  1.00  0.00    -0.262 A  
HETATM   14  C   UNL     1     -10.013  11.467  64.359  1.00  0.00    -0.321 A  
HETATM   15  C   UNL     1     -12.221  13.061  65.240  1.00  0.00    -0.513 A  
HETATM   16  C   UNL     1     -11.388  12.409  66.156  1.00  0.00    -0.352 A  
HETATM   17  O   UNL     1      -9.728  11.069  66.787  1.00  0.00    -0.187 OA 
HETATM   18 CL   UNL     1     -12.995  13.596  62.712  1.00  0.00     1.403 Cl 
HETATM   19  C   UNL     1     -10.870  12.101  63.447  1.00  0.00    -0.474 A  
HETATM   20  C   UNL     1     -11.953  12.877  63.879  1.00  0.00    -0.480 A  
ENDBRANCH   5  11
BRANCH   9  21
HETATM   21  C   UNL     1     -10.666   7.032  67.860  1.00  0.00    -0.274 A  
HETATM   22  C   UNL     1     -10.788   7.281  66.487  1.00  0.00     0.346 A  
HETATM   23  C   UNL     1     -11.638   6.900  64.174  1.00  0.00    15.692 C  
HETATM   24  C   UNL     1     -11.844   6.501  68.439  1.00  0.00     1.247 A  
HETATM   25  C   UNL     1     -13.001   6.414  66.248  1.00  0.00     9.718 A  
HETATM   26  C   UNL     1     -13.012   6.282  67.638  1.00  0.00    11.018 A  
HETATM   27  C   UNL     1     -11.847   6.875  65.661  1.00  0.00     6.455 A  
BRANCH  24  28
HETATM   28  N   UNL     1     -11.993   6.105  69.797  1.00  0.00     0.269 NA 
HETATM   29  N   UNL     1     -11.250   6.611  70.818  1.00  0.00    -0.293 NA 
HETATM   30  C   UNL     1     -12.431   4.801  71.404  1.00  0.00     4.794 A  
HETATM   31  C   UNL     1     -11.589   5.821  71.840  1.00  0.00    -0.117 A  
HETATM   32  N   UNL     1     -12.655   4.934  70.098  1.00  0.00     8.759 NA 
ENDBRANCH  24  28
ENDBRANCH   9  21
TORSDOF 3
ENDMDL
MODEL      188
REMARK 921   NORMALIZED FREE ENERGY PREDICTED BY IDOCK:   51.03 KCAL/MOL
REMARK 922        TOTAL FREE ENERGY PREDICTED BY IDOCK:   58.35 KCAL/MOL
REMARK 923 INTER-LIGAND FREE ENERGY PREDICTED BY IDOCK:   -3.19 KCAL/MOL
REMARK 924 INTRA-LIGAND FREE ENERGY PREDICTED BY IDOCK:   61.54 KCAL/MOL
REMARK 927      BINDING AFFINITY PREDICTED BY RF-SCORE:    0.00 PKD
ROOT
HETATM    1  C   UNL     1     -10.345  15.837  65.115  1.00  0.00    -0.299 C  
HETATM    2  C   UNL     1     -11.373  16.961  64.846  1.00  0.00     0.286 C  
HETATM    3  C   UNL     1     -10.833  14.475  64.532  1.00  0.00    -0.239 C  
HETATM    4  C   UNL     1     -11.778  13.594  65.366  1.00  0.00    -0.332 C  
HETATM    5  N   UNL     1     -11.209  13.176  66.635  1.00  0.00    -0.296 NA 
HETATM    6  C   UNL     1     -11.367  14.054  67.786  1.00  0.00    -0.303 C  
HETATM    7  O   UNL     1      -7.796  16.463  66.101  1.00  0.00    -0.261 OA 
HETATM    8  C   UNL     1     -11.085  15.527  67.447  1.00  0.00    -0.285 C  
HETATM    9  C   UNL     1      -8.559  15.904  66.906  1.00  0.00    -0.241 C  
HETATM   10  N   UNL     1      -9.943  15.755  66.552  1.00  0.00    -0.256 N  
ENDROOT
BRANCH   5  11
HETATM   11  C   UNL     1     -10.502  12.035  66.817  1.00  0.00    -0.214 A  
HETATM   12  N   UNL     1      -9.383  11.691  66.206  1.00  0.00    -0.212 NA 
HETATM   13  C   UNL     1     -10.049  10.084  67.624  1.00  0.00    -0.190 A  
HETATM   14  C   UNL     1     -10.056   8.873  68.302  1.00  0.00    -0.219 A  
HETATM   15  C   UNL     1      -8.098   9.536  66.322  1.00  0.00    -0.111 A  
HETATM   16  C   UNL     1      -9.109  10.439  66.672  1.00  0.00    -0.151 A  
HETATM   17  O   UNL     1     -10.946  11.112  67.730  1.00  0.00    -0.222 OA 
HETATM   18 CL   UNL     1      -6.924   7.115  66.501  1.00  0.00    -0.074 Cl 
HETATM   19  C   UNL     1      -9.055   7.964  67.924  1.00  0.00    -0.133 A  
HETATM   20  C   UNL     1      -8.101   8.288  66.952  1.00  0.00    -0.103 A  
ENDBRANCH   5  11
BRANCH   9  21
HETATM   21  C   UNL     1      -7.949  15.453  68.252  1.00  0.00    -0.128 A  
HETATM   22  C   UNL     1      -6.985  16.242  68.893  1.00  0.00    -0.170 A  
HETATM   23  C   UNL     1      -5.721  17.152  70.840  1.00  0.00     0.283 C  
HETATM   24  C   UNL     1      -8.208  14.233  68.920  1.00  0.00    -0.053 A  
HETATM   25  C   UNL     1      -6.669  14.808  70.776  1.00  0.00     0.340 A  
HETATM   26  C   UNL     1      -7.503  13.900  70.122  1.00  0.00     0.977 A  
HETATM   27  C   UNL     1      -6.450  16.022  70.171  1.00  0.00     0.062 A  
BRANCH  24  28
HETATM   28  N   UNL     1      -9.172  13.263  68.528  1.00  0.00    -0.129 NA 
HETATM   29  N   UNL     1     -10.378  13.108  69.136  1.00  0.00     0.062 NA 
HETATM   30  C   UNL     1      -9.875  11.429  67.742  1.00  0.00    -0.175 A  
HETATM   31  C   UNL     1     -10.839  11.984  68.580  1.00  0.00    -0.237 A  
HETATM   32  N   UNL     1      -8.788  12.200  67.739  1.00  0.00    -0.164 NA 
ENDBRANCH  24  28
ENDBRANCH   9  21
TORSDOF 3
ENDMDL
MODEL      189
REMARK 921   NORMALIZED FREE ENERGY PREDICTED BY IDOCK:   56.85 KCAL/MOL
REMARK 922        TOTAL FREE ENERGY PREDICTED BY IDOCK:   65.20 KCAL/MOL
REMARK 923 INTER-LIGAND FREE ENERGY PREDICTED BY IDOCK:   65.62 KCAL/MOL
REMARK 924 INTRA-LIGAND FREE ENERGY PREDICTED BY IDOCK:   -0.42 KCAL/MOL
REMARK 927      BINDING AFFINITY PREDICTED BY RF-SCORE:    0.00 PKD
ROOT
HETATM    1  C   UNL     1      -7.607   4.964  68.192  1.00  0.00    -0.082 C  
HETATM    2  C   UNL     1      -7.343   3.578  68.824  1.00  0.00    -0.050 C  
HETATM    3  C   UNL     1      -6.567   6.016  68.686  1.00  0.00    -0.058 C  
HETATM    4  C   UNL     1      -6.813   6.751  70.015  1.00  0.00    -0.057 C  
HETATM    5  N   UNL     1      -8.038   7.531  70.027  1.00  0.00    -0.125 NA 
HETATM    6  C   UNL     1      -9.274   6.868  70.417  1.00  0.00    -0.156 C  
HETATM    7  O   UNL     1      -9.448   5.231  66.094  1.00  0.00    -0.151 OA 
HETATM    8  C   UNL     1      -9.437   5.487  69.760  1.00  0.00    -0.149 C  
HETATM    9  C   UNL     1      -9.807   5.704  67.185  1.00  0.00    -0.149 C  
HETATM   10  N   UNL     1      -9.023   5.411  68.352  1.00  0.00    -0.107 N  
ENDROOT
BRANCH   5  11
HETATM   11  C   UNL     1      -8.120   8.831  69.659  1.00  0.00    -0.101 A  
HETATM   12  N   UNL     1      -7.147   9.724  69.680  1.00  0.00    -0.072 NA 
HETATM   13  C   UNL     1      -9.067  10.647  68.974  1.00  0.00    -0.166 A  
HETATM   14  C   UNL     1      -9.954  11.621  68.537  1.00  0.00    -0.198 A  
HETATM   15  C   UNL     1      -7.230  12.189  69.209  1.00  0.00     0.097 A  
HETATM   16  C   UNL     1      -7.741  10.888  69.294  1.00  0.00    -0.099 A  
HETATM   17  O   UNL     1      -9.317   9.321  69.199  1.00  0.00    -0.151 OA 
HETATM   18 CL   UNL     1      -7.549  14.831  68.769  1.00  0.00    -0.129 Cl 
HETATM   19  C   UNL     1      -9.441  12.926  68.482  1.00  0.00    -0.098 A  
HETATM   20  C   UNL     1      -8.110  13.203  68.815  1.00  0.00     0.073 A  
ENDBRANCH   5  11
BRANCH   9  21
HETATM   21  C   UNL     1     -11.106   6.539  67.192  1.00  0.00    -0.434 A  
HETATM   22  C   UNL     1     -12.198   6.144  67.976  1.00  0.00     4.124 A  
HETATM   23  C   UNL     1     -14.268   6.479  69.324  1.00  0.00    12.305 C  
HETATM   24  C   UNL     1     -11.369   7.684  66.402  1.00  0.00     2.477 A  
HETATM   25  C   UNL     1     -13.640   7.946  67.362  1.00  0.00    20.982 A  
HETATM   26  C   UNL     1     -12.656   8.313  66.442  1.00  0.00    12.558 A  
HETATM   27  C   UNL     1     -13.380   6.872  68.179  1.00  0.00    13.119 A  
BRANCH  24  28
HETATM   28  N   UNL     1     -10.433   8.336  65.553  1.00  0.00     2.035 NA 
HETATM   29  N   UNL     1      -9.272   7.769  65.131  1.00  0.00     0.444 NA 
HETATM   30  C   UNL     1      -9.378   9.966  64.715  1.00  0.00    -0.278 A  
HETATM   31  C   UNL     1      -8.647   8.793  64.545  1.00  0.00    -0.099 A  
HETATM   32  N   UNL     1     -10.489   9.705  65.400  1.00  0.00     0.318 NA 
ENDBRANCH  24  28
ENDBRANCH   9  21
TORSDOF 3
ENDMDL
MODEL      190
REMARK 921   NORMALIZED FREE ENERGY PREDICTED BY IDOCK:   61.81 KCAL/MOL
REMARK 922        TOTAL FREE ENERGY PREDICTED BY IDOCK:   71.02 KCAL/MOL
REMARK 923 INTER-LIGAND FREE ENERGY PREDICTED BY IDOCK:   71.22 KCAL/MOL
REMARK 924 INTRA-LIGAND FREE ENERGY PREDICTED BY IDOCK:   -0.19 KCAL/MOL
REMARK 927      BINDING AFFINITY PREDICTED BY RF-SCORE:    0.00 PKD
ROOT
HETATM    1  C   UNL     1      -6.630   6.273  66.237  1.00  0.00    -0.048 C  
HETATM    2  C   UNL     1      -5.601   5.556  65.333  1.00  0.00    -0.013 C  
HETATM    3  C   UNL     1      -6.717   5.596  67.639  1.00  0.00    -0.059 C  
HETATM    4  C   UNL     1      -7.636   4.377  67.830  1.00  0.00    -0.076 C  
HETATM    5  N   UNL     1      -9.035   4.659  67.560  1.00  0.00    -0.109 NA 
HETATM    6  C   UNL     1      -9.513   4.529  66.191  1.00  0.00    -0.173 C  
HETATM    7  O   UNL     1      -7.726   8.732  65.451  1.00  0.00    -0.085 OA 
HETATM    8  C   UNL     1      -8.555   5.162  65.168  1.00  0.00    -0.150 C  
HETATM    9  C   UNL     1      -8.500   7.762  65.408  1.00  0.00    -0.110 C  
HETATM   10  N   UNL     1      -7.959   6.442  65.577  1.00  0.00    -0.109 N  
ENDROOT
BRANCH   5  11
HETATM   11  C   UNL     1      -9.925   5.076  68.491  1.00  0.00    -0.139 A  
HETATM   12  N   UNL     1     -10.451   6.282  68.600  1.00  0.00    -0.205 NA 
HETATM   13  C   UNL     1     -11.193   4.934  70.233  1.00  0.00     1.698 A  
HETATM   14  C   UNL     1     -11.877   4.529  71.371  1.00  0.00     3.191 A  
HETATM   15  C   UNL     1     -11.951   7.216  70.385  1.00  0.00    -0.190 A  
HETATM   16  C   UNL     1     -11.220   6.221  69.724  1.00  0.00    -0.430 A  
HETATM   17  O   UNL     1     -10.367   4.187  69.438  1.00  0.00     0.241 OA 
HETATM   18 CL   UNL     1     -13.465   8.058  72.452  1.00  0.00    -0.089 Cl 
HETATM   19  C   UNL     1     -12.584   5.538  72.042  1.00  0.00     0.991 A  
HETATM   20  C   UNL     1     -12.616   6.853  71.561  1.00  0.00    -0.367 A  
ENDBRANCH   5  11
BRANCH   9  21
HETATM   21  C   UNL     1      -9.988   8.066  65.127  1.00  0.00     2.079 A  
HETATM   22  C   UNL     1     -10.896   7.021  64.905  1.00  0.00     7.203 A  
HETATM   23  C   UNL     1     -13.127   5.909  64.910  1.00  0.00     8.314 C  
HETATM   24  C   UNL     1     -10.568   9.350  64.988  1.00  0.00     2.198 A  
HETATM   25  C   UNL     1     -12.820   8.398  64.581  1.00  0.00    22.377 A  
HETATM   26  C   UNL     1     -11.950   9.488  64.637  1.00  0.00    10.156 A  
HETATM   27  C   UNL     1     -12.287   7.146  64.771  1.00  0.00    15.445 A  
BRANCH  24  28
HETATM   28  N   UNL     1      -9.901  10.587  65.206  1.00  0.00    -0.262 NA 
HETATM   29  N   UNL     1      -9.654  11.105  66.439  1.00  0.00    -0.194 NA 
HETATM   30  C   UNL     1      -9.293  12.567  64.782  1.00  0.00     0.495 A  
HETATM   31  C   UNL     1      -9.208  12.331  66.152  1.00  0.00    -0.132 A  
HETATM   32  N   UNL     1      -9.782  11.490  64.172  1.00  0.00    -0.231 NA 
ENDBRANCH  24  28
ENDBRANCH   9  21
TORSDOF 3
ENDMDL
