MODEL        1
REMARK 921   NORMALIZED FREE ENERGY PREDICTED BY IDOCK:   -5.69 KCAL/MOL
REMARK 922        TOTAL FREE ENERGY PREDICTED BY IDOCK:   -9.28 KCAL/MOL
REMARK 923 INTER-LIGAND FREE ENERGY PREDICTED BY IDOCK:   -7.68 KCAL/MOL
REMARK 924 INTRA-LIGAND FREE ENERGY PREDICTED BY IDOCK:   -1.60 KCAL/MOL
REMARK 927      BINDING AFFINITY PREDICTED BY RF-SCORE:    0.00 PKD
ROOT
HETATM    1  C   UNL     1     -10.470   5.888  73.530  1.00  0.00    -0.258 C  
HETATM    2  O   UNL     1     -11.138   5.333  72.401  1.00  0.00    -0.240 OA 
ENDROOT
BRANCH   2   3
HETATM    3  C   UNL     1     -10.430   5.531  71.173  1.00  0.00    -0.236 C  
HETATM    4  C   UNL     1     -11.344   6.158  70.103  1.00  0.00    -0.433 C  
HETATM    5  C   UNL     1     -10.544   6.202  68.823  1.00  0.00    -0.330 C  
HETATM    6  O   UNL     1      -8.634   3.880  71.506  1.00  0.00    -0.092 OA 
HETATM    7  C   UNL     1     -10.387   4.753  68.330  1.00  0.00     0.034 C  
HETATM    8  C   UNL     1      -9.798   4.171  70.719  1.00  0.00    -0.178 C  
HETATM    9  C   UNL     1      -9.364   4.106  69.243  1.00  0.00    -0.237 C  
HETATM   10  H   UNL     1      -8.251   3.055  71.230  1.00  0.00     0.000 HD 
BRANCH   5  11
HETATM   11  C   UNL     1     -10.994   7.129  67.738  1.00  0.00    -0.187 C  
HETATM   12  C   UNL     1     -10.400   9.371  68.813  1.00  0.00    -0.230 C  
HETATM   13  C   UNL     1     -10.425   8.357  67.738  1.00  0.00    -0.284 C  
BRANCH  13  14
HETATM   14  C   UNL     1      -9.439   8.654  66.626  1.00  0.00    -0.207 C  
HETATM   15  C   UNL     1      -9.799  10.668  65.324  1.00  0.00    -0.275 C  
HETATM   16  O   UNL     1      -9.358  10.111  66.506  1.00  0.00    -0.156 OA 
HETATM   17  O   UNL     1      -9.846  10.060  64.253  1.00  0.00    -0.280 OA 
HETATM   18  C   UNL     1     -10.204  12.183  65.482  1.00  0.00    -0.265 C  
HETATM   19  C   UNL     1      -9.912  12.952  64.151  1.00  0.00    -0.087 C  
HETATM   20  C   UNL     1     -11.063  12.899  63.132  1.00  0.00     0.315 C  
HETATM   21  C   UNL     1     -12.353  13.394  63.770  1.00  0.00    -0.418 C  
HETATM   22  C   UNL     1     -12.658  12.522  64.978  1.00  0.00    -0.345 C  
HETATM   23  N   UNL     1     -11.573  12.582  65.961  1.00  0.00    -0.384 N  
HETATM   24  C   UNL     1     -11.821  13.421  67.066  1.00  0.00    -0.394 C  
HETATM   25  C   UNL     1     -11.049  13.229  68.348  1.00  0.00    -0.270 C  
HETATM   26  O   UNL     1     -12.776  14.195  67.119  1.00  0.00     0.005 OA 
HETATM   27  C   UNL     1     -10.432  14.441  69.121  1.00  0.00    -0.189 C  
HETATM   28  O   UNL     1     -10.965  12.075  68.774  1.00  0.00    -0.219 OA 
HETATM   29  O   UNL     1      -9.062  14.634  68.794  1.00  0.00    -0.190 OA 
HETATM   30  O   UNL     1     -10.423  14.002  70.501  1.00  0.00     0.366 OA 
HETATM   31  C   UNL     1      -8.785  15.185  67.515  1.00  0.00    -0.177 C  
HETATM   32  H   UNL     1     -10.049  14.738  70.971  1.00  0.00     0.000 HD 
HETATM   33  C   UNL     1      -7.247  15.051  67.223  1.00  0.00    -0.140 C  
HETATM   34  C   UNL     1      -9.397  16.601  67.434  1.00  0.00    -0.222 C  
HETATM   35  C   UNL     1      -8.087   6.718  65.698  1.00  0.00    -0.122 C  
HETATM   36  H   UNL     1      -6.044   6.656  66.754  1.00  0.00     0.000 HD 
HETATM   37  C   UNL     1      -6.710  13.567  67.234  1.00  0.00     0.136 C  
HETATM   38  C   UNL     1     -10.888  16.576  67.852  1.00  0.00    -0.326 C  
HETATM   39  O   UNL     1      -6.041   6.738  67.701  1.00  0.00    -0.026 OA 
HETATM   40  C   UNL     1      -6.583  12.890  68.630  1.00  0.00    -0.091 C  
HETATM   41  C   UNL     1      -8.037   7.849  66.818  1.00  0.00    -0.108 C  
HETATM   42  C   UNL     1     -11.059  15.833  69.175  1.00  0.00    -0.283 C  
HETATM   43  C   UNL     1      -5.519  11.779  68.721  1.00  0.00    -0.049 C  
HETATM   44  C   UNL     1      -7.906  12.295  69.109  1.00  0.00     0.318 C  
HETATM   45  C   UNL     1     -12.455  15.887  69.788  1.00  0.00     0.057 C  
HETATM   46  C   UNL     1      -5.543  11.111  70.106  1.00  0.00    -0.101 C  
HETATM   47  C   UNL     1      -5.691   9.771  70.127  1.00  0.00    -0.044 C  
HETATM   48  C   UNL     1      -5.612  11.991  71.328  1.00  0.00     0.126 C  
HETATM   49  C   UNL     1      -5.998   8.807  71.247  1.00  0.00    -0.048 C  
HETATM   50  C   UNL     1      -6.123   7.477  70.478  1.00  0.00    -0.031 C  
HETATM   51  C   UNL     1      -7.219   9.090  72.163  1.00  0.00     0.187 C  
HETATM   52  C   UNL     1      -7.407   7.006  68.102  1.00  0.00    -0.097 C  
HETATM   53  C   UNL     1      -7.402   7.142  69.669  1.00  0.00    -0.085 C  
HETATM   54  O   UNL     1      -5.166   6.696  70.434  1.00  0.00    -0.017 OA 
BRANCH  33  55
HETATM   55  O   UNL     1      -6.422  15.751  68.166  1.00  0.00    -0.114 OA 
HETATM   56  C   UNL     1      -5.267  16.373  67.640  1.00  0.00    -0.134 C  
ENDBRANCH  33  55
BRANCH  34  57
HETATM   57  O   UNL     1      -9.234  17.109  66.111  1.00  0.00    -0.400 OA 
HETATM   58  C   UNL     1      -8.950  18.504  66.072  1.00  0.00     0.042 C  
ENDBRANCH  34  57
BRANCH  51  59
HETATM   59  C   UNL     1      -7.395   8.256  73.421  1.00  0.00    -0.160 C  
HETATM   60  C   UNL     1      -6.443   7.792  74.241  1.00  0.00    -0.106 C  
ENDBRANCH  51  59
ENDBRANCH  13  14
ENDBRANCH   5  11
ENDBRANCH   2   3
TORSDOF 6
ENDMDL
MODEL        2
REMARK 921   NORMALIZED FREE ENERGY PREDICTED BY IDOCK:   -3.55 KCAL/MOL
REMARK 922        TOTAL FREE ENERGY PREDICTED BY IDOCK:   -6.39 KCAL/MOL
REMARK 923 INTER-LIGAND FREE ENERGY PREDICTED BY IDOCK:   -5.06 KCAL/MOL
REMARK 924 INTRA-LIGAND FREE ENERGY PREDICTED BY IDOCK:   -1.33 KCAL/MOL
REMARK 927      BINDING AFFINITY PREDICTED BY RF-SCORE:    0.00 PKD
ROOT
HETATM    1  C   UNL     1      -5.128   5.688  74.456  1.00  0.00    -0.027 C  
HETATM    2  O   UNL     1      -5.142   6.060  73.081  1.00  0.00    -0.025 OA 
ENDROOT
BRANCH   2   3
HETATM    3  C   UNL     1      -6.462   6.239  72.558  1.00  0.00    -0.059 C  
HETATM    4  C   UNL     1      -7.062   7.582  73.016  1.00  0.00    -0.080 C  
HETATM    5  C   UNL     1      -8.489   7.609  72.521  1.00  0.00    -0.157 C  
HETATM    6  O   UNL     1      -7.017   3.879  72.131  1.00  0.00    -0.044 OA 
HETATM    7  C   UNL     1      -9.280   6.583  73.349  1.00  0.00    -0.145 C  
HETATM    8  C   UNL     1      -7.343   5.007  72.955  1.00  0.00    -0.087 C  
HETATM    9  C   UNL     1      -8.864   5.217  72.837  1.00  0.00    -0.121 C  
HETATM   10  H   UNL     1      -7.552   3.131  72.372  1.00  0.00     0.000 HD 
BRANCH   5  11
HETATM   11  C   UNL     1      -9.182   8.933  72.435  1.00  0.00     0.078 C  
HETATM   12  C   UNL     1      -8.219   9.782  70.225  1.00  0.00    -0.178 C  
HETATM   13  C   UNL     1      -9.288   9.464  71.195  1.00  0.00    -0.143 C  
BRANCH  13  14
HETATM   14  C   UNL     1     -10.670   9.482  70.574  1.00  0.00    -0.298 C  
HETATM   15  C   UNL     1     -11.610  11.645  70.007  1.00  0.00    -0.255 C  
HETATM   16  O   UNL     1     -10.721  10.643  69.682  1.00  0.00    -0.243 OA 
HETATM   17  O   UNL     1     -12.618  11.474  70.695  1.00  0.00    -0.304 OA 
HETATM   18  C   UNL     1     -11.216  13.033  69.374  1.00  0.00    -0.145 C  
HETATM   19  C   UNL     1     -12.507  13.859  69.059  1.00  0.00     0.088 C  
HETATM   20  C   UNL     1     -13.014  14.704  70.241  1.00  0.00    -0.166 C  
HETATM   21  C   UNL     1     -11.904  15.612  70.752  1.00  0.00    -0.421 C  
HETATM   22  C   UNL     1     -10.728  14.744  71.171  1.00  0.00     0.546 C  
HETATM   23  N   UNL     1     -10.228  13.949  70.045  1.00  0.00     0.904 N  
HETATM   24  C   UNL     1      -9.063  14.454  69.436  1.00  0.00     0.321 C  
HETATM   25  C   UNL     1      -8.184  13.541  68.615  1.00  0.00    -0.040 C  
HETATM   26  O   UNL     1      -8.603  15.567  69.687  1.00  0.00    -0.246 OA 
HETATM   27  C   UNL     1      -7.629  13.978  67.219  1.00  0.00    -0.070 C  
HETATM   28  O   UNL     1      -7.895  12.454  69.119  1.00  0.00     0.138 OA 
HETATM   29  O   UNL     1      -8.440  13.495  66.154  1.00  0.00     0.521 OA 
HETATM   30  O   UNL     1      -6.386  13.244  67.097  1.00  0.00    -0.462 OA 
HETATM   31  C   UNL     1      -9.692  14.139  65.966  1.00  0.00    -0.274 C  
HETATM   32  H   UNL     1      -6.049  13.509  66.249  1.00  0.00     0.000 HD 
HETATM   33  C   UNL     1     -10.553  13.296  64.959  1.00  0.00    -0.346 C  
HETATM   34  C   UNL     1      -9.445  15.623  65.613  1.00  0.00    -0.237 C  
HETATM   35  C   UNL     1     -12.161   7.464  70.948  1.00  0.00    -0.290 C  
HETATM   36  H   UNL     1     -11.966   6.043  69.149  1.00  0.00     0.000 HD 
HETATM   37  C   UNL     1     -10.840  11.816  65.428  1.00  0.00    -0.347 C  
HETATM   38  C   UNL     1      -8.495  16.279  66.644  1.00  0.00    -0.306 C  
HETATM   39  O   UNL     1     -11.088   5.850  68.840  1.00  0.00    -0.315 OA 
HETATM   40  C   UNL     1      -9.641  10.825  65.353  1.00  0.00    -0.272 C  
HETATM   41  C   UNL     1     -11.075   8.041  69.936  1.00  0.00    -0.108 C  
HETATM   42  C   UNL     1      -7.255  15.413  66.854  1.00  0.00     0.096 C  
HETATM   43  C   UNL     1     -10.030   9.345  65.180  1.00  0.00     0.197 C  
HETATM   44  C   UNL     1      -8.734  10.919  66.578  1.00  0.00    -0.165 C  
HETATM   45  C   UNL     1      -6.156  16.029  67.715  1.00  0.00    -0.162 C  
HETATM   46  C   UNL     1      -8.785   8.443  65.217  1.00  0.00    -0.148 C  
HETATM   47  C   UNL     1      -8.793   7.440  66.118  1.00  0.00    -0.185 C  
HETATM   48  C   UNL     1      -7.577   8.854  64.415  1.00  0.00    -0.114 C  
HETATM   49  C   UNL     1      -7.703   6.524  66.616  1.00  0.00    -0.099 C  
HETATM   50  C   UNL     1      -8.448   5.731  67.709  1.00  0.00    -0.103 C  
HETATM   51  C   UNL     1      -6.376   7.149  67.126  1.00  0.00    -0.053 C  
HETATM   52  C   UNL     1     -10.182   6.680  69.608  1.00  0.00    -0.186 C  
HETATM   53  C   UNL     1      -8.729   6.360  69.097  1.00  0.00    -0.127 C  
HETATM   54  O   UNL     1      -8.900   4.609  67.458  1.00  0.00    -0.104 OA 
BRANCH  33  55
HETATM   55  O   UNL     1      -9.952  13.164  63.662  1.00  0.00    -0.059 OA 
HETATM   56  C   UNL     1     -10.417  12.091  62.868  1.00  0.00     0.226 C  
ENDBRANCH  33  55
BRANCH  34  57
HETATM   57  O   UNL     1     -10.697  16.304  65.549  1.00  0.00    -0.359 OA 
HETATM   58  C   UNL     1     -10.722  17.513  66.303  1.00  0.00    -0.087 C  
ENDBRANCH  34  57
BRANCH  51  59
HETATM   59  C   UNL     1      -5.200   6.229  67.411  1.00  0.00    -0.005 C  
HETATM   60  C   UNL     1      -5.154   4.895  67.305  1.00  0.00    -0.007 C  
ENDBRANCH  51  59
ENDBRANCH  13  14
ENDBRANCH   5  11
ENDBRANCH   2   3
TORSDOF 6
ENDMDL
MODEL        3
REMARK 921   NORMALIZED FREE ENERGY PREDICTED BY IDOCK:   -3.14 KCAL/MOL
REMARK 922        TOTAL FREE ENERGY PREDICTED BY IDOCK:   -5.84 KCAL/MOL
REMARK 923 INTER-LIGAND FREE ENERGY PREDICTED BY IDOCK:   -7.16 KCAL/MOL
REMARK 924 INTRA-LIGAND FREE ENERGY PREDICTED BY IDOCK:    1.32 KCAL/MOL
REMARK 927      BINDING AFFINITY PREDICTED BY RF-SCORE:    0.00 PKD
ROOT
HETATM    1  C   UNL     1     -12.408  14.233  63.466  1.00  0.00     0.323 C  
HETATM    2  O   UNL     1     -11.640  13.103  63.065  1.00  0.00    -0.151 OA 
ENDROOT
BRANCH   2   3
HETATM    3  C   UNL     1     -10.849  12.554  64.124  1.00  0.00    -0.382 C  
HETATM    4  C   UNL     1     -10.762  11.019  64.012  1.00  0.00    -0.331 C  
HETATM    5  C   UNL     1     -10.023  10.537  65.237  1.00  0.00    -0.364 C  
HETATM    6  O   UNL     1     -11.050  14.401  65.739  1.00  0.00    -0.303 OA 
HETATM    7  C   UNL     1     -10.955  10.739  66.444  1.00  0.00    -0.108 C  
HETATM    8  C   UNL     1     -11.423  13.037  65.498  1.00  0.00    -0.321 C  
HETATM    9  C   UNL     1     -10.963  12.229  66.726  1.00  0.00    -0.321 C  
HETATM   10  H   UNL     1     -11.399  14.694  66.572  1.00  0.00     0.000 HD 
BRANCH   5  11
HETATM   11  C   UNL     1      -9.416   9.170  65.205  1.00  0.00    -0.169 C  
HETATM   12  C   UNL     1      -8.617   9.108  62.778  1.00  0.00    -0.209 C  
HETATM   13  C   UNL     1      -8.489   8.958  64.243  1.00  0.00    -0.165 C  
BRANCH  13  14
HETATM   14  C   UNL     1      -7.049   8.828  64.697  1.00  0.00    -0.088 C  
HETATM   15  C   UNL     1      -6.467   9.780  66.850  1.00  0.00    -0.066 C  
HETATM   16  O   UNL     1      -7.068   8.750  66.160  1.00  0.00    -0.082 OA 
HETATM   17  O   UNL     1      -5.585  10.501  66.381  1.00  0.00    -0.053 OA 
HETATM   18  C   UNL     1      -7.007   9.917  68.325  1.00  0.00    -0.072 C  
HETATM   19  C   UNL     1      -5.868  10.443  69.260  1.00  0.00    -0.037 C  
HETATM   20  C   UNL     1      -5.757  11.976  69.311  1.00  0.00    -0.072 C  
HETATM   21  C   UNL     1      -7.097  12.588  69.696  1.00  0.00     0.375 C  
HETATM   22  C   UNL     1      -8.136  12.152  68.673  1.00  0.00    -0.048 C  
HETATM   23  N   UNL     1      -8.259  10.692  68.632  1.00  0.00    -0.127 N  
HETATM   24  C   UNL     1      -9.373  10.174  69.321  1.00  0.00    -0.215 C  
HETATM   25  C   UNL     1      -9.894   8.797  68.987  1.00  0.00    -0.181 C  
HETATM   26  O   UNL     1     -10.080  10.854  70.062  1.00  0.00     0.174 OA 
HETATM   27  C   UNL     1     -10.264   7.768  70.105  1.00  0.00    -0.205 C  
HETATM   28  O   UNL     1     -10.049   8.542  67.791  1.00  0.00    -0.186 OA 
HETATM   29  O   UNL     1      -9.197   6.864  70.366  1.00  0.00    -0.155 OA 
HETATM   30  O   UNL     1     -11.296   6.954  69.497  1.00  0.00    -0.474 OA 
HETATM   31  C   UNL     1      -8.084   7.384  71.078  1.00  0.00    -0.101 C  
HETATM   32  H   UNL     1     -11.521   6.329  70.176  1.00  0.00     0.000 HD 
HETATM   33  C   UNL     1      -6.907   6.345  71.013  1.00  0.00    -0.066 C  
HETATM   34  C   UNL     1      -8.550   7.834  72.480  1.00  0.00    -0.136 C  
HETATM   35  C   UNL     1      -5.282   8.428  62.921  1.00  0.00    -0.068 C  
HETATM   36  H   UNL     1      -4.868   6.170  62.770  1.00  0.00     0.000 HD 
HETATM   37  C   UNL     1      -6.423   6.000  69.551  1.00  0.00    -0.042 C  
HETATM   38  C   UNL     1      -9.780   8.769  72.372  1.00  0.00    -0.215 C  
HETATM   39  O   UNL     1      -5.621   5.591  62.733  1.00  0.00    -0.014 OA 
HETATM   40  C   UNL     1      -7.370   5.096  68.708  1.00  0.00    -0.062 C  
HETATM   41  C   UNL     1      -6.260   7.645  63.904  1.00  0.00    -0.053 C  
HETATM   42  C   UNL     1     -10.842   8.151  71.466  1.00  0.00    -0.290 C  
HETATM   43  C   UNL     1      -6.673   4.261  67.617  1.00  0.00    -0.047 C  
HETATM   44  C   UNL     1      -8.482   5.894  68.031  1.00  0.00    -0.110 C  
HETATM   45  C   UNL     1     -12.177   8.888  71.414  1.00  0.00    -0.374 C  
HETATM   46  C   UNL     1      -7.702   3.484  66.780  1.00  0.00    -0.080 C  
HETATM   47  C   UNL     1      -7.658   3.669  65.445  1.00  0.00    -0.078 C  
HETATM   48  C   UNL     1      -8.805   2.749  67.499  1.00  0.00    -0.164 C  
HETATM   49  C   UNL     1      -8.619   3.294  64.343  1.00  0.00    -0.093 C  
HETATM   50  C   UNL     1      -7.940   3.937  63.117  1.00  0.00    -0.079 C  
HETATM   51  C   UNL     1     -10.111   3.695  64.484  1.00  0.00    -0.186 C  
HETATM   52  C   UNL     1      -6.794   6.419  62.920  1.00  0.00    -0.042 C  
HETATM   53  C   UNL     1      -8.041   5.461  62.860  1.00  0.00    -0.101 C  
HETATM   54  O   UNL     1      -7.238   3.249  62.367  1.00  0.00    -0.038 OA 
BRANCH  33  55
HETATM   55  O   UNL     1      -7.228   5.078  71.607  1.00  0.00    -0.065 OA 
HETATM   56  C   UNL     1      -6.231   4.079  71.517  1.00  0.00    -0.014 C  
ENDBRANCH  33  55
BRANCH  34  57
HETATM   57  O   UNL     1      -7.466   8.474  73.153  1.00  0.00    -0.298 OA 
HETATM   58  C   UNL     1      -7.065   7.802  74.343  1.00  0.00    -0.132 C  
ENDBRANCH  34  57
BRANCH  51  59
HETATM   59  C   UNL     1     -11.115   3.125  63.495  1.00  0.00     0.043 C  
HETATM   60  C   UNL     1     -11.043   1.969  62.823  1.00  0.00    -0.238 C  
ENDBRANCH  51  59
ENDBRANCH  13  14
ENDBRANCH   5  11
ENDBRANCH   2   3
TORSDOF 6
ENDMDL
MODEL        4
REMARK 921   NORMALIZED FREE ENERGY PREDICTED BY IDOCK:   -2.96 KCAL/MOL
REMARK 922        TOTAL FREE ENERGY PREDICTED BY IDOCK:   -5.59 KCAL/MOL
REMARK 923 INTER-LIGAND FREE ENERGY PREDICTED BY IDOCK:   -5.51 KCAL/MOL
REMARK 924 INTRA-LIGAND FREE ENERGY PREDICTED BY IDOCK:   -0.08 KCAL/MOL
REMARK 927      BINDING AFFINITY PREDICTED BY RF-SCORE:    0.00 PKD
ROOT
HETATM    1  C   UNL     1     -10.323  17.881  66.016  1.00  0.00    -0.318 C  
HETATM    2  O   UNL     1      -9.078  18.568  65.953  1.00  0.00    -0.477 OA 
ENDROOT
BRANCH   2   3
HETATM    3  C   UNL     1      -8.014  17.871  66.610  1.00  0.00    -0.249 C  
HETATM    4  C   UNL     1      -8.291  16.355  66.655  1.00  0.00    -0.305 C  
HETATM    5  C   UNL     1      -7.184  15.738  67.475  1.00  0.00    -0.212 C  
HETATM    6  O   UNL     1      -7.089  19.742  67.915  1.00  0.00    -0.258 OA 
HETATM    7  C   UNL     1      -7.401  16.167  68.936  1.00  0.00    -0.186 C  
HETATM    8  C   UNL     1      -7.789  18.495  68.028  1.00  0.00    -0.274 C  
HETATM    9  C   UNL     1      -6.987  17.624  69.013  1.00  0.00    -0.233 C  
HETATM   10  H   UNL     1      -6.952  20.121  68.775  1.00  0.00     0.000 HD 
BRANCH   5  11
HETATM   11  C   UNL     1      -6.939  14.267  67.341  1.00  0.00    -0.077 C  
HETATM   12  C   UNL     1      -8.430  13.407  69.230  1.00  0.00     0.734 C  
HETATM   13  C   UNL     1      -7.898  13.461  67.853  1.00  0.00    -0.152 C  
BRANCH  13  14
HETATM   14  C   UNL     1      -8.757  12.704  66.860  1.00  0.00    -0.175 C  
HETATM   15  C   UNL     1      -8.158  10.400  66.396  1.00  0.00    -0.129 C  
HETATM   16  O   UNL     1      -8.739  11.297  67.267  1.00  0.00    -0.140 OA 
HETATM   17  O   UNL     1      -8.047  10.591  65.184  1.00  0.00    -0.155 OA 
HETATM   18  C   UNL     1      -7.680   9.081  67.115  1.00  0.00    -0.099 C  
HETATM   19  C   UNL     1      -7.799   7.868  66.133  1.00  0.00    -0.094 C  
HETATM   20  C   UNL     1      -6.564   7.660  65.240  1.00  0.00    -0.044 C  
HETATM   21  C   UNL     1      -5.311   7.539  66.097  1.00  0.00    -0.025 C  
HETATM   22  C   UNL     1      -5.173   8.805  66.928  1.00  0.00    -0.039 C  
HETATM   23  N   UNL     1      -6.339   9.001  67.794  1.00  0.00    -0.055 N  
HETATM   24  C   UNL     1      -6.145   8.633  69.139  1.00  0.00    -0.043 C  
HETATM   25  C   UNL     1      -7.043   9.196  70.214  1.00  0.00    -0.063 C  
HETATM   26  O   UNL     1      -5.155   8.015  69.530  1.00  0.00    -0.025 OA 
HETATM   27  C   UNL     1      -7.656   8.285  71.329  1.00  0.00    -0.083 C  
HETATM   28  O   UNL     1      -7.235  10.413  70.190  1.00  0.00    -0.160 OA 
HETATM   29  O   UNL     1      -8.976   7.868  71.004  1.00  0.00    -0.139 OA 
HETATM   30  O   UNL     1      -7.819   9.181  72.455  1.00  0.00    -0.192 OA 
HETATM   31  C   UNL     1      -9.099   6.879  69.993  1.00  0.00    -0.145 C  
HETATM   32  H   UNL     1      -8.191   8.629  73.132  1.00  0.00     0.000 HD 
HETATM   33  C   UNL     1     -10.608   6.763  69.573  1.00  0.00    -0.232 C  
HETATM   34  C   UNL     1      -8.399   5.585  70.468  1.00  0.00    -0.116 C  
HETATM   35  C   UNL     1     -10.130  14.058  65.211  1.00  0.00    -0.345 C  
HETATM   36  H   UNL     1     -12.262  14.307  66.038  1.00  0.00     0.000 HD 
HETATM   37  C   UNL     1     -11.232   8.101  69.014  1.00  0.00     0.380 C  
HETATM   38  C   UNL     1      -6.957   5.889  70.945  1.00  0.00    -0.067 C  
HETATM   39  O   UNL     1     -12.348  14.565  66.949  1.00  0.00    -0.319 OA 
HETATM   40  C   UNL     1     -11.529   9.214  70.062  1.00  0.00    -0.034 C  
HETATM   41  C   UNL     1     -10.216  13.397  66.658  1.00  0.00    -0.274 C  
HETATM   42  C   UNL     1      -6.955   7.064  71.921  1.00  0.00    -0.065 C  
HETATM   43  C   UNL     1     -12.660  10.186  69.678  1.00  0.00     0.369 C  
HETATM   44  C   UNL     1     -10.293  10.054  70.380  1.00  0.00    -0.268 C  
HETATM   45  C   UNL     1      -5.621   7.355  72.602  1.00  0.00    -0.037 C  
HETATM   46  C   UNL     1     -12.806  11.300  70.727  1.00  0.00    -0.279 C  
HETATM   47  C   UNL     1     -12.740  12.568  70.274  1.00  0.00     0.115 C  
HETATM   48  C   UNL     1     -12.798  10.918  72.186  1.00  0.00    -0.166 C  
HETATM   49  C   UNL     1     -12.597  13.888  70.991  1.00  0.00    -0.444 C  
HETATM   50  C   UNL     1     -12.480  14.866  69.804  1.00  0.00    -0.185 C  
HETATM   51  C   UNL     1     -11.452  14.057  72.025  1.00  0.00     1.504 C  
HETATM   52  C   UNL     1     -11.012  14.579  67.508  1.00  0.00    -0.293 C  
HETATM   53  C   UNL     1     -11.154  15.006  69.015  1.00  0.00    -0.270 C  
HETATM   54  O   UNL     1     -13.474  15.493  69.420  1.00  0.00     1.006 OA 
BRANCH  33  55
HETATM   55  O   UNL     1     -11.474   6.371  70.649  1.00  0.00    -0.334 OA 
HETATM   56  C   UNL     1     -10.908   5.519  71.624  1.00  0.00    -0.204 C  
ENDBRANCH  33  55
BRANCH  34  57
HETATM   57  O   UNL     1      -8.408   4.630  69.408  1.00  0.00    -0.075 OA 
HETATM   58  C   UNL     1      -7.495   4.943  68.359  1.00  0.00    -0.074 C  
ENDBRANCH  34  57
BRANCH  51  59
HETATM   59  C   UNL     1     -11.444  15.295  72.908  1.00  0.00    -0.256 C  
HETATM   60  C   UNL     1     -12.288  15.603  73.900  1.00  0.00    -0.742 C  
ENDBRANCH  51  59
ENDBRANCH  13  14
ENDBRANCH   5  11
ENDBRANCH   2   3
TORSDOF 6
ENDMDL
MODEL        5
REMARK 921   NORMALIZED FREE ENERGY PREDICTED BY IDOCK:   -1.83 KCAL/MOL
REMARK 922        TOTAL FREE ENERGY PREDICTED BY IDOCK:   -4.08 KCAL/MOL
REMARK 923 INTER-LIGAND FREE ENERGY PREDICTED BY IDOCK:   -7.92 KCAL/MOL
REMARK 924 INTRA-LIGAND FREE ENERGY PREDICTED BY IDOCK:    3.84 KCAL/MOL
REMARK 927      BINDING AFFINITY PREDICTED BY RF-SCORE:    0.00 PKD
ROOT
HETATM    1  C   UNL     1     -14.411   7.450  71.379  1.00  0.00    -0.367 C  
HETATM    2  O   UNL     1     -13.158   6.915  71.792  1.00  0.00    -0.356 OA 
ENDROOT
BRANCH   2   3
HETATM    3  C   UNL     1     -12.095   7.194  70.876  1.00  0.00    -0.326 C  
HETATM    4  C   UNL     1     -11.356   5.902  70.475  1.00  0.00    -0.215 C  
HETATM    5  C   UNL     1     -10.184   6.321  69.619  1.00  0.00    -0.233 C  
HETATM    6  O   UNL     1     -11.751   9.571  71.414  1.00  0.00    -0.336 OA 
HETATM    7  C   UNL     1      -9.171   7.021  70.541  1.00  0.00    -0.159 C  
HETATM    8  C   UNL     1     -11.147   8.272  71.501  1.00  0.00    -0.259 C  
HETATM    9  C   UNL     1      -9.756   8.386  70.851  1.00  0.00    -0.212 C  
HETATM   10  H   UNL     1     -11.176  10.225  71.794  1.00  0.00     0.000 HD 
BRANCH   5  11
HETATM   11  C   UNL     1      -9.544   5.291  68.742  1.00  0.00    -0.187 C  
HETATM   12  C   UNL     1     -10.386   6.082  66.462  1.00  0.00    -0.209 C  
HETATM   13  C   UNL     1      -9.375   5.643  67.447  1.00  0.00    -0.113 C  
BRANCH  13  14
HETATM   14  C   UNL     1      -7.955   5.907  66.989  1.00  0.00    -0.102 C  
HETATM   15  C   UNL     1      -7.540   7.961  65.768  1.00  0.00    -0.083 C  
HETATM   16  O   UNL     1      -7.771   7.360  66.987  1.00  0.00    -0.106 OA 
HETATM   17  O   UNL     1      -7.067   7.377  64.792  1.00  0.00    -0.056 OA 
HETATM   18  C   UNL     1      -7.914   9.492  65.768  1.00  0.00    -0.111 C  
HETATM   19  C   UNL     1      -6.967  10.269  64.793  1.00  0.00    -0.093 C  
HETATM   20  C   UNL     1      -7.454  10.296  63.334  1.00  0.00    -0.107 C  
HETATM   21  C   UNL     1      -8.871  10.847  63.264  1.00  0.00    -0.153 C  
HETATM   22  C   UNL     1      -9.771   9.971  64.120  1.00  0.00    -0.128 C  
HETATM   23  N   UNL     1      -9.323   9.954  65.516  1.00  0.00    -0.203 N  
HETATM   24  C   UNL     1     -10.060  10.785  66.382  1.00  0.00    -0.227 C  
HETATM   25  C   UNL     1     -10.042  10.529  67.870  1.00  0.00    -0.176 C  
HETATM   26  O   UNL     1     -10.884  11.608  65.985  1.00  0.00    -0.276 OA 
HETATM   27  C   UNL     1      -9.851  11.692  68.898  1.00  0.00    -0.040 C  
HETATM   28  O   UNL     1     -10.225   9.365  68.231  1.00  0.00    -0.180 OA 
HETATM   29  O   UNL     1      -8.494  11.818  69.307  1.00  0.00     0.255 OA 
HETATM   30  O   UNL     1     -10.550  11.228  70.079  1.00  0.00    -0.396 OA 
HETATM   31  C   UNL     1      -7.594  12.376  68.362  1.00  0.00    -0.129 C  
HETATM   32  H   UNL     1     -10.434  11.935  70.703  1.00  0.00     0.000 HD 
HETATM   33  C   UNL     1      -6.124  12.167  68.872  1.00  0.00    -0.072 C  
HETATM   34  C   UNL     1      -8.031  13.825  68.047  1.00  0.00    -0.156 C  
HETATM   35  C   UNL     1      -6.392   3.920  66.779  1.00  0.00    -0.036 C  
HETATM   36  H   UNL     1      -5.157   3.729  68.710  1.00  0.00     0.000 HD 
HETATM   37  C   UNL     1      -5.719  10.656  69.086  1.00  0.00    -0.040 C  
HETATM   38  C   UNL     1      -9.531  13.871  67.663  1.00  0.00    -0.212 C  
HETATM   39  O   UNL     1      -5.625   3.794  69.535  1.00  0.00    -0.015 OA 
HETATM   40  C   UNL     1      -6.333   9.948  70.330  1.00  0.00    -0.094 C  
HETATM   41  C   UNL     1      -6.869   5.025  67.821  1.00  0.00    -0.060 C  
HETATM   42  C   UNL     1     -10.368  13.114  68.692  1.00  0.00    -0.207 C  
HETATM   43  C   UNL     1      -5.499   8.781  70.892  1.00  0.00    -0.029 C  
HETATM   44  C   UNL     1      -7.739   9.416  70.058  1.00  0.00    -0.124 C  
HETATM   45  C   UNL     1     -11.881  13.231  68.527  1.00  0.00    -0.384 C  
HETATM   46  C   UNL     1      -6.237   8.089  72.050  1.00  0.00    -0.045 C  
HETATM   47  C   UNL     1      -6.426   6.759  71.937  1.00  0.00    -0.049 C  
HETATM   48  C   UNL     1      -6.877   8.949  73.111  1.00  0.00     0.195 C  
HETATM   49  C   UNL     1      -7.287   5.793  72.713  1.00  0.00    -0.092 C  
HETATM   50  C   UNL     1      -7.059   4.485  71.928  1.00  0.00    -0.056 C  
HETATM   51  C   UNL     1      -8.791   6.123  72.908  1.00  0.00    -0.125 C  
HETATM   52  C   UNL     1      -6.997   4.127  69.211  1.00  0.00    -0.046 C  
HETATM   53  C   UNL     1      -7.773   4.234  70.576  1.00  0.00    -0.052 C  
HETATM   54  O   UNL     1      -6.239   3.655  72.335  1.00  0.00    -0.012 OA 
BRANCH  33  55
HETATM   55  O   UNL     1      -5.856  12.804  70.130  1.00  0.00    -0.135 OA 
HETATM   56  C   UNL     1      -5.540  14.181  70.074  1.00  0.00    -0.114 C  
ENDBRANCH  33  55
BRANCH  34  57
HETATM   57  O   UNL     1      -7.209  14.347  67.005  1.00  0.00    -0.057 OA 
HETATM   58  C   UNL     1      -7.104  15.768  67.027  1.00  0.00    -0.134 C  
ENDBRANCH  34  57
BRANCH  51  59
HETATM   59  C   UNL     1      -9.604   5.276  73.873  1.00  0.00    -0.141 C  
HETATM   60  C   UNL     1     -10.741   4.612  73.629  1.00  0.00    -0.346 C  
ENDBRANCH  51  59
ENDBRANCH  13  14
ENDBRANCH   5  11
ENDBRANCH   2   3
TORSDOF 6
ENDMDL
MODEL        6
REMARK 921   NORMALIZED FREE ENERGY PREDICTED BY IDOCK:   -1.59 KCAL/MOL
REMARK 922        TOTAL FREE ENERGY PREDICTED BY IDOCK:   -3.74 KCAL/MOL
REMARK 923 INTER-LIGAND FREE ENERGY PREDICTED BY IDOCK:   -3.46 KCAL/MOL
REMARK 924 INTRA-LIGAND FREE ENERGY PREDICTED BY IDOCK:   -0.28 KCAL/MOL
REMARK 927      BINDING AFFINITY PREDICTED BY RF-SCORE:    0.00 PKD
ROOT
HETATM    1  C   UNL     1     -10.126   6.849  74.374  1.00  0.00    -0.162 C  
HETATM    2  O   UNL     1      -9.787   5.876  73.391  1.00  0.00    -0.155 OA 
ENDROOT
BRANCH   2   3
HETATM    3  C   UNL     1     -10.474   6.065  72.150  1.00  0.00    -0.206 C  
HETATM    4  C   UNL     1      -9.877   7.246  71.361  1.00  0.00    -0.191 C  
HETATM    5  C   UNL     1     -10.750   7.439  70.143  1.00  0.00    -0.254 C  
HETATM    6  O   UNL     1     -12.594   4.951  72.721  1.00  0.00     0.034 OA 
HETATM    7  C   UNL     1     -12.097   7.999  70.629  1.00  0.00     0.013 C  
HETATM    8  C   UNL     1     -12.007   6.227  72.430  1.00  0.00    -0.188 C  
HETATM    9  C   UNL     1     -12.827   6.839  71.279  1.00  0.00    -0.260 C  
HETATM   10  H   UNL     1     -13.523   5.049  72.891  1.00  0.00     0.000 HD 
BRANCH   5  11
HETATM   11  C   UNL     1     -10.192   8.209  68.988  1.00  0.00    -0.228 C  
HETATM   12  C   UNL     1     -10.486  10.589  69.872  1.00  0.00    -0.213 C  
HETATM   13  C   UNL     1      -9.752   9.457  69.268  1.00  0.00    -0.173 C  
BRANCH  13  14
HETATM   14  C   UNL     1      -8.253   9.677  69.240  1.00  0.00    -0.123 C  
HETATM   15  C   UNL     1      -6.835   7.710  69.304  1.00  0.00    -0.052 C  
HETATM   16  O   UNL     1      -7.665   8.521  68.560  1.00  0.00    -0.100 OA 
HETATM   17  O   UNL     1      -6.229   8.084  70.310  1.00  0.00    -0.032 OA 
HETATM   18  C   UNL     1      -6.717   6.255  68.710  1.00  0.00    -0.061 C  
HETATM   19  C   UNL     1      -5.295   5.674  69.008  1.00  0.00    -0.004 C  
HETATM   20  C   UNL     1      -5.178   4.972  70.372  1.00  0.00    -0.004 C  
HETATM   21  C   UNL     1      -6.241   3.889  70.498  1.00  0.00    -0.019 C  
HETATM   22  C   UNL     1      -7.608   4.536  70.336  1.00  0.00    -0.053 C  
HETATM   23  N   UNL     1      -7.732   5.192  69.031  1.00  0.00    -0.080 N  
HETATM   24  C   UNL     1      -8.460   4.463  68.070  1.00  0.00    -0.094 C  
HETATM   25  C   UNL     1      -9.067   5.173  66.885  1.00  0.00    -0.116 C  
HETATM   26  O   UNL     1      -8.799   3.292  68.232  1.00  0.00    -0.096 OA 
HETATM   27  C   UNL     1      -8.938   4.602  65.434  1.00  0.00    -0.145 C  
HETATM   28  O   UNL     1      -9.703   6.202  67.125  1.00  0.00    -0.124 OA 
HETATM   29  O   UNL     1      -7.856   5.195  64.728  1.00  0.00    -0.086 OA 
HETATM   30  O   UNL     1     -10.127   5.089  64.765  1.00  0.00    -0.347 OA 
HETATM   31  C   UNL     1      -6.550   4.789  65.107  1.00  0.00    -0.044 C  
HETATM   32  H   UNL     1     -10.048   4.742  63.883  1.00  0.00     0.000 HD 
HETATM   33  C   UNL     1      -5.502   5.748  64.436  1.00  0.00    -0.017 C  
HETATM   34  C   UNL     1      -6.395   3.276  64.836  1.00  0.00    -0.024 C  
HETATM   35  C   UNL     1      -7.377  11.946  69.961  1.00  0.00     1.151 C  
HETATM   36  H   UNL     1      -7.056  13.254  68.096  1.00  0.00     0.000 HD 
HETATM   37  C   UNL     1      -5.665   7.268  64.830  1.00  0.00    -0.037 C  
HETATM   38  C   UNL     1      -7.563   2.485  65.476  1.00  0.00    -0.076 C  
HETATM   39  O   UNL     1      -7.755  13.272  67.452  1.00  0.00    -0.161 OA 
HETATM   40  C   UNL     1      -6.873   8.017  64.194  1.00  0.00    -0.066 C  
HETATM   41  C   UNL     1      -7.859  11.150  68.669  1.00  0.00    -0.138 C  
HETATM   42  C   UNL     1      -8.903   3.113  65.098  1.00  0.00    -0.129 C  
HETATM   43  C   UNL     1      -6.687   9.539  64.039  1.00  0.00    -0.102 C  
HETATM   44  C   UNL     1      -8.168   7.793  64.972  1.00  0.00    -0.123 C  
HETATM   45  C   UNL     1     -10.142   2.328  65.519  1.00  0.00     0.970 C  
HETATM   46  C   UNL     1      -7.968  10.195  63.498  1.00  0.00    -0.161 C  
HETATM   47  C   UNL     1      -8.481  11.208  64.225  1.00  0.00     0.341 C  
HETATM   48  C   UNL     1      -8.671   9.545  62.334  1.00  0.00    -0.236 C  
HETATM   49  C   UNL     1      -9.810  11.920  64.164  1.00  0.00    -0.233 C  
HETATM   50  C   UNL     1      -9.701  12.868  65.376  1.00  0.00    -0.027 C  
HETATM   51  C   UNL     1     -11.112  11.076  64.176  1.00  0.00     0.002 C  
HETATM   52  C   UNL     1      -8.748  12.312  67.885  1.00  0.00    -0.177 C  
HETATM   53  C   UNL     1      -9.905  12.342  66.819  1.00  0.00    -0.218 C  
HETATM   54  O   UNL     1      -9.370  14.047  65.210  1.00  0.00     0.201 OA 
BRANCH  33  55
HETATM   55  O   UNL     1      -5.544   5.729  63.002  1.00  0.00    -0.016 OA 
HETATM   56  C   UNL     1      -5.414   4.460  62.392  1.00  0.00    -0.009 C  
ENDBRANCH  33  55
BRANCH  34  57
HETATM   57  O   UNL     1      -5.132   2.836  65.334  1.00  0.00    -0.007 OA 
HETATM   58  C   UNL     1      -5.128   2.605  66.739  1.00  0.00    -0.005 C  
ENDBRANCH  34  57
BRANCH  51  59
HETATM   59  C   UNL     1     -12.433  11.769  63.887  1.00  0.00    -0.380 C  
HETATM   60  C   UNL     1     -12.626  12.978  63.345  1.00  0.00    -0.224 C  
ENDBRANCH  51  59
ENDBRANCH  13  14
ENDBRANCH   5  11
ENDBRANCH   2   3
TORSDOF 6
ENDMDL
MODEL        7
REMARK 921   NORMALIZED FREE ENERGY PREDICTED BY IDOCK:    0.79 KCAL/MOL
REMARK 922        TOTAL FREE ENERGY PREDICTED BY IDOCK:   -0.53 KCAL/MOL
REMARK 923 INTER-LIGAND FREE ENERGY PREDICTED BY IDOCK:   -4.12 KCAL/MOL
REMARK 924 INTRA-LIGAND FREE ENERGY PREDICTED BY IDOCK:    3.58 KCAL/MOL
REMARK 927      BINDING AFFINITY PREDICTED BY RF-SCORE:    0.00 PKD
ROOT
HETATM    1  C   UNL     1      -8.849  10.618  62.387  1.00  0.00    -0.282 C  
HETATM    2  O   UNL     1      -9.433   9.874  63.452  1.00  0.00    -0.265 OA 
ENDROOT
BRANCH   2   3
HETATM    3  C   UNL     1      -9.236  10.477  64.735  1.00  0.00    -0.227 C  
HETATM    4  C   UNL     1      -8.294   9.626  65.608  1.00  0.00    -0.133 C  
HETATM    5  C   UNL     1      -8.261  10.278  66.971  1.00  0.00    -0.122 C  
HETATM    6  O   UNL     1     -11.265  11.871  64.809  1.00  0.00    -0.308 OA 
HETATM    7  C   UNL     1      -9.633  10.045  67.624  1.00  0.00    -0.171 C  
HETATM    8  C   UNL     1     -10.630  10.730  65.403  1.00  0.00    -0.154 C  
HETATM    9  C   UNL     1     -10.598  10.982  66.922  1.00  0.00    -0.307 C  
HETATM   10  H   UNL     1     -12.110  12.024  65.214  1.00  0.00     0.000 HD 
BRANCH   5  11
HETATM   11  C   UNL     1      -7.126   9.942  67.887  1.00  0.00    -0.086 C  
HETATM   12  C   UNL     1      -5.425  11.693  67.128  1.00  0.00    -0.108 C  
HETATM   13  C   UNL     1      -6.232  10.934  68.107  1.00  0.00    -0.049 C  
BRANCH  13  14
HETATM   14  C   UNL     1      -6.241  11.571  69.482  1.00  0.00    -0.110 C  
HETATM   15  C   UNL     1      -6.508  13.979  69.596  1.00  0.00    -0.122 C  
HETATM   16  O   UNL     1      -7.104  12.751  69.400  1.00  0.00     0.026 OA 
HETATM   17  O   UNL     1      -5.462  14.143  70.226  1.00  0.00    -0.099 OA 
HETATM   18  C   UNL     1      -7.330  15.160  68.953  1.00  0.00    -0.142 C  
HETATM   19  C   UNL     1      -7.144  16.460  69.803  1.00  0.00     0.148 C  
HETATM   20  C   UNL     1      -5.912  17.294  69.412  1.00  0.00    -0.228 C  
HETATM   21  C   UNL     1      -5.949  17.622  67.926  1.00  0.00    -0.155 C  
HETATM   22  C   UNL     1      -5.991  16.317  67.146  1.00  0.00    -0.093 C  
HETATM   23  N   UNL     1      -7.172  15.525  67.502  1.00  0.00    -0.176 N  
HETATM   24  C   UNL     1      -8.230  15.593  66.574  1.00  0.00    -0.192 C  
HETATM   25  C   UNL     1      -9.279  14.508  66.544  1.00  0.00    -0.255 C  
HETATM   26  O   UNL     1      -8.255  16.395  65.642  1.00  0.00    -0.036 OA 
HETATM   27  C   UNL     1     -10.804  14.847  66.457  1.00  0.00    -0.322 C  
HETATM   28  O   UNL     1      -8.871  13.345  66.552  1.00  0.00    -0.126 OA 
HETATM   29  O   UNL     1     -11.418  14.852  67.740  1.00  0.00    -0.318 OA 
HETATM   30  O   UNL     1     -11.374  13.700  65.780  1.00  0.00    -0.302 OA 
HETATM   31  C   UNL     1     -11.122  15.956  68.583  1.00  0.00    -0.337 C  
HETATM   32  H   UNL     1     -12.300  13.906  65.727  1.00  0.00     0.000 HD 
HETATM   33  C   UNL     1     -11.642  15.646  70.032  1.00  0.00    -0.350 C  
HETATM   34  C   UNL     1     -11.634  17.251  67.912  1.00  0.00     0.758 C  
HETATM   35  C   UNL     1      -5.174  10.280  71.388  1.00  0.00    -0.080 C  
HETATM   36  H   UNL     1      -6.809   9.117  72.514  1.00  0.00     0.000 HD 
HETATM   37  C   UNL     1     -11.008  14.358  70.688  1.00  0.00     0.297 C  
HETATM   38  C   UNL     1     -11.117  17.352  66.456  1.00  0.00     0.444 C  
HETATM   39  O   UNL     1      -7.434   8.628  71.990  1.00  0.00    -0.199 OA 
HETATM   40  C   UNL     1     -11.502  12.989  70.135  1.00  0.00    -0.009 C  
HETATM   41  C   UNL     1      -6.572  10.492  70.655  1.00  0.00     0.058 C  
HETATM   42  C   UNL     1     -11.375  16.048  65.706  1.00  0.00     0.230 C  
HETATM   43  C   UNL     1     -11.413  11.814  71.128  1.00  0.00     1.487 C  
HETATM   44  C   UNL     1     -10.757  12.573  68.868  1.00  0.00    -0.202 C  
HETATM   45  C   UNL     1     -11.072  16.074  64.211  1.00  0.00     0.043 C  
HETATM   46  C   UNL     1     -11.828  10.495  70.456  1.00  0.00    -0.442 C  
HETATM   47  C   UNL     1     -10.942   9.481  70.518  1.00  0.00    -0.348 C  
HETATM   48  C   UNL     1     -13.074  10.483  69.607  1.00  0.00     0.747 C  
HETATM   49  C   UNL     1     -10.874   8.157  69.798  1.00  0.00    -0.190 C  
HETATM   50  C   UNL     1      -9.527   7.604  70.307  1.00  0.00    -0.161 C  
HETATM   51  C   UNL     1     -10.983   8.141  68.250  1.00  0.00     0.163 C  
HETATM   52  C   UNL     1      -7.150   8.936  70.604  1.00  0.00    -0.071 C  
HETATM   53  C   UNL     1      -8.185   8.128  69.737  1.00  0.00    -0.122 C  
HETATM   54  O   UNL     1      -9.505   6.790  71.237  1.00  0.00    -0.165 OA 
BRANCH  33  55
HETATM   55  O   UNL     1     -13.060  15.437  70.100  1.00  0.00    -0.183 OA 
HETATM   56  C   UNL     1     -13.627  15.431  71.396  1.00  0.00    -0.518 C  
ENDBRANCH  33  55
BRANCH  34  57
HETATM   57  O   UNL     1     -11.228  18.375  68.691  1.00  0.00     0.720 OA 
HETATM   58  C   UNL     1      -9.828  18.631  68.624  1.00  0.00    -0.385 C  
ENDBRANCH  34  57
BRANCH  51  59
HETATM   59  C   UNL     1     -11.143   6.804  67.544  1.00  0.00    -0.340 C  
HETATM   60  C   UNL     1     -10.184   5.937  67.197  1.00  0.00    -0.247 C  
ENDBRANCH  51  59
ENDBRANCH  13  14
ENDBRANCH   5  11
ENDBRANCH   2   3
TORSDOF 6
ENDMDL
MODEL        8
REMARK 921   NORMALIZED FREE ENERGY PREDICTED BY IDOCK:    1.93 KCAL/MOL
REMARK 922        TOTAL FREE ENERGY PREDICTED BY IDOCK:    1.00 KCAL/MOL
REMARK 923 INTER-LIGAND FREE ENERGY PREDICTED BY IDOCK:    2.10 KCAL/MOL
REMARK 924 INTRA-LIGAND FREE ENERGY PREDICTED BY IDOCK:   -1.10 KCAL/MOL
REMARK 927      BINDING AFFINITY PREDICTED BY RF-SCORE:    0.00 PKD
ROOT
HETATM    1  C   UNL     1     -14.152  13.648  72.899  1.00  0.00     0.472 C  
HETATM    2  O   UNL     1     -14.403  14.196  71.609  1.00  0.00    -0.398 OA 
ENDROOT
BRANCH   2   3
HETATM    3  C   UNL     1     -13.412  13.838  70.641  1.00  0.00     0.316 C  
HETATM    4  C   UNL     1     -12.376  12.868  71.242  1.00  0.00    -0.179 C  
HETATM    5  C   UNL     1     -11.315  12.661  70.186  1.00  0.00     0.180 C  
HETATM    6  O   UNL     1     -13.660  15.760  69.123  1.00  0.00     1.210 OA 
HETATM    7  C   UNL     1     -10.524  13.974  70.068  1.00  0.00     0.663 C  
HETATM    8  C   UNL     1     -12.767  15.141  70.059  1.00  0.00    -0.164 C  
HETATM    9  C   UNL     1     -11.426  14.945  69.329  1.00  0.00    -0.324 C  
HETATM   10  H   UNL     1     -13.269  16.551  68.770  1.00  0.00     0.000 HD 
BRANCH   5  11
HETATM   11  C   UNL     1     -10.424  11.464  70.305  1.00  0.00     1.252 C  
HETATM   12  C   UNL     1     -10.498  10.630  67.890  1.00  0.00    -0.243 C  
HETATM   13  C   UNL     1      -9.852  11.039  69.155  1.00  0.00    -0.117 C  
BRANCH  13  14
HETATM   14  C   UNL     1      -8.361  11.267  69.007  1.00  0.00    -0.008 C  
HETATM   15  C   UNL     1      -6.894   9.390  69.460  1.00  0.00    -0.049 C  
HETATM   16  O   UNL     1      -7.774   9.993  68.587  1.00  0.00    -0.082 OA 
HETATM   17  O   UNL     1      -6.256   9.997  70.322  1.00  0.00    -0.069 OA 
HETATM   18  C   UNL     1      -6.765   7.839  69.214  1.00  0.00    -0.044 C  
HETATM   19  C   UNL     1      -5.317   7.363  69.573  1.00  0.00    -0.015 C  
HETATM   20  C   UNL     1      -5.127   7.000  71.055  1.00  0.00    -0.023 C  
HETATM   21  C   UNL     1      -6.156   5.961  71.478  1.00  0.00    -0.038 C  
HETATM   22  C   UNL     1      -7.544   6.533  71.235  1.00  0.00    -0.094 C  
HETATM   23  N   UNL     1      -7.739   6.866  69.820  1.00  0.00    -0.110 N  
HETATM   24  C   UNL     1      -8.488   5.923  69.089  1.00  0.00    -0.112 C  
HETATM   25  C   UNL     1      -9.162   6.328  67.801  1.00  0.00    -0.115 C  
HETATM   26  O   UNL     1      -8.791   4.816  69.533  1.00  0.00    -0.084 OA 
HETATM   27  C   UNL     1      -9.079   5.437  66.518  1.00  0.00    -0.135 C  
HETATM   28  O   UNL     1      -9.812   7.375  67.825  1.00  0.00    -0.142 OA 
HETATM   29  O   UNL     1      -8.042   5.865  65.643  1.00  0.00    -0.111 OA 
HETATM   30  O   UNL     1     -10.306   5.737  65.809  1.00  0.00    -0.399 OA 
HETATM   31  C   UNL     1      -6.712   5.577  66.046  1.00  0.00    -0.056 C  
HETATM   32  H   UNL     1     -10.256   5.196  65.030  1.00  0.00     0.000 HD 
HETATM   33  C   UNL     1      -5.717   6.368  65.123  1.00  0.00    -0.022 C  
HETATM   34  C   UNL     1      -6.531   4.045  66.126  1.00  0.00    -0.037 C  
HETATM   35  C   UNL     1      -7.513  13.655  69.141  1.00  0.00     0.098 C  
HETATM   36  H   UNL     1      -7.302  14.497  67.011  1.00  0.00     0.000 HD 
HETATM   37  C   UNL     1      -5.901   7.936  65.161  1.00  0.00    -0.037 C  
HETATM   38  C   UNL     1      -7.651   3.408  66.986  1.00  0.00    -0.079 C  
HETATM   39  O   UNL     1      -8.028  14.355  66.413  1.00  0.00     0.555 OA 
HETATM   40  C   UNL     1      -7.153   8.499  64.425  1.00  0.00    -0.082 C  
HETATM   41  C   UNL     1      -8.029  12.573  68.093  1.00  0.00    -0.157 C  
HETATM   42  C   UNL     1      -9.021   3.911  66.535  1.00  0.00    -0.137 C  
HETATM   43  C   UNL     1      -7.011   9.946  63.913  1.00  0.00    -0.124 C  
HETATM   44  C   UNL     1      -8.409   8.443  65.293  1.00  0.00    -0.169 C  
HETATM   45  C   UNL     1     -10.222   3.228  67.184  1.00  0.00     1.270 C  
HETATM   46  C   UNL     1      -8.329  10.439  63.294  1.00  0.00    -0.163 C  
HETATM   47  C   UNL     1      -8.836  11.586  63.790  1.00  0.00     0.349 C  
HETATM   48  C   UNL     1      -9.064   9.526  62.347  1.00  0.00    -0.257 C  
HETATM   49  C   UNL     1     -10.184  12.245  63.628  1.00  0.00    -0.430 C  
HETATM   50  C   UNL     1     -10.048  13.451  64.580  1.00  0.00    -0.229 C  
HETATM   51  C   UNL     1     -11.463  11.408  63.895  1.00  0.00    -0.232 C  
HETATM   52  C   UNL     1      -8.978  13.507  67.103  1.00  0.00    -0.227 C  
HETATM   53  C   UNL     1     -10.179  13.272  66.114  1.00  0.00    -0.296 C  
HETATM   54  O   UNL     1      -9.754  14.564  64.130  1.00  0.00     0.986 OA 
BRANCH  33  55
HETATM   55  O   UNL     1      -5.818   6.016  63.736  1.00  0.00    -0.021 OA 
HETATM   56  C   UNL     1      -5.255   4.772  63.368  1.00  0.00    -0.009 C  
ENDBRANCH  33  55
BRANCH  34  57
HETATM   57  O   UNL     1      -5.238   3.751  66.653  1.00  0.00    -0.011 OA 
HETATM   58  C   UNL     1      -5.150   3.925  68.064  1.00  0.00    -0.007 C  
ENDBRANCH  34  57
BRANCH  51  59
HETATM   59  C   UNL     1     -12.812  11.997  63.515  1.00  0.00    -0.472 C  
HETATM   60  C   UNL     1     -13.405  13.087  64.016  1.00  0.00     1.063 C  
ENDBRANCH  51  59
ENDBRANCH  13  14
ENDBRANCH   5  11
ENDBRANCH   2   3
TORSDOF 6
ENDMDL
MODEL        9
REMARK 921   NORMALIZED FREE ENERGY PREDICTED BY IDOCK:    2.08 KCAL/MOL
REMARK 922        TOTAL FREE ENERGY PREDICTED BY IDOCK:    1.22 KCAL/MOL
REMARK 923 INTER-LIGAND FREE ENERGY PREDICTED BY IDOCK:   -2.48 KCAL/MOL
REMARK 924 INTRA-LIGAND FREE ENERGY PREDICTED BY IDOCK:    3.70 KCAL/MOL
REMARK 927      BINDING AFFINITY PREDICTED BY RF-SCORE:    0.00 PKD
ROOT
HETATM    1  C   UNL     1      -5.538   5.190  68.876  1.00  0.00    -0.011 C  
HETATM    2  O   UNL     1      -5.334   6.389  68.135  1.00  0.00    -0.007 OA 
ENDROOT
BRANCH   2   3
HETATM    3  C   UNL     1      -5.997   7.523  68.703  1.00  0.00    -0.027 C  
HETATM    4  C   UNL     1      -6.324   8.572  67.623  1.00  0.00    -0.053 C  
HETATM    5  C   UNL     1      -6.897   9.770  68.343  1.00  0.00    -0.060 C  
HETATM    6  O   UNL     1      -5.248   7.265  71.034  1.00  0.00    -0.026 OA 
HETATM    7  C   UNL     1      -5.747  10.430  69.122  1.00  0.00    -0.037 C  
HETATM    8  C   UNL     1      -5.125   8.096  69.871  1.00  0.00    -0.023 C  
HETATM    9  C   UNL     1      -5.473   9.530  70.312  1.00  0.00    -0.032 C  
HETATM   10  H   UNL     1      -4.719   7.613  71.743  1.00  0.00     0.000 HD 
BRANCH   5  11
HETATM   11  C   UNL     1      -7.691  10.759  67.549  1.00  0.00    -0.105 C  
HETATM   12  C   UNL     1      -6.784  10.266  65.211  1.00  0.00    -0.126 C  
HETATM   13  C   UNL     1      -7.830  10.482  66.232  1.00  0.00    -0.141 C  
BRANCH  13  14
HETATM   14  C   UNL     1      -9.206  10.051  65.764  1.00  0.00    -0.176 C  
HETATM   15  C   UNL     1     -10.098   7.987  66.675  1.00  0.00    -0.259 C  
HETATM   16  O   UNL     1      -9.825   9.324  66.875  1.00  0.00    -0.182 OA 
HETATM   17  O   UNL     1     -10.261   7.477  65.566  1.00  0.00     1.317 OA 
HETATM   18  C   UNL     1     -10.214   7.185  68.026  1.00  0.00    -0.185 C  
HETATM   19  C   UNL     1     -11.243   6.017  67.863  1.00  0.00    -0.020 C  
HETATM   20  C   UNL     1     -10.635   4.718  67.309  1.00  0.00     0.095 C  
HETATM   21  C   UNL     1      -9.456   4.282  68.168  1.00  0.00    -0.213 C  
HETATM   22  C   UNL     1      -8.427   5.401  68.177  1.00  0.00    -0.097 C  
HETATM   23  N   UNL     1      -8.995   6.639  68.720  1.00  0.00    -0.126 N  
HETATM   24  C   UNL     1      -8.646   6.912  70.057  1.00  0.00    -0.141 C  
HETATM   25  C   UNL     1      -8.744   8.321  70.590  1.00  0.00    -0.138 C  
HETATM   26  O   UNL     1      -8.076   6.098  70.783  1.00  0.00    -0.119 OA 
HETATM   27  C   UNL     1      -9.392   8.627  71.981  1.00  0.00    -0.292 C  
HETATM   28  O   UNL     1      -8.252   9.210  69.892  1.00  0.00    -0.112 OA 
HETATM   29  O   UNL     1     -10.757   9.006  71.856  1.00  0.00    -0.347 OA 
HETATM   30  O   UNL     1      -8.714   9.830  72.420  1.00  0.00     1.509 OA 
HETATM   31  C   UNL     1     -11.678   7.971  71.546  1.00  0.00    -0.284 C  
HETATM   32  H   UNL     1      -9.107  10.016  73.265  1.00  0.00     0.000 HD 
HETATM   33  C   UNL     1     -13.059   8.615  71.165  1.00  0.00    -0.047 C  
HETATM   34  C   UNL     1     -11.676   6.936  72.694  1.00  0.00    -0.083 C  
HETATM   35  C   UNL     1     -10.052  10.984  63.562  1.00  0.00    -0.428 C  
HETATM   36  H   UNL     1     -11.369  12.823  63.983  1.00  0.00     0.000 HD 
HETATM   37  C   UNL     1     -13.002   9.593  69.927  1.00  0.00     1.022 C  
HETATM   38  C   UNL     1     -10.230   6.482  73.015  1.00  0.00    -0.220 C  
HETATM   39  O   UNL     1     -11.034  13.467  64.597  1.00  0.00    -0.337 OA 
HETATM   40  C   UNL     1     -12.337  10.979  70.175  1.00  0.00    -0.389 C  
HETATM   41  C   UNL     1     -10.052  11.286  65.126  1.00  0.00    -0.326 C  
HETATM   42  C   UNL     1      -9.316   7.693  73.187  1.00  0.00    -0.289 C  
HETATM   43  C   UNL     1     -12.827  12.111  69.252  1.00  0.00     1.162 C  
HETATM   44  C   UNL     1     -10.815  10.920  70.057  1.00  0.00    -0.139 C  
HETATM   45  C   UNL     1      -7.904   7.390  73.679  1.00  0.00    -0.138 C  
HETATM   46  C   UNL     1     -12.041  13.407  69.509  1.00  0.00    -0.334 C  
HETATM   47  C   UNL     1     -11.443  13.972  68.441  1.00  0.00    -0.340 C  
HETATM   48  C   UNL     1     -11.814  13.838  70.936  1.00  0.00    -0.146 C  
HETATM   49  C   UNL     1     -10.415  15.071  68.325  1.00  0.00    -0.237 C  
HETATM   50  C   UNL     1     -10.145  15.075  66.807  1.00  0.00    -0.254 C  
HETATM   51  C   UNL     1      -9.115  14.969  69.167  1.00  0.00    -0.183 C  
HETATM   52  C   UNL     1      -9.803  12.927  65.138  1.00  0.00    -0.068 C  
HETATM   53  C   UNL     1      -9.249  13.993  66.154  1.00  0.00    -0.062 C  
HETATM   54  O   UNL     1     -10.711  15.901  66.082  1.00  0.00    -0.314 OA 
BRANCH  33  55
HETATM   55  O   UNL     1     -13.642   9.390  72.223  1.00  0.00    -0.447 OA 
HETATM   56  C   UNL     1     -14.383   8.668  73.187  1.00  0.00     0.671 C  
ENDBRANCH  33  55
BRANCH  34  57
HETATM   57  O   UNL     1     -12.502   5.831  72.331  1.00  0.00    -0.098 OA 
HETATM   58  C   UNL     1     -12.228   4.651  73.082  1.00  0.00     0.400 C  
ENDBRANCH  34  57
BRANCH  51  59
HETATM   59  C   UNL     1      -8.190  16.174  69.227  1.00  0.00    -0.183 C  
HETATM   60  C   UNL     1      -8.073  17.167  68.336  1.00  0.00    -0.255 C  
ENDBRANCH  51  59
ENDBRANCH  13  14
ENDBRANCH   5  11
ENDBRANCH   2   3
TORSDOF 6
ENDMDL
MODEL       10
REMARK 921   NORMALIZED FREE ENERGY PREDICTED BY IDOCK:    2.57 KCAL/MOL
REMARK 922        TOTAL FREE ENERGY PREDICTED BY IDOCK:    1.88 KCAL/MOL
REMARK 923 INTER-LIGAND FREE ENERGY PREDICTED BY IDOCK:   -5.02 KCAL/MOL
REMARK 924 INTRA-LIGAND FREE ENERGY PREDICTED BY IDOCK:    6.90 KCAL/MOL
REMARK 927      BINDING AFFINITY PREDICTED BY RF-SCORE:    0.00 PKD
ROOT
HETATM    1  C   UNL     1      -7.242   9.669  71.140  1.00  0.00     0.212 C  
HETATM    2  O   UNL     1      -8.059   9.783  69.979  1.00  0.00    -0.161 OA 
ENDROOT
BRANCH   2   3
HETATM    3  C   UNL     1      -7.468  10.581  68.949  1.00  0.00    -0.104 C  
HETATM    4  C   UNL     1      -7.410   9.809  67.616  1.00  0.00    -0.090 C  
HETATM    5  C   UNL     1      -6.658  10.686  66.642  1.00  0.00    -0.101 C  
HETATM    6  O   UNL     1      -6.218  12.158  70.367  1.00  0.00    -0.382 OA 
HETATM    7  C   UNL     1      -5.186  10.708  67.087  1.00  0.00    -0.041 C  
HETATM    8  C   UNL     1      -6.065  11.083  69.429  1.00  0.00    -0.060 C  
HETATM    9  C   UNL     1      -5.131  11.596  68.316  1.00  0.00    -0.043 C  
HETATM   10  H   UNL     1      -5.366  12.462  70.658  1.00  0.00     0.000 HD 
BRANCH   5  11
HETATM   11  C   UNL     1      -6.809  10.409  65.179  1.00  0.00    -0.085 C  
HETATM   12  C   UNL     1      -5.459   8.245  65.007  1.00  0.00    -0.040 C  
HETATM   13  C   UNL     1      -6.631   9.122  64.801  1.00  0.00    -0.074 C  
BRANCH  13  14
HETATM   14  C   UNL     1      -7.866   8.360  64.363  1.00  0.00    -0.141 C  
HETATM   15  C   UNL     1      -8.056   6.046  65.062  1.00  0.00    -0.133 C  
HETATM   16  O   UNL     1      -8.153   7.376  65.409  1.00  0.00    -0.121 OA 
HETATM   17  O   UNL     1      -8.169   5.626  63.909  1.00  0.00    -0.121 OA 
HETATM   18  C   UNL     1      -7.820   5.111  66.308  1.00  0.00    -0.103 C  
HETATM   19  C   UNL     1      -8.490   3.718  66.062  1.00  0.00    -0.110 C  
HETATM   20  C   UNL     1      -7.593   2.714  65.318  1.00  0.00    -0.076 C  
HETATM   21  C   UNL     1      -6.267   2.553  66.047  1.00  0.00    -0.024 C  
HETATM   22  C   UNL     1      -5.598   3.915  66.136  1.00  0.00    -0.018 C  
HETATM   23  N   UNL     1      -6.440   4.873  66.859  1.00  0.00    -0.044 N  
HETATM   24  C   UNL     1      -6.062   5.099  68.197  1.00  0.00    -0.027 C  
HETATM   25  C   UNL     1      -6.504   6.357  68.904  1.00  0.00    -0.043 C  
HETATM   26  O   UNL     1      -5.224   4.414  68.783  1.00  0.00    -0.006 OA 
HETATM   27  C   UNL     1      -7.083   6.319  70.357  1.00  0.00    -0.071 C  
HETATM   28  O   UNL     1      -6.347   7.416  68.294  1.00  0.00    -0.038 OA 
HETATM   29  O   UNL     1      -8.505   6.297  70.358  1.00  0.00    -0.130 OA 
HETATM   30  O   UNL     1      -6.734   7.615  70.902  1.00  0.00    -0.042 OA 
HETATM   31  C   UNL     1      -9.123   5.077  69.976  1.00  0.00    -0.123 C  
HETATM   32  H   UNL     1      -7.086   7.592  71.784  1.00  0.00     0.000 HD 
HETATM   33  C   UNL     1     -10.658   5.328  69.757  1.00  0.00    -0.213 C  
HETATM   34  C   UNL     1      -8.726   3.976  70.986  1.00  0.00    -0.085 C  
HETATM   35  C   UNL     1      -9.135   9.228  62.345  1.00  0.00    -0.138 C  
HETATM   36  H   UNL     1     -10.872  10.554  63.064  1.00  0.00     0.000 HD 
HETATM   37  C   UNL     1     -10.989   6.401  68.648  1.00  0.00    -0.404 C  
HETATM   38  C   UNL     1      -7.188   3.929  71.166  1.00  0.00    -0.033 C  
HETATM   39  O   UNL     1     -10.678  11.201  63.733  1.00  0.00    -0.380 OA 
HETATM   40  C   UNL     1     -10.721   7.888  69.027  1.00  0.00    -0.113 C  
HETATM   41  C   UNL     1      -9.079   9.356  63.931  1.00  0.00    -0.087 C  
HETATM   42  C   UNL     1      -6.640   5.329  71.432  1.00  0.00    -0.039 C  
HETATM   43  C   UNL     1     -11.591   8.917  68.280  1.00  0.00     1.315 C  
HETATM   44  C   UNL     1      -9.261   8.285  68.816  1.00  0.00    -0.143 C  
HETATM   45  C   UNL     1      -5.161   5.400  71.802  1.00  0.00    -0.009 C  
HETATM   46  C   UNL     1     -11.181  10.352  68.650  1.00  0.00    -0.305 C  
HETATM   47  C   UNL     1     -10.864  11.172  67.627  1.00  0.00    -0.295 C  
HETATM   48  C   UNL     1     -10.956  10.683  70.103  1.00  0.00    -0.292 C  
HETATM   49  C   UNL     1     -10.201  12.527  67.589  1.00  0.00    -0.220 C  
HETATM   50  C   UNL     1     -10.082  12.764  66.070  1.00  0.00    -0.268 C  
HETATM   51  C   UNL     1      -8.854  12.721  68.336  1.00  0.00    -0.117 C  
HETATM   52  C   UNL     1      -9.302  10.989  64.132  1.00  0.00    -0.210 C  
HETATM   53  C   UNL     1      -8.980  12.060  65.239  1.00  0.00     0.390 C  
HETATM   54  O   UNL     1     -10.919  13.460  65.486  1.00  0.00    -0.280 OA 
BRANCH  33  55
HETATM   55  O   UNL     1     -11.337   5.789  70.935  1.00  0.00    -0.213 OA 
HETATM   56  C   UNL     1     -11.136   5.025  72.107  1.00  0.00     0.005 C  
ENDBRANCH  33  55
BRANCH  34  57
HETATM   57  O   UNL     1      -9.238   2.722  70.537  1.00  0.00    -0.112 OA 
HETATM   58  C   UNL     1      -9.450   1.789  71.593  1.00  0.00    -0.114 C  
ENDBRANCH  34  57
BRANCH  51  59
HETATM   59  C   UNL     1      -8.304  14.130  68.491  1.00  0.00    -0.155 C  
HETATM   60  C   UNL     1      -7.243  14.670  67.878  1.00  0.00    -0.171 C  
ENDBRANCH  51  59
ENDBRANCH  13  14
ENDBRANCH   5  11
ENDBRANCH   2   3
TORSDOF 6
ENDMDL
MODEL       11
REMARK 921   NORMALIZED FREE ENERGY PREDICTED BY IDOCK:    2.75 KCAL/MOL
REMARK 922        TOTAL FREE ENERGY PREDICTED BY IDOCK:    2.12 KCAL/MOL
REMARK 923 INTER-LIGAND FREE ENERGY PREDICTED BY IDOCK:    1.62 KCAL/MOL
REMARK 924 INTRA-LIGAND FREE ENERGY PREDICTED BY IDOCK:    0.50 KCAL/MOL
REMARK 927      BINDING AFFINITY PREDICTED BY RF-SCORE:    0.00 PKD
ROOT
HETATM    1  C   UNL     1     -12.702   6.088  71.622  1.00  0.00     0.680 C  
HETATM    2  O   UNL     1     -11.640   5.379  72.252  1.00  0.00    -0.170 OA 
ENDROOT
BRANCH   2   3
HETATM    3  C   UNL     1     -10.568   5.058  71.360  1.00  0.00    -0.091 C  
HETATM    4  C   UNL     1     -10.910   5.469  69.914  1.00  0.00    -0.298 C  
HETATM    5  C   UNL     1      -9.779   4.972  69.045  1.00  0.00    -0.238 C  
HETATM    6  O   UNL     1      -9.474   3.309  72.703  1.00  0.00    -0.102 OA 
HETATM    7  C   UNL     1      -9.879   3.438  68.996  1.00  0.00     0.186 C  
HETATM    8  C   UNL     1     -10.221   3.537  71.499  1.00  0.00     0.117 C  
HETATM    9  C   UNL     1      -9.395   2.940  70.345  1.00  0.00    -0.222 C  
HETATM   10  H   UNL     1      -9.264   2.386  72.787  1.00  0.00     0.000 HD 
BRANCH   5  11
HETATM   11  C   UNL     1      -9.611   5.578  67.687  1.00  0.00    -0.133 C  
HETATM   12  C   UNL     1      -9.668   8.056  68.310  1.00  0.00    -0.177 C  
HETATM   13  C   UNL     1      -9.130   6.842  67.661  1.00  0.00    -0.118 C  
BRANCH  13  14
HETATM   14  C   UNL     1      -7.714   7.026  67.154  1.00  0.00    -0.108 C  
HETATM   15  C   UNL     1      -7.292   8.898  65.672  1.00  0.00    -0.085 C  
HETATM   16  O   UNL     1      -7.512   8.463  66.961  1.00  0.00    -0.086 OA 
HETATM   17  O   UNL     1      -6.842   8.186  64.773  1.00  0.00    -0.065 OA 
HETATM   18  C   UNL     1      -7.647  10.421  65.478  1.00  0.00    -0.144 C  
HETATM   19  C   UNL     1      -6.706  11.052  64.398  1.00  0.00     0.795 C  
HETATM   20  C   UNL     1      -7.215  10.897  62.955  1.00  0.00     0.276 C  
HETATM   21  C   UNL     1      -8.626  11.454  62.833  1.00  0.00     0.050 C  
HETATM   22  C   UNL     1      -9.524  10.709  63.808  1.00  0.00    -0.290 C  
HETATM   23  N   UNL     1      -9.055  10.867  65.187  1.00  0.00    -0.200 N  
HETATM   24  C   UNL     1      -9.768  11.813  65.949  1.00  0.00    -0.237 C  
HETATM   25  C   UNL     1      -9.730  11.752  67.457  1.00  0.00    -0.180 C  
HETATM   26  O   UNL     1     -10.588  12.589  65.460  1.00  0.00    -0.263 OA 
HETATM   27  C   UNL     1      -9.508  13.035  68.324  1.00  0.00    -0.208 C  
HETATM   28  O   UNL     1      -9.921  10.647  67.969  1.00  0.00    -0.155 OA 
HETATM   29  O   UNL     1      -8.144  13.194  68.694  1.00  0.00    -0.112 OA 
HETATM   30  O   UNL     1     -10.195  12.737  69.563  1.00  0.00    -0.135 OA 
HETATM   31  C   UNL     1      -7.252  13.612  67.672  1.00  0.00    -0.170 C  
HETATM   32  H   UNL     1     -10.061  13.517  70.090  1.00  0.00     0.000 HD 
HETATM   33  C   UNL     1      -5.776  13.449  68.185  1.00  0.00    -0.108 C  
HETATM   34  C   UNL     1      -7.676  15.014  67.178  1.00  0.00    -0.167 C  
HETATM   35  C   UNL     1      -6.179   5.006  67.182  1.00  0.00    -0.035 C  
HETATM   36  H   UNL     1      -4.916   5.049  69.104  1.00  0.00     0.000 HD 
HETATM   37  C   UNL     1      -5.387  11.973  68.587  1.00  0.00    -0.049 C  
HETATM   38  C   UNL     1      -9.181  15.031  66.812  1.00  0.00    -0.280 C  
HETATM   39  O   UNL     1      -5.371   5.226  69.920  1.00  0.00    -0.003 OA 
HETATM   40  C   UNL     1      -5.991  11.441  69.920  1.00  0.00    -0.122 C  
HETATM   41  C   UNL     1      -6.626   6.243  68.078  1.00  0.00    -0.062 C  
HETATM   42  C   UNL     1     -10.012  14.426  67.941  1.00  0.00    -0.228 C  
HETATM   43  C   UNL     1      -5.163  10.344  70.618  1.00  0.00    -0.064 C  
HETATM   44  C   UNL     1      -7.407  10.898  69.739  1.00  0.00    -0.016 C  
HETATM   45  C   UNL     1     -11.525  14.542  67.783  1.00  0.00    -0.362 C  
HETATM   46  C   UNL     1      -5.892   9.819  71.866  1.00  0.00     0.141 C  
HETATM   47  C   UNL     1      -6.098   8.488  71.928  1.00  0.00    -0.060 C  
HETATM   48  C   UNL     1      -6.504  10.818  72.814  1.00  0.00     3.396 C  
HETATM   49  C   UNL     1      -6.959   7.643  72.835  1.00  0.00    -0.079 C  
HETATM   50  C   UNL     1      -6.760   6.241  72.222  1.00  0.00    -0.068 C  
HETATM   51  C   UNL     1      -8.456   8.017  73.005  1.00  0.00    -0.252 C  
HETATM   52  C   UNL     1      -6.744   5.534  69.574  1.00  0.00    -0.059 C  
HETATM   53  C   UNL     1      -7.497   5.828  70.924  1.00  0.00    -0.090 C  
HETATM   54  O   UNL     1      -5.943   5.460  72.722  1.00  0.00    -0.025 OA 
BRANCH  33  55
HETATM   55  O   UNL     1      -5.482  14.240  69.346  1.00  0.00    -0.086 OA 
HETATM   56  C   UNL     1      -5.695  15.632  69.220  1.00  0.00    -0.109 C  
ENDBRANCH  33  55
BRANCH  34  57
HETATM   57  O   UNL     1      -6.863  15.385  66.066  1.00  0.00     1.952 OA 
HETATM   58  C   UNL     1      -6.818  16.792  65.844  1.00  0.00     0.758 C  
ENDBRANCH  34  57
BRANCH  51  59
HETATM   59  C   UNL     1      -9.264   7.314  74.084  1.00  0.00    -0.272 C  
HETATM   60  C   UNL     1      -9.120   6.061  74.534  1.00  0.00    -0.149 C  
ENDBRANCH  51  59
ENDBRANCH  13  14
ENDBRANCH   5  11
ENDBRANCH   2   3
TORSDOF 6
ENDMDL
MODEL       12
REMARK 921   NORMALIZED FREE ENERGY PREDICTED BY IDOCK:    2.81 KCAL/MOL
REMARK 922        TOTAL FREE ENERGY PREDICTED BY IDOCK:    2.19 KCAL/MOL
REMARK 923 INTER-LIGAND FREE ENERGY PREDICTED BY IDOCK:   -6.43 KCAL/MOL
REMARK 924 INTRA-LIGAND FREE ENERGY PREDICTED BY IDOCK:    8.62 KCAL/MOL
REMARK 927      BINDING AFFINITY PREDICTED BY RF-SCORE:    0.00 PKD
ROOT
HETATM    1  C   UNL     1      -5.150  11.172  71.118  1.00  0.00    -0.111 C  
HETATM    2  O   UNL     1      -6.430  10.736  70.669  1.00  0.00    -0.326 OA 
ENDROOT
BRANCH   2   3
HETATM    3  C   UNL     1      -6.760  11.209  69.359  1.00  0.00    -0.120 C  
HETATM    4  C   UNL     1      -6.160  10.294  68.274  1.00  0.00    -0.044 C  
HETATM    5  C   UNL     1      -6.454  10.949  66.945  1.00  0.00    -0.097 C  
HETATM    6  O   UNL     1      -7.220  13.563  69.915  1.00  0.00    -0.246 OA 
HETATM    7  C   UNL     1      -5.577  12.209  66.851  1.00  0.00    -0.009 C  
HETATM    8  C   UNL     1      -6.306  12.701  69.222  1.00  0.00    -0.109 C  
HETATM    9  C   UNL     1      -6.206  13.231  67.779  1.00  0.00    -0.159 C  
HETATM   10  H   UNL     1      -6.944  14.468  69.831  1.00  0.00     0.000 HD 
BRANCH   5  11
HETATM   11  C   UNL     1      -6.382  10.108  65.710  1.00  0.00    -0.102 C  
HETATM   12  C   UNL     1      -5.152   8.072  66.645  1.00  0.00    -0.027 C  
HETATM   13  C   UNL     1      -6.221   8.779  65.909  1.00  0.00    -0.056 C  
BRANCH  13  14
HETATM   14  C   UNL     1      -7.411   7.892  65.604  1.00  0.00    -0.081 C  
HETATM   15  C   UNL     1      -7.772   5.973  67.042  1.00  0.00    -0.101 C  
HETATM   16  O   UNL     1      -7.870   7.339  66.880  1.00  0.00    -0.107 OA 
HETATM   17  O   UNL     1      -7.743   5.170  66.108  1.00  0.00    -0.090 OA 
HETATM   18  C   UNL     1      -7.736   5.544  68.558  1.00  0.00    -0.085 C  
HETATM   19  C   UNL     1      -8.414   4.144  68.730  1.00  0.00    -0.098 C  
HETATM   20  C   UNL     1      -7.460   2.956  68.519  1.00  0.00    -0.048 C  
HETATM   21  C   UNL     1      -6.250   3.085  69.433  1.00  0.00    -0.028 C  
HETATM   22  C   UNL     1      -5.553   4.401  69.126  1.00  0.00    -0.016 C  
HETATM   23  N   UNL     1      -6.451   5.540  69.341  1.00  0.00    -0.040 N  
HETATM   24  C   UNL     1      -6.249   6.231  70.552  1.00  0.00    -0.035 C  
HETATM   25  C   UNL     1      -6.739   7.651  70.701  1.00  0.00    -0.042 C  
HETATM   26  O   UNL     1      -5.520   5.812  71.450  1.00  0.00    -0.016 OA 
HETATM   27  C   UNL     1      -7.509   8.121  71.979  1.00  0.00    -0.097 C  
HETATM   28  O   UNL     1      -6.466   8.428  69.784  1.00  0.00    -0.035 OA 
HETATM   29  O   UNL     1      -8.918   8.078  71.792  1.00  0.00    -0.127 OA 
HETATM   30  O   UNL     1      -7.192   9.531  72.073  1.00  0.00    -0.087 OA 
HETATM   31  C   UNL     1      -9.520   6.792  71.785  1.00  0.00    -0.150 C  
HETATM   32  H   UNL     1      -7.660   9.817  72.850  1.00  0.00     0.000 HD 
HETATM   33  C   UNL     1     -11.002   6.925  71.283  1.00  0.00    -0.243 C  
HETATM   34  C   UNL     1      -9.299   6.127  73.163  1.00  0.00    -0.138 C  
HETATM   35  C   UNL     1      -8.369   7.967  63.255  1.00  0.00     0.027 C  
HETATM   36  H   UNL     1     -10.140   9.434  63.214  1.00  0.00     0.000 HD 
HETATM   37  C   UNL     1     -11.145   7.530  69.832  1.00  0.00    -0.185 C  
HETATM   38  C   UNL     1      -7.802   6.172  73.557  1.00  0.00    -0.099 C  
HETATM   39  O   UNL     1     -10.016  10.279  63.630  1.00  0.00    -0.243 OA 
HETATM   40  C   UNL     1     -10.880   9.058  69.694  1.00  0.00    -0.196 C  
HETATM   41  C   UNL     1      -8.521   8.651  64.686  1.00  0.00    -0.150 C  
HETATM   42  C   UNL     1      -7.247   7.584  73.385  1.00  0.00    -0.098 C  
HETATM   43  C   UNL     1     -11.607   9.741  68.520  1.00  0.00     0.322 C  
HETATM   44  C   UNL     1      -9.393   9.378  69.559  1.00  0.00    -0.187 C  
HETATM   45  C   UNL     1      -5.830   7.805  73.905  1.00  0.00    -0.068 C  
HETATM   46  C   UNL     1     -11.202  11.221  68.411  1.00  0.00    -0.324 C  
HETATM   47  C   UNL     1     -10.724  11.630  67.219  1.00  0.00    -0.281 C  
HETATM   48  C   UNL     1     -11.163  12.049  69.670  1.00  0.00    -0.168 C  
HETATM   49  C   UNL     1     -10.016  12.894  66.796  1.00  0.00    -0.243 C  
HETATM   50  C   UNL     1      -9.686  12.579  65.323  1.00  0.00    -0.057 C  
HETATM   51  C   UNL     1      -8.775  13.362  67.603  1.00  0.00    -0.198 C  
HETATM   52  C   UNL     1      -8.714  10.245  64.264  1.00  0.00    -0.206 C  
HETATM   53  C   UNL     1      -8.507  11.644  64.954  1.00  0.00     0.776 C  
HETATM   54  O   UNL     1     -10.414  13.009  64.421  1.00  0.00    -0.378 OA 
BRANCH  33  55
HETATM   55  O   UNL     1     -11.817   7.762  72.116  1.00  0.00    -0.296 OA 
HETATM   56  C   UNL     1     -13.208   7.511  72.080  1.00  0.00    -0.145 C  
ENDBRANCH  33  55
BRANCH  34  57
HETATM   57  O   UNL     1      -9.788   4.787  73.121  1.00  0.00    -0.142 OA 
HETATM   58  C   UNL     1     -10.442   4.386  74.321  1.00  0.00    -0.260 C  
ENDBRANCH  34  57
BRANCH  51  59
HETATM   59  C   UNL     1      -8.203  14.742  67.325  1.00  0.00    -0.237 C  
HETATM   60  C   UNL     1      -8.748  15.728  66.601  1.00  0.00    -0.323 C  
ENDBRANCH  51  59
ENDBRANCH  13  14
ENDBRANCH   5  11
ENDBRANCH   2   3
TORSDOF 6
ENDMDL
MODEL       13
REMARK 921   NORMALIZED FREE ENERGY PREDICTED BY IDOCK:    3.22 KCAL/MOL
REMARK 922        TOTAL FREE ENERGY PREDICTED BY IDOCK:    2.75 KCAL/MOL
REMARK 923 INTER-LIGAND FREE ENERGY PREDICTED BY IDOCK:   -3.63 KCAL/MOL
REMARK 924 INTRA-LIGAND FREE ENERGY PREDICTED BY IDOCK:    6.39 KCAL/MOL
REMARK 927      BINDING AFFINITY PREDICTED BY RF-SCORE:    0.00 PKD
ROOT
HETATM    1  C   UNL     1      -8.937  14.358  69.541  1.00  0.00     0.456 C  
HETATM    2  O   UNL     1      -8.491  13.034  69.266  1.00  0.00     0.525 OA 
ENDROOT
BRANCH   2   3
HETATM    3  C   UNL     1      -7.588  12.961  68.157  1.00  0.00    -0.135 C  
HETATM    4  C   UNL     1      -8.051  11.905  67.135  1.00  0.00    -0.172 C  
HETATM    5  C   UNL     1      -6.970  11.819  66.083  1.00  0.00     0.528 C  
HETATM    6  O   UNL     1      -5.590  13.911  69.238  1.00  0.00    -0.081 OA 
HETATM    7  C   UNL     1      -5.749  11.149  66.735  1.00  0.00    -0.106 C  
HETATM    8  C   UNL     1      -6.138  12.703  68.691  1.00  0.00    -0.067 C  
HETATM    9  C   UNL     1      -5.130  12.194  67.644  1.00  0.00    -0.083 C  
HETATM   10  H   UNL     1      -4.711  13.754  69.562  1.00  0.00     0.000 HD 
BRANCH   5  11
HETATM   11  C   UNL     1      -7.318  11.212  64.760  1.00  0.00     0.835 C  
HETATM   12  C   UNL     1      -5.746   9.197  64.782  1.00  0.00    -0.063 C  
HETATM   13  C   UNL     1      -7.038   9.895  64.623  1.00  0.00    -0.137 C  
BRANCH  13  14
HETATM   14  C   UNL     1      -8.219   8.946  64.584  1.00  0.00    -0.163 C  
HETATM   15  C   UNL     1      -8.211   7.091  66.147  1.00  0.00    -0.125 C  
HETATM   16  O   UNL     1      -8.405   8.441  65.946  1.00  0.00    -0.118 OA 
HETATM   17  O   UNL     1      -8.315   6.242  65.260  1.00  0.00    -0.145 OA 
HETATM   18  C   UNL     1      -7.875   6.744  67.647  1.00  0.00    -0.112 C  
HETATM   19  C   UNL     1      -8.438   5.327  68.003  1.00  0.00    -0.097 C  
HETATM   20  C   UNL     1      -7.482   4.170  67.669  1.00  0.00    -0.069 C  
HETATM   21  C   UNL     1      -6.131   4.396  68.335  1.00  0.00    -0.031 C  
HETATM   22  C   UNL     1      -5.570   5.722  67.845  1.00  0.00    -0.012 C  
HETATM   23  N   UNL     1      -6.469   6.832  68.175  1.00  0.00    -0.051 N  
HETATM   24  C   UNL     1      -6.081   7.593  69.295  1.00  0.00    -0.034 C  
HETATM   25  C   UNL     1      -6.605   8.998  69.472  1.00  0.00    -0.043 C  
HETATM   26  O   UNL     1      -5.179   7.252  70.059  1.00  0.00    -0.022 OA 
HETATM   27  C   UNL     1      -7.148   9.502  70.849  1.00  0.00    -0.056 C  
HETATM   28  O   UNL     1      -6.545   9.736  68.486  1.00  0.00    -0.051 OA 
HETATM   29  O   UNL     1      -8.564   9.392  70.932  1.00  0.00    -0.233 OA 
HETATM   30  O   UNL     1      -6.890  10.927  70.821  1.00  0.00    -0.427 OA 
HETATM   31  C   UNL     1      -9.091   8.084  71.093  1.00  0.00    -0.149 C  
HETATM   32  H   UNL     1      -7.220  11.234  71.658  1.00  0.00     0.000 HD 
HETATM   33  C   UNL     1     -10.646   8.129  70.871  1.00  0.00    -0.209 C  
HETATM   34  C   UNL     1      -8.587   7.501  72.432  1.00  0.00    -0.122 C  
HETATM   35  C   UNL     1      -9.596   8.859  62.455  1.00  0.00     1.430 C  
HETATM   36  H   UNL     1     -11.416  10.248  62.682  1.00  0.00     0.000 HD 
HETATM   37  C   UNL     1     -11.084   8.651  69.448  1.00  0.00     0.068 C  
HETATM   38  C   UNL     1      -7.047   7.627  72.538  1.00  0.00    -0.078 C  
HETATM   39  O   UNL     1     -11.259  11.118  63.030  1.00  0.00     0.072 OA 
HETATM   40  C   UNL     1     -10.926  10.180  69.196  1.00  0.00    -0.270 C  
HETATM   41  C   UNL     1      -9.516   9.609  63.858  1.00  0.00     0.040 C  
HETATM   42  C   UNL     1      -6.605   9.050  72.203  1.00  0.00     0.071 C  
HETATM   43  C   UNL     1     -11.890  10.771  68.150  1.00  0.00    -0.033 C  
HETATM   44  C   UNL     1      -9.507  10.553  68.771  1.00  0.00    -0.181 C  
HETATM   45  C   UNL     1      -5.129   9.355  72.439  1.00  0.00    -0.077 C  
HETATM   46  C   UNL     1     -11.587  12.258  67.903  1.00  0.00    -0.416 C  
HETATM   47  C   UNL     1     -11.358  12.623  66.626  1.00  0.00    -0.379 C  
HETATM   48  C   UNL     1     -11.357  13.151  69.096  1.00  0.00    -0.335 C  
HETATM   49  C   UNL     1     -10.805  13.892  66.024  1.00  0.00    -0.290 C  
HETATM   50  C   UNL     1     -10.737  13.514  64.530  1.00  0.00    -0.418 C  
HETATM   51  C   UNL     1      -9.461  14.451  66.564  1.00  0.00    -0.309 C  
HETATM   52  C   UNL     1      -9.862  11.170  63.411  1.00  0.00    -0.361 C  
HETATM   53  C   UNL     1      -9.601  12.610  63.988  1.00  0.00     0.337 C  
HETATM   54  O   UNL     1     -11.639  13.867  63.762  1.00  0.00    -0.214 OA 
BRANCH  33  55
HETATM   55  O   UNL     1     -11.333   8.975  71.805  1.00  0.00    -0.334 OA 
HETATM   56  C   UNL     1     -12.651   8.588  72.140  1.00  0.00    -0.377 C  
ENDBRANCH  33  55
BRANCH  34  57
HETATM   57  O   UNL     1      -9.008   6.141  72.541  1.00  0.00    -0.135 OA 
HETATM   58  C   UNL     1      -9.432   5.785  73.853  1.00  0.00    -0.138 C  
ENDBRANCH  34  57
BRANCH  51  59
HETATM   59  C   UNL     1      -9.020  15.838  66.124  1.00  0.00    -0.372 C  
HETATM   60  C   UNL     1      -9.789  16.854  65.714  1.00  0.00    -0.166 C  
ENDBRANCH  51  59
ENDBRANCH  13  14
ENDBRANCH   5  11
ENDBRANCH   2   3
TORSDOF 6
ENDMDL
MODEL       14
REMARK 921   NORMALIZED FREE ENERGY PREDICTED BY IDOCK:    3.43 KCAL/MOL
REMARK 922        TOTAL FREE ENERGY PREDICTED BY IDOCK:    3.03 KCAL/MOL
REMARK 923 INTER-LIGAND FREE ENERGY PREDICTED BY IDOCK:    0.25 KCAL/MOL
REMARK 924 INTRA-LIGAND FREE ENERGY PREDICTED BY IDOCK:    2.79 KCAL/MOL
REMARK 927      BINDING AFFINITY PREDICTED BY RF-SCORE:    0.00 PKD
ROOT
HETATM    1  C   UNL     1     -14.066  13.043  72.924  1.00  0.00     0.880 C  
HETATM    2  O   UNL     1     -12.789  12.921  72.305  1.00  0.00    -0.219 OA 
ENDROOT
BRANCH   2   3
HETATM    3  C   UNL     1     -12.782  12.011  71.201  1.00  0.00    -0.266 C  
HETATM    4  C   UNL     1     -11.800  10.849  71.447  1.00  0.00     0.063 C  
HETATM    5  C   UNL     1     -11.774  10.028  70.179  1.00  0.00    -0.285 C  
HETATM    6  O   UNL     1     -13.641  13.526  69.461  1.00  0.00     1.550 OA 
HETATM    7  C   UNL     1     -11.052  10.863  69.108  1.00  0.00    -0.301 C  
HETATM    8  C   UNL     1     -12.477  12.802  69.884  1.00  0.00     0.050 C  
HETATM    9  C   UNL     1     -12.029  11.944  68.687  1.00  0.00    -0.291 C  
HETATM   10  H   UNL     1     -13.455  14.007  68.663  1.00  0.00     0.000 HD 
BRANCH   5  11
HETATM   11  C   UNL     1     -11.259   8.625  70.255  1.00  0.00    -0.196 C  
HETATM   12  C   UNL     1     -10.518   8.305  67.830  1.00  0.00    -0.280 C  
HETATM   13  C   UNL     1     -10.368   8.271  69.300  1.00  0.00    -0.223 C  
BRANCH  13  14
HETATM   14  C   UNL     1      -8.931   8.083  69.741  1.00  0.00    -0.145 C  
HETATM   15  C   UNL     1      -8.016   5.839  69.640  1.00  0.00    -0.100 C  
HETATM   16  O   UNL     1      -8.384   6.977  68.953  1.00  0.00    -0.124 OA 
HETATM   17  O   UNL     1      -7.715   5.825  70.835  1.00  0.00    -0.092 OA 
HETATM   18  C   UNL     1      -7.989   4.560  68.721  1.00  0.00    -0.078 C  
HETATM   19  C   UNL     1      -6.883   3.571  69.221  1.00  0.00    -0.041 C  
HETATM   20  C   UNL     1      -7.358   2.600  70.315  1.00  0.00    -0.037 C  
HETATM   21  C   UNL     1      -8.589   1.839  69.844  1.00  0.00    -0.094 C  
HETATM   22  C   UNL     1      -9.676   2.846  69.503  1.00  0.00     0.141 C  
HETATM   23  N   UNL     1      -9.237   3.764  68.448  1.00  0.00    -0.144 N  
HETATM   24  C   UNL     1      -9.732   3.468  67.163  1.00  0.00    -0.008 C  
HETATM   25  C   UNL     1      -9.768   4.541  66.102  1.00  0.00    -0.207 C  
HETATM   26  O   UNL     1     -10.323   2.422  66.896  1.00  0.00     1.701 OA 
HETATM   27  C   UNL     1      -9.280   4.265  64.642  1.00  0.00    -0.156 C  
HETATM   28  O   UNL     1     -10.238   5.631  66.436  1.00  0.00    -0.190 OA 
HETATM   29  O   UNL     1      -7.933   4.679  64.448  1.00  0.00    -0.090 OA 
HETATM   30  O   UNL     1     -10.066   5.178  63.837  1.00  0.00     0.173 OA 
HETATM   31  C   UNL     1      -6.928   3.870  65.040  1.00  0.00    -0.054 C  
HETATM   32  H   UNL     1      -9.770   5.011  62.950  1.00  0.00     0.000 HD 
HETATM   33  C   UNL     1      -5.555   4.630  64.970  1.00  0.00    -0.014 C  
HETATM   34  C   UNL     1      -6.985   2.459  64.412  1.00  0.00    -0.048 C  
HETATM   35  C   UNL     1      -7.926   9.840  71.272  1.00  0.00     0.896 C  
HETATM   36  H   UNL     1      -6.765  11.366  70.001  1.00  0.00     0.000 HD 
HETATM   37  C   UNL     1      -5.546   6.025  65.710  1.00  0.00    -0.016 C  
HETATM   38  C   UNL     1      -8.426   1.896  64.467  1.00  0.00    -0.085 C  
HETATM   39  O   UNL     1      -7.196  11.702  69.223  1.00  0.00    -0.099 OA 
HETATM   40  C   UNL     1      -6.311   7.184  65.004  1.00  0.00    -0.037 C  
HETATM   41  C   UNL     1      -8.098   9.482  69.730  1.00  0.00    -0.143 C  
HETATM   42  C   UNL     1      -9.421   2.922  63.929  1.00  0.00    -0.122 C  
HETATM   43  C   UNL     1      -5.797   8.598  65.333  1.00  0.00    -0.048 C  
HETATM   44  C   UNL     1      -7.807   7.159  65.308  1.00  0.00    -0.121 C  
HETATM   45  C   UNL     1     -10.855   2.428  63.764  1.00  0.00     0.002 C  
HETATM   46  C   UNL     1      -6.678   9.669  64.668  1.00  0.00    -0.101 C  
HETATM   47  C   UNL     1      -7.199  10.611  65.480  1.00  0.00    -0.052 C  
HETATM   48  C   UNL     1      -7.070   9.482  63.225  1.00  0.00    -0.103 C  
HETATM   49  C   UNL     1      -8.272  11.649  65.261  1.00  0.00     0.762 C  
HETATM   50  C   UNL     1      -8.390  12.266  66.671  1.00  0.00    -0.014 C  
HETATM   51  C   UNL     1      -9.641  11.199  64.686  1.00  0.00    -0.289 C  
HETATM   52  C   UNL     1      -8.441  10.974  69.088  1.00  0.00    -0.012 C  
HETATM   53  C   UNL     1      -9.154  11.530  67.800  1.00  0.00    -0.165 C  
HETATM   54  O   UNL     1      -7.804  13.322  66.934  1.00  0.00    -0.004 OA 
BRANCH  33  55
HETATM   55  O   UNL     1      -5.126   4.917  63.631  1.00  0.00    -0.009 OA 
HETATM   56  C   UNL     1      -5.416   3.931  62.660  1.00  0.00    -0.009 C  
ENDBRANCH  33  55
BRANCH  34  57
HETATM   57  O   UNL     1      -6.064   1.606  65.091  1.00  0.00    -0.017 OA 
HETATM   58  C   UNL     1      -6.202   1.642  66.509  1.00  0.00    -0.020 C  
ENDBRANCH  34  57
BRANCH  51  59
HETATM   59  C   UNL     1     -10.636  12.265  64.253  1.00  0.00    -0.387 C  
HETATM   60  C   UNL     1     -11.797  12.590  64.834  1.00  0.00    -0.438 C  
ENDBRANCH  51  59
ENDBRANCH  13  14
ENDBRANCH   5  11
ENDBRANCH   2   3
TORSDOF 6
ENDMDL
MODEL       15
REMARK 921   NORMALIZED FREE ENERGY PREDICTED BY IDOCK:    4.35 KCAL/MOL
REMARK 922        TOTAL FREE ENERGY PREDICTED BY IDOCK:    4.27 KCAL/MOL
REMARK 923 INTER-LIGAND FREE ENERGY PREDICTED BY IDOCK:    4.81 KCAL/MOL
REMARK 924 INTRA-LIGAND FREE ENERGY PREDICTED BY IDOCK:   -0.53 KCAL/MOL
REMARK 927      BINDING AFFINITY PREDICTED BY RF-SCORE:    0.00 PKD
ROOT
HETATM    1  C   UNL     1     -10.337  14.631  65.089  1.00  0.00    -0.403 C  
HETATM    2  O   UNL     1      -9.389  15.627  65.460  1.00  0.00    -0.252 OA 
ENDROOT
BRANCH   2   3
HETATM    3  C   UNL     1      -8.920  15.486  66.805  1.00  0.00    -0.266 C  
HETATM    4  C   UNL     1      -9.351  14.132  67.402  1.00  0.00    -0.215 C  
HETATM    5  C   UNL     1      -8.921  14.143  68.851  1.00  0.00     0.019 C  
HETATM    6  O   UNL     1      -8.613  17.868  67.346  1.00  0.00    -0.235 OA 
HETATM    7  C   UNL     1      -9.824  15.144  69.590  1.00  0.00    -0.162 C  
HETATM    8  C   UNL     1      -9.406  16.712  67.650  1.00  0.00    -0.224 C  
HETATM    9  C   UNL     1      -9.349  16.524  69.178  1.00  0.00    -0.207 C  
HETATM   10  H   UNL     1      -8.908  18.611  67.859  1.00  0.00     0.000 HD 
BRANCH   5  11
HETATM   11  C   UNL     1      -8.814  12.832  69.566  1.00  0.00     1.622 C  
HETATM   12  C   UNL     1      -9.160  11.237  67.599  1.00  0.00    -0.149 C  
HETATM   13  C   UNL     1      -8.481  11.768  68.800  1.00  0.00     0.005 C  
BRANCH  13  14
HETATM   14  C   UNL     1      -7.091  11.195  68.992  1.00  0.00    -0.113 C  
HETATM   15  C   UNL     1      -6.772   9.628  70.816  1.00  0.00    -0.094 C  
HETATM   16  O   UNL     1      -7.258   9.848  69.544  1.00  0.00    -0.073 OA 
HETATM   17  O   UNL     1      -5.876  10.295  71.335  1.00  0.00    -0.273 OA 
HETATM   18  C   UNL     1      -7.466   8.403  71.525  1.00  0.00    -0.098 C  
HETATM   19  C   UNL     1      -6.451   7.704  72.490  1.00  0.00    -0.060 C  
HETATM   20  C   UNL     1      -6.408   8.313  73.901  1.00  0.00    -0.131 C  
HETATM   21  C   UNL     1      -7.804   8.333  74.508  1.00  0.00    -0.300 C  
HETATM   22  C   UNL     1      -8.713   9.142  73.597  1.00  0.00     1.930 C  
HETATM   23  N   UNL     1      -8.773   8.557  72.254  1.00  0.00    -0.208 N  
HETATM   24  C   UNL     1      -9.930   7.798  71.991  1.00  0.00    -0.179 C  
HETATM   25  C   UNL     1     -10.358   7.542  70.566  1.00  0.00    -0.215 C  
HETATM   26  O   UNL     1     -10.737   7.479  72.864  1.00  0.00    -0.290 OA 
HETATM   27  C   UNL     1     -10.800   6.120  70.087  1.00  0.00    -0.329 C  
HETATM   28  O   UNL     1     -10.379   8.518  69.813  1.00  0.00    -0.203 OA 
HETATM   29  O   UNL     1      -9.730   5.414  69.470  1.00  0.00    -0.149 OA 
HETATM   30  O   UNL     1     -11.731   6.392  69.011  1.00  0.00    -0.552 OA 
HETATM   31  C   UNL     1      -8.718   4.915  70.331  1.00  0.00    -0.100 C  
HETATM   32  H   UNL     1     -11.999   5.528  68.720  1.00  0.00     0.000 HD 
HETATM   33  C   UNL     1      -7.500   4.435  69.463  1.00  0.00    -0.054 C  
HETATM   34  C   UNL     1      -9.343   3.885  71.298  1.00  0.00    -0.143 C  
HETATM   35  C   UNL     1      -5.136  12.484  68.016  1.00  0.00    -0.077 C  
HETATM   36  H   UNL     1      -4.619  11.613  65.951  1.00  0.00     0.000 HD 
HETATM   37  C   UNL     1      -6.855   5.563  68.567  1.00  0.00    -0.059 C  
HETATM   38  C   UNL     1     -10.592   4.480  71.995  1.00  0.00    -0.103 C  
HETATM   39  O   UNL     1      -5.341  11.452  65.353  1.00  0.00    -0.199 OA 
HETATM   40  C   UNL     1      -7.673   6.001  67.316  1.00  0.00    -0.097 C  
HETATM   41  C   UNL     1      -6.179  11.337  67.652  1.00  0.00    -0.055 C  
HETATM   42  C   UNL     1     -11.530   5.106  70.966  1.00  0.00     0.963 C  
HETATM   43  C   UNL     1      -6.834   6.568  66.155  1.00  0.00    -0.057 C  
HETATM   44  C   UNL     1      -8.741   7.039  67.657  1.00  0.00    -0.121 C  
HETATM   45  C   UNL     1     -12.881   5.573  71.501  1.00  0.00     2.284 C  
HETATM   46  C   UNL     1      -7.741   7.062  65.015  1.00  0.00    -0.115 C  
HETATM   47  C   UNL     1      -7.567   8.338  64.616  1.00  0.00    -0.106 C  
HETATM   48  C   UNL     1      -8.881   6.181  64.571  1.00  0.00     0.377 C  
HETATM   49  C   UNL     1      -8.393   9.238  63.730  1.00  0.00    -0.180 C  
HETATM   50  C   UNL     1      -7.618  10.567  63.841  1.00  0.00     0.073 C  
HETATM   51  C   UNL     1      -9.908   9.398  64.031  1.00  0.00     1.112 C  
HETATM   52  C   UNL     1      -6.559  11.731  66.085  1.00  0.00     0.583 C  
HETATM   53  C   UNL     1      -7.754  11.465  65.096  1.00  0.00     0.865 C  
HETATM   54  O   UNL     1      -6.816  10.889  62.957  1.00  0.00     0.085 OA 
BRANCH  33  55
HETATM   55  O   UNL     1      -7.829   3.378  68.549  1.00  0.00    -0.059 OA 
HETATM   56  C   UNL     1      -7.156   2.151  68.749  1.00  0.00    -0.043 C  
ENDBRANCH  33  55
BRANCH  34  57
HETATM   57  O   UNL     1      -8.360   3.476  72.248  1.00  0.00    -0.081 OA 
HETATM   58  C   UNL     1      -8.885   3.290  73.559  1.00  0.00    -0.080 C  
ENDBRANCH  34  57
BRANCH  51  59
HETATM   59  C   UNL     1     -10.781  10.116  63.015  1.00  0.00     1.961 C  
HETATM   60  C   UNL     1     -11.304  11.345  63.102  1.00  0.00     0.033 C  
ENDBRANCH  51  59
ENDBRANCH  13  14
ENDBRANCH   5  11
ENDBRANCH   2   3
TORSDOF 6
ENDMDL
MODEL       16
REMARK 921   NORMALIZED FREE ENERGY PREDICTED BY IDOCK:    4.84 KCAL/MOL
REMARK 922        TOTAL FREE ENERGY PREDICTED BY IDOCK:    4.94 KCAL/MOL
REMARK 923 INTER-LIGAND FREE ENERGY PREDICTED BY IDOCK:   -3.32 KCAL/MOL
REMARK 924 INTRA-LIGAND FREE ENERGY PREDICTED BY IDOCK:    8.26 KCAL/MOL
REMARK 927      BINDING AFFINITY PREDICTED BY RF-SCORE:    0.00 PKD
ROOT
HETATM    1  C   UNL     1      -5.143  12.040  70.359  1.00  0.00    -0.102 C  
HETATM    2  O   UNL     1      -6.488  11.573  70.323  1.00  0.00    -0.194 OA 
ENDROOT
BRANCH   2   3
HETATM    3  C   UNL     1      -7.264  12.168  69.278  1.00  0.00     0.097 C  
HETATM    4  C   UNL     1      -6.864  11.602  67.901  1.00  0.00    -0.074 C  
HETATM    5  C   UNL     1      -7.642  12.384  66.870  1.00  0.00     0.037 C  
HETATM    6  O   UNL     1      -7.933  14.234  70.437  1.00  0.00     0.465 OA 
HETATM    7  C   UNL     1      -7.059  13.806  66.836  1.00  0.00     0.874 C  
HETATM    8  C   UNL     1      -7.131  13.726  69.362  1.00  0.00     0.052 C  
HETATM    9  C   UNL     1      -7.551  14.494  68.095  1.00  0.00    -0.125 C  
HETATM   10  H   UNL     1      -7.852  15.179  70.488  1.00  0.00     0.000 HD 
BRANCH   5  11
HETATM   11  C   UNL     1      -7.795  11.795  65.502  1.00  0.00     1.031 C  
HETATM   12  C   UNL     1      -6.470   9.631  65.814  1.00  0.00    -0.079 C  
HETATM   13  C   UNL     1      -7.631  10.454  65.416  1.00  0.00    -0.131 C  
BRANCH  13  14
HETATM   14  C   UNL     1      -8.875   9.629  65.151  1.00  0.00    -0.180 C  
HETATM   15  C   UNL     1      -9.044   7.478  66.258  1.00  0.00    -0.157 C  
HETATM   16  O   UNL     1      -9.136   8.850  66.363  1.00  0.00    -0.152 OA 
HETATM   17  O   UNL     1      -9.182   6.858  65.203  1.00  0.00     0.387 OA 
HETATM   18  C   UNL     1      -8.776   6.782  67.646  1.00  0.00    -0.119 C  
HETATM   19  C   UNL     1      -9.449   5.369  67.669  1.00  0.00    -0.132 C  
HETATM   20  C   UNL     1      -8.568   4.245  67.097  1.00  0.00    -0.104 C  
HETATM   21  C   UNL     1      -7.225   4.215  67.813  1.00  0.00    -0.064 C  
HETATM   22  C   UNL     1      -6.557   5.570  67.640  1.00  0.00    -0.053 C  
HETATM   23  N   UNL     1      -7.383   6.644  68.198  1.00  0.00    -0.088 N  
HETATM   24  C   UNL     1      -6.975   7.105  69.465  1.00  0.00    -0.058 C  
HETATM   25  C   UNL     1      -7.403   8.471  69.945  1.00  0.00    -0.055 C  
HETATM   26  O   UNL     1      -6.122   6.536  70.145  1.00  0.00    -0.028 OA 
HETATM   27  C   UNL     1      -7.949   8.696  71.394  1.00  0.00    -0.137 C  
HETATM   28  O   UNL     1      -7.263   9.403  69.151  1.00  0.00    -0.064 OA 
HETATM   29  O   UNL     1      -9.371   8.677  71.432  1.00  0.00    -0.190 OA 
HETATM   30  O   UNL     1      -7.590  10.067  71.689  1.00  0.00     0.478 OA 
HETATM   31  C   UNL     1      -9.994   7.410  71.290  1.00  0.00    -0.187 C  
HETATM   32  H   UNL     1      -7.921  10.204  72.569  1.00  0.00     0.000 HD 
HETATM   33  C   UNL     1     -11.534   7.621  71.065  1.00  0.00    -0.276 C  
HETATM   34  C   UNL     1      -9.572   6.507  72.471  1.00  0.00    -0.151 C  
HETATM   35  C   UNL     1     -10.192  10.123  63.040  1.00  0.00     0.733 C  
HETATM   36  H   UNL     1     -11.915  11.560  63.549  1.00  0.00     0.000 HD 
HETATM   37  C   UNL     1     -11.893   8.478  69.789  1.00  0.00     0.693 C  
HETATM   38  C   UNL     1      -8.030   6.490  72.621  1.00  0.00    -0.103 C  
HETATM   39  O   UNL     1     -11.706  12.316  64.086  1.00  0.00    -0.350 OA 
HETATM   40  C   UNL     1     -11.620  10.008  69.888  1.00  0.00    -0.237 C  
HETATM   41  C   UNL     1     -10.099  10.534  64.576  1.00  0.00    -0.402 C  
HETATM   42  C   UNL     1      -7.479   7.914  72.619  1.00  0.00    -0.127 C  
HETATM   43  C   UNL     1     -12.509  10.888  68.989  1.00  0.00     0.265 C  
HETATM   44  C   UNL     1     -10.166  10.358  69.576  1.00  0.00    -0.258 C  
HETATM   45  C   UNL     1      -5.992   8.047  72.935  1.00  0.00    -0.060 C  
HETATM   46  C   UNL     1     -12.093  12.365  69.086  1.00  0.00    -0.195 C  
HETATM   47  C   UNL     1     -11.803  12.987  67.925  1.00  0.00    -0.389 C  
HETATM   48  C   UNL     1     -11.836  12.951  70.450  1.00  0.00    -0.239 C  
HETATM   49  C   UNL     1     -11.143  14.312  67.629  1.00  0.00    -0.305 C  
HETATM   50  C   UNL     1     -11.060  14.272  66.090  1.00  0.00    -0.324 C  
HETATM   51  C   UNL     1      -9.780  14.635  68.298  1.00  0.00    -0.215 C  
HETATM   52  C   UNL     1     -10.321  12.177  64.485  1.00  0.00    -0.304 C  
HETATM   53  C   UNL     1      -9.976  13.428  65.373  1.00  0.00    -0.211 C  
HETATM   54  O   UNL     1     -11.912  14.854  65.410  1.00  0.00    -0.262 OA 
BRANCH  33  55
HETATM   55  O   UNL     1     -12.187   8.287  72.156  1.00  0.00    -0.325 OA 
HETATM   56  C   UNL     1     -13.576   8.507  72.008  1.00  0.00    -0.392 C  
ENDBRANCH  33  55
BRANCH  34  57
HETATM   57  O   UNL     1     -10.091   5.194  72.267  1.00  0.00    -0.179 OA 
HETATM   58  C   UNL     1      -9.505   4.521  71.156  1.00  0.00    -0.160 C  
ENDBRANCH  34  57
BRANCH  51  59
HETATM   59  C   UNL     1      -9.229  16.047  68.185  1.00  0.00    -0.195 C  
HETATM   60  C   UNL     1      -9.915  17.194  68.106  1.00  0.00    -0.297 C  
ENDBRANCH  51  59
ENDBRANCH  13  14
ENDBRANCH   5  11
ENDBRANCH   2   3
TORSDOF 6
ENDMDL
MODEL       17
REMARK 921   NORMALIZED FREE ENERGY PREDICTED BY IDOCK:    5.90 KCAL/MOL
REMARK 922        TOTAL FREE ENERGY PREDICTED BY IDOCK:    6.37 KCAL/MOL
REMARK 923 INTER-LIGAND FREE ENERGY PREDICTED BY IDOCK:    1.42 KCAL/MOL
REMARK 924 INTRA-LIGAND FREE ENERGY PREDICTED BY IDOCK:    4.95 KCAL/MOL
REMARK 927      BINDING AFFINITY PREDICTED BY RF-SCORE:    0.00 PKD
ROOT
HETATM    1  C   UNL     1      -5.681  13.372  71.297  1.00  0.00    -0.102 C  
HETATM    2  O   UNL     1      -5.239  12.048  71.015  1.00  0.00    -0.129 OA 
ENDROOT
BRANCH   2   3
HETATM    3  C   UNL     1      -6.140  11.319  70.174  1.00  0.00    -0.149 C  
HETATM    4  C   UNL     1      -6.738  10.110  70.920  1.00  0.00     0.129 C  
HETATM    5  C   UNL     1      -7.562   9.345  69.912  1.00  0.00    -0.109 C  
HETATM    6  O   UNL     1      -5.289  12.057  67.985  1.00  0.00    -0.046 OA 
HETATM    7  C   UNL     1      -6.584   8.687  68.925  1.00  0.00    -0.053 C  
HETATM    8  C   UNL     1      -5.400  10.920  68.853  1.00  0.00    -0.040 C  
HETATM    9  C   UNL     1      -6.071   9.801  68.034  1.00  0.00    -0.054 C  
HETATM   10  H   UNL     1      -4.840  11.815  67.184  1.00  0.00     0.000 HD 
BRANCH   5  11
HETATM   11  C   UNL     1      -8.592   8.387  70.423  1.00  0.00    -0.136 C  
HETATM   12  C   UNL     1      -9.617   9.805  72.285  1.00  0.00     3.101 C  
HETATM   13  C   UNL     1      -9.633   8.939  71.088  1.00  0.00    -0.342 C  
BRANCH  13  14
HETATM   14  C   UNL     1     -10.977   8.928  70.388  1.00  0.00    -0.244 C  
HETATM   15  C   UNL     1     -11.966  11.072  69.837  1.00  0.00    -0.351 C  
HETATM   16  O   UNL     1     -11.022  10.115  69.532  1.00  0.00    -0.228 OA 
HETATM   17  O   UNL     1     -13.005  10.840  70.458  1.00  0.00    -0.299 OA 
HETATM   18  C   UNL     1     -11.591  12.495  69.273  1.00  0.00    -0.319 C  
HETATM   19  C   UNL     1     -12.894  13.283  68.909  1.00  0.00     1.274 C  
HETATM   20  C   UNL     1     -13.500  14.066  70.086  1.00  0.00     0.913 C  
HETATM   21  C   UNL     1     -12.458  14.997  70.690  1.00  0.00    -0.422 C  
HETATM   22  C   UNL     1     -11.275  14.160  71.150  1.00  0.00     0.843 C  
HETATM   23  N   UNL     1     -10.680  13.423  70.030  1.00  0.00     0.655 N  
HETATM   24  C   UNL     1      -9.502  13.991  69.508  1.00  0.00     0.712 C  
HETATM   25  C   UNL     1      -8.543  13.141  68.711  1.00  0.00     0.149 C  
HETATM   26  O   UNL     1      -9.101  15.112  69.820  1.00  0.00    -0.148 OA 
HETATM   27  C   UNL     1      -7.926  13.645  67.364  1.00  0.00    -0.166 C  
HETATM   28  O   UNL     1      -8.241  12.049  69.196  1.00  0.00     0.165 OA 
HETATM   29  O   UNL     1      -8.655  13.170  66.239  1.00  0.00     0.181 OA 
HETATM   30  O   UNL     1      -6.650  12.963  67.292  1.00  0.00    -0.258 OA 
HETATM   31  C   UNL     1      -9.917  13.773  65.998  1.00  0.00    -0.306 C  
HETATM   32  H   UNL     1      -6.275  13.270  66.474  1.00  0.00     0.000 HD 
HETATM   33  C   UNL     1     -10.686  12.934  64.916  1.00  0.00    -0.312 C  
HETATM   34  C   UNL     1      -9.709  15.276  65.708  1.00  0.00    -0.350 C  
HETATM   35  C   UNL     1     -12.406   6.843  70.608  1.00  0.00    -0.248 C  
HETATM   36  H   UNL     1     -12.053   5.494  68.779  1.00  0.00     0.000 HD 
HETATM   37  C   UNL     1     -10.941  11.429  65.319  1.00  0.00    -0.251 C  
HETATM   38  C   UNL     1      -8.846  15.931  66.814  1.00  0.00    -0.294 C  
HETATM   39  O   UNL     1     -11.152   5.344  68.517  1.00  0.00     0.108 OA 
HETATM   40  C   UNL     1      -9.702  10.486  65.283  1.00  0.00    -0.328 C  
HETATM   41  C   UNL     1     -11.288   7.495  69.681  1.00  0.00     0.067 C  
HETATM   42  C   UNL     1      -7.588  15.105  67.069  1.00  0.00    -0.121 C  
HETATM   43  C   UNL     1     -10.023   8.999  65.040  1.00  0.00     0.883 C  
HETATM   44  C   UNL     1      -8.872  10.571  66.562  1.00  0.00    -0.155 C  
HETATM   45  C   UNL     1      -6.565  15.732  68.012  1.00  0.00    -0.147 C  
HETATM   46  C   UNL     1      -8.747   8.144  65.121  1.00  0.00    -0.047 C  
HETATM   47  C   UNL     1      -8.768   7.111  65.987  1.00  0.00    -0.162 C  
HETATM   48  C   UNL     1      -7.511   8.627  64.406  1.00  0.00    -0.108 C  
HETATM   49  C   UNL     1      -7.673   6.219  66.519  1.00  0.00    -0.099 C  
HETATM   50  C   UNL     1      -8.449   5.362  67.540  1.00  0.00    -0.106 C  
HETATM   51  C   UNL     1      -6.403   6.875  67.126  1.00  0.00    -0.044 C  
HETATM   52  C   UNL     1     -10.325   6.180  69.363  1.00  0.00    -0.227 C  
HETATM   53  C   UNL     1      -8.833   5.932  68.929  1.00  0.00    -0.115 C  
HETATM   54  O   UNL     1      -8.841   4.233  67.227  1.00  0.00    -0.107 OA 
BRANCH  33  55
HETATM   55  O   UNL     1     -10.006  12.869  63.653  1.00  0.00    -0.282 OA 
HETATM   56  C   UNL     1     -10.271  11.726  62.863  1.00  0.00    -0.025 C  
ENDBRANCH  33  55
BRANCH  34  57
HETATM   57  O   UNL     1     -10.981  15.913  65.592  1.00  0.00    -0.290 OA 
HETATM   58  C   UNL     1     -10.900  17.335  65.562  1.00  0.00    -0.023 C  
ENDBRANCH  34  57
BRANCH  51  59
HETATM   59  C   UNL     1      -5.210   5.990  67.450  1.00  0.00    -0.005 C  
HETATM   60  C   UNL     1      -5.210   4.806  68.074  1.00  0.00    -0.011 C  
ENDBRANCH  51  59
ENDBRANCH  13  14
ENDBRANCH   5  11
ENDBRANCH   2   3
TORSDOF 6
ENDMDL
MODEL       18
REMARK 921   NORMALIZED FREE ENERGY PREDICTED BY IDOCK:    6.50 KCAL/MOL
REMARK 922        TOTAL FREE ENERGY PREDICTED BY IDOCK:    7.18 KCAL/MOL
REMARK 923 INTER-LIGAND FREE ENERGY PREDICTED BY IDOCK:   -2.51 KCAL/MOL
REMARK 924 INTRA-LIGAND FREE ENERGY PREDICTED BY IDOCK:    9.69 KCAL/MOL
REMARK 927      BINDING AFFINITY PREDICTED BY RF-SCORE:    0.00 PKD
ROOT
HETATM    1  C   UNL     1     -11.762   6.792  67.847  1.00  0.00     1.023 C  
HETATM    2  O   UNL     1     -11.168   6.191  68.993  1.00  0.00    -0.383 OA 
ENDROOT
BRANCH   2   3
HETATM    3  C   UNL     1      -9.777   5.901  68.821  1.00  0.00    -0.131 C  
HETATM    4  C   UNL     1      -8.911   6.768  69.755  1.00  0.00    -0.141 C  
HETATM    5  C   UNL     1      -7.471   6.478  69.402  1.00  0.00    -0.094 C  
HETATM    6  O   UNL     1      -9.873   4.938  66.557  1.00  0.00    -0.163 OA 
HETATM    7  C   UNL     1      -7.205   7.097  68.020  1.00  0.00    -0.091 C  
HETATM    8  C   UNL     1      -9.401   6.065  67.309  1.00  0.00    -0.113 C  
HETATM    9  C   UNL     1      -7.895   6.196  67.014  1.00  0.00    -0.101 C  
HETATM   10  H   UNL     1      -9.645   5.038  65.640  1.00  0.00     0.000 HD 
BRANCH   5  11
HETATM   11  C   UNL     1      -6.413   6.830  70.400  1.00  0.00    -0.043 C  
HETATM   12  C   UNL     1      -5.125   8.587  69.064  1.00  0.00    -0.032 C  
HETATM   13  C   UNL     1      -5.832   8.042  70.241  1.00  0.00    -0.026 C  
BRANCH  13  14
HETATM   14  C   UNL     1      -6.173   9.104  71.267  1.00  0.00    -0.073 C  
HETATM   15  C   UNL     1      -6.774  11.303  70.440  1.00  0.00     0.440 C  
HETATM   16  O   UNL     1      -7.157   9.995  70.648  1.00  0.00    -0.281 OA 
HETATM   17  O   UNL     1      -5.891  11.872  71.083  1.00  0.00    -0.379 OA 
HETATM   18  C   UNL     1      -7.617  12.007  69.309  1.00  0.00     0.256 C  
HETATM   19  C   UNL     1      -7.762  13.532  69.628  1.00  0.00     0.811 C  
HETATM   20  C   UNL     1      -6.602  14.395  69.103  1.00  0.00    -0.112 C  
HETATM   21  C   UNL     1      -6.414  14.171  67.609  1.00  0.00    -0.153 C  
HETATM   22  C   UNL     1      -6.140  12.694  67.374  1.00  0.00    -0.141 C  
HETATM   23  N   UNL     1      -7.250  11.866  67.857  1.00  0.00    -0.088 N  
HETATM   24  C   UNL     1      -8.123  11.404  66.852  1.00  0.00    -0.158 C  
HETATM   25  C   UNL     1      -8.996  10.200  67.106  1.00  0.00    -0.135 C  
HETATM   26  O   UNL     1      -8.086  11.812  65.692  1.00  0.00     0.377 OA 
HETATM   27  C   UNL     1     -10.512  10.190  66.718  1.00  0.00    -0.204 C  
HETATM   28  O   UNL     1      -8.444   9.212  67.596  1.00  0.00    -0.116 OA 
HETATM   29  O   UNL     1     -11.342  10.526  67.823  1.00  0.00    -0.367 OA 
HETATM   30  O   UNL     1     -10.792   8.794  66.456  1.00  0.00    -0.023 OA 
HETATM   31  C   UNL     1     -11.352  11.888  68.220  1.00  0.00    -0.277 C  
HETATM   32  H   UNL     1     -11.713   8.788  66.220  1.00  0.00     0.000 HD 
HETATM   33  C   UNL     1     -12.078  12.010  69.608  1.00  0.00    -0.230 C  
HETATM   34  C   UNL     1     -11.903  12.746  67.059  1.00  0.00    -0.361 C  
HETATM   35  C   UNL     1      -5.305   8.786  73.630  1.00  0.00    -0.095 C  
HETATM   36  H   UNL     1      -6.945   7.800  74.906  1.00  0.00     0.000 HD 
HETATM   37  C   UNL     1     -11.407  11.177  70.768  1.00  0.00     0.323 C  
HETATM   38  C   UNL     1     -11.150  12.430  65.743  1.00  0.00    -0.351 C  
HETATM   39  O   UNL     1      -7.395   7.050  74.533  1.00  0.00    -0.100 OA 
HETATM   40  C   UNL     1     -11.607   9.634  70.712  1.00  0.00    -0.395 C  
HETATM   41  C   UNL     1      -6.563   8.459  72.710  1.00  0.00    -0.103 C  
HETATM   42  C   UNL     1     -11.092  10.922  65.510  1.00  0.00     0.075 C  
HETATM   43  C   UNL     1     -11.542   8.919  72.076  1.00  0.00    -0.435 C  
HETATM   44  C   UNL     1     -10.597   8.952  69.791  1.00  0.00    -0.230 C  
HETATM   45  C   UNL     1     -10.531  10.483  64.160  1.00  0.00    -0.013 C  
HETATM   46  C   UNL     1     -11.650   7.395  71.901  1.00  0.00    -0.307 C  
HETATM   47  C   UNL     1     -10.663   6.654  72.443  1.00  0.00    -0.252 C  
HETATM   48  C   UNL     1     -12.710   6.852  70.976  1.00  0.00    -0.269 C  
HETATM   49  C   UNL     1     -10.290   5.201  72.283  1.00  0.00    -0.267 C  
HETATM   50  C   UNL     1      -8.995   5.126  73.119  1.00  0.00    -0.118 C  
HETATM   51  C   UNL     1     -10.116   4.626  70.852  1.00  0.00    -0.257 C  
HETATM   52  C   UNL     1      -6.910   6.904  73.176  1.00  0.00    -0.074 C  
HETATM   53  C   UNL     1      -7.655   5.664  72.558  1.00  0.00    -0.098 C  
HETATM   54  O   UNL     1      -9.033   4.707  74.281  1.00  0.00    -0.108 OA 
BRANCH  33  55
HETATM   55  O   UNL     1     -13.445  11.573  69.579  1.00  0.00     1.336 OA 
HETATM   56  C   UNL     1     -13.857  10.749  70.652  1.00  0.00     1.358 C  
ENDBRANCH  33  55
BRANCH  34  57
HETATM   57  O   UNL     1     -11.796  14.127  67.403  1.00  0.00    -0.374 OA 
HETATM   58  C   UNL     1     -10.512  14.679  67.130  1.00  0.00    -0.268 C  
ENDBRANCH  34  57
BRANCH  51  59
HETATM   59  C   UNL     1      -9.967   3.123  70.683  1.00  0.00     0.171 C  
HETATM   60  C   UNL     1      -8.935   2.452  70.156  1.00  0.00    -0.158 C  
ENDBRANCH  51  59
ENDBRANCH  13  14
ENDBRANCH   5  11
ENDBRANCH   2   3
TORSDOF 6
ENDMDL
MODEL       19
REMARK 921   NORMALIZED FREE ENERGY PREDICTED BY IDOCK:    8.47 KCAL/MOL
REMARK 922        TOTAL FREE ENERGY PREDICTED BY IDOCK:    9.84 KCAL/MOL
REMARK 923 INTER-LIGAND FREE ENERGY PREDICTED BY IDOCK:    2.67 KCAL/MOL
REMARK 924 INTRA-LIGAND FREE ENERGY PREDICTED BY IDOCK:    7.17 KCAL/MOL
REMARK 927      BINDING AFFINITY PREDICTED BY RF-SCORE:    0.00 PKD
ROOT
HETATM    1  C   UNL     1      -5.316  15.074  70.396  1.00  0.00    -0.128 C  
HETATM    2  O   UNL     1      -5.191  13.655  70.391  1.00  0.00    -0.097 OA 
ENDROOT
BRANCH   2   3
HETATM    3  C   UNL     1      -6.048  13.017  69.439  1.00  0.00    -0.108 C  
HETATM    4  C   UNL     1      -6.388  11.579  69.876  1.00  0.00    -0.136 C  
HETATM    5  C   UNL     1      -7.180  10.960  68.749  1.00  0.00    -0.091 C  
HETATM    6  O   UNL     1      -5.523  14.404  67.474  1.00  0.00    -0.340 OA 
HETATM    7  C   UNL     1      -6.211  10.739  67.576  1.00  0.00    -0.053 C  
HETATM    8  C   UNL     1      -5.383  13.086  68.022  1.00  0.00    -0.103 C  
HETATM    9  C   UNL     1      -5.953  12.108  66.978  1.00  0.00    -0.095 C  
HETATM   10  H   UNL     1      -5.119  14.446  66.615  1.00  0.00     0.000 HD 
BRANCH   5  11
HETATM   11  C   UNL     1      -8.004   9.747  69.047  1.00  0.00    -0.096 C  
HETATM   12  C   UNL     1      -8.584  10.208  71.493  1.00  0.00     3.127 C  
HETATM   13  C   UNL     1      -8.865   9.859  70.085  1.00  0.00    -0.146 C  
BRANCH  13  14
HETATM   14  C   UNL     1     -10.341   9.923  69.746  1.00  0.00    -0.246 C  
HETATM   15  C   UNL     1     -11.448  12.068  69.984  1.00  0.00    -0.101 C  
HETATM   16  O   UNL     1     -10.604  11.272  69.239  1.00  0.00    -0.212 OA 
HETATM   17  O   UNL     1     -12.298  11.630  70.761  1.00  0.00    -0.376 OA 
HETATM   18  C   UNL     1     -11.232  13.604  69.708  1.00  0.00    -0.027 C  
HETATM   19  C   UNL     1     -12.589  14.368  69.870  1.00  0.00    -0.217 C  
HETATM   20  C   UNL     1     -12.889  14.815  71.311  1.00  0.00    -0.408 C  
HETATM   21  C   UNL     1     -11.734  15.645  71.855  1.00  0.00    -0.544 C  
HETATM   22  C   UNL     1     -10.469  14.803  71.800  1.00  0.00     1.886 C  
HETATM   23  N   UNL     1     -10.168  14.387  70.427  1.00  0.00     0.792 N  
HETATM   24  C   UNL     1      -9.159  15.138  69.790  1.00  0.00     0.035 C  
HETATM   25  C   UNL     1      -8.423  14.562  68.606  1.00  0.00    -0.161 C  
HETATM   26  O   UNL     1      -8.699  16.178  70.260  1.00  0.00     0.961 OA 
HETATM   27  C   UNL     1      -8.163  15.405  67.314  1.00  0.00    -0.196 C  
HETATM   28  O   UNL     1      -8.004  13.409  68.725  1.00  0.00    -0.093 OA 
HETATM   29  O   UNL     1      -9.146  15.159  66.316  1.00  0.00    -0.288 OA 
HETATM   30  O   UNL     1      -6.942  14.844  66.775  1.00  0.00    -0.236 OA 
HETATM   31  C   UNL     1     -10.432  15.717  66.538  1.00  0.00    -0.303 C  
HETATM   32  H   UNL     1      -6.784  15.356  65.990  1.00  0.00     0.000 HD 
HETATM   33  C   UNL     1     -11.441  15.105  65.501  1.00  0.00    -0.213 C  
HETATM   34  C   UNL     1     -10.311  17.257  66.579  1.00  0.00    -0.308 C  
HETATM   35  C   UNL     1     -11.659   7.756  69.791  1.00  0.00     0.302 C  
HETATM   36  H   UNL     1     -11.763   6.897  67.660  1.00  0.00     0.000 HD 
HETATM   37  C   UNL     1     -11.580  13.535  65.578  1.00  0.00    -0.337 C  
HETATM   38  C   UNL     1      -9.204  17.691  67.571  1.00  0.00    -0.243 C  
HETATM   39  O   UNL     1     -10.955   6.871  67.161  1.00  0.00    -0.361 OA 
HETATM   40  C   UNL     1     -10.383  12.710  65.018  1.00  0.00    -0.320 C  
HETATM   41  C   UNL     1     -10.809   8.678  68.809  1.00  0.00    -0.009 C  
HETATM   42  C   UNL     1      -7.917  16.913  67.308  1.00  0.00    -0.198 C  
HETATM   43  C   UNL     1     -10.746  11.302  64.506  1.00  0.00    -0.390 C  
HETATM   44  C   UNL     1      -9.261  12.548  66.042  1.00  0.00    -0.020 C  
HETATM   45  C   UNL     1      -6.696  17.368  68.101  1.00  0.00    -0.178 C  
HETATM   46  C   UNL     1      -9.486  10.537  64.069  1.00  0.00    -0.337 C  
HETATM   47  C   UNL     1      -9.285   9.332  64.639  1.00  0.00    -0.112 C  
HETATM   48  C   UNL     1      -8.469  11.253  63.218  1.00  0.00     0.245 C  
HETATM   49  C   UNL     1      -8.087   8.414  64.660  1.00  0.00    -0.156 C  
HETATM   50  C   UNL     1      -8.580   7.294  65.599  1.00  0.00    -0.109 C  
HETATM   51  C   UNL     1      -6.710   8.992  65.085  1.00  0.00    -0.072 C  
HETATM   52  C   UNL     1      -9.949   7.539  67.961  1.00  0.00    -0.172 C  
HETATM   53  C   UNL     1      -8.610   7.498  67.134  1.00  0.00    -0.121 C  
HETATM   54  O   UNL     1      -9.031   6.245  65.125  1.00  0.00     0.043 OA 
BRANCH  33  55
HETATM   55  O   UNL     1     -11.097  15.381  64.135  1.00  0.00    -0.070 OA 
HETATM   56  C   UNL     1     -12.179  15.523  63.237  1.00  0.00     2.054 C  
ENDBRANCH  33  55
BRANCH  34  57
HETATM   57  O   UNL     1     -11.576  17.819  66.929  1.00  0.00     0.946 OA 
HETATM   58  C   UNL     1     -11.471  18.973  67.758  1.00  0.00     0.872 C  
ENDBRANCH  34  57
BRANCH  51  59
HETATM   59  C   UNL     1      -5.469   8.136  64.889  1.00  0.00    -0.040 C  
HETATM   60  C   UNL     1      -5.403   6.810  64.718  1.00  0.00    -0.027 C  
ENDBRANCH  51  59
ENDBRANCH  13  14
ENDBRANCH   5  11
ENDBRANCH   2   3
TORSDOF 6
ENDMDL
MODEL       20
REMARK 921   NORMALIZED FREE ENERGY PREDICTED BY IDOCK:   10.28 KCAL/MOL
REMARK 922        TOTAL FREE ENERGY PREDICTED BY IDOCK:   12.29 KCAL/MOL
REMARK 923 INTER-LIGAND FREE ENERGY PREDICTED BY IDOCK:    3.18 KCAL/MOL
REMARK 924 INTRA-LIGAND FREE ENERGY PREDICTED BY IDOCK:    9.11 KCAL/MOL
REMARK 927      BINDING AFFINITY PREDICTED BY RF-SCORE:    0.00 PKD
ROOT
HETATM    1  C   UNL     1     -11.039   6.232  72.524  1.00  0.00    -0.272 C  
HETATM    2  O   UNL     1      -9.824   6.670  71.923  1.00  0.00    -0.167 OA 
ENDROOT
BRANCH   2   3
HETATM    3  C   UNL     1     -10.024   7.624  70.875  1.00  0.00    -0.180 C  
HETATM    4  C   UNL     1      -9.700   7.011  69.499  1.00  0.00    -0.160 C  
HETATM    5  C   UNL     1      -9.816   8.128  68.490  1.00  0.00    -0.190 C  
HETATM    6  O   UNL     1      -9.833   9.687  72.205  1.00  0.00     0.694 OA 
HETATM    7  C   UNL     1      -8.634   9.083  68.725  1.00  0.00    -0.132 C  
HETATM    8  C   UNL     1      -9.187   8.911  71.186  1.00  0.00    -0.256 C  
HETATM    9  C   UNL     1      -8.959   9.854  69.990  1.00  0.00    -0.206 C  
HETATM   10  H   UNL     1      -9.325  10.468  72.394  1.00  0.00     0.000 HD 
BRANCH   5  11
HETATM   11  C   UNL     1      -9.980   7.764  67.047  1.00  0.00    -0.314 C  
HETATM   12  C   UNL     1     -11.785   9.447  66.380  1.00  0.00     4.002 C  
HETATM   13  C   UNL     1     -10.500   8.727  66.252  1.00  0.00     0.160 C  
BRANCH  13  14
HETATM   14  C   UNL     1      -9.557   9.378  65.260  1.00  0.00    -0.180 C  
HETATM   15  C   UNL     1      -9.900  11.729  64.772  1.00  0.00    -0.211 C  
HETATM   16  O   UNL     1      -9.426  10.782  65.656  1.00  0.00    -0.189 OA 
HETATM   17  O   UNL     1     -10.021  11.540  63.561  1.00  0.00    -0.323 OA 
HETATM   18  C   UNL     1     -10.238  13.098  65.476  1.00  0.00    -0.287 C  
HETATM   19  C   UNL     1      -9.980  14.282  64.486  1.00  0.00     0.488 C  
HETATM   20  C   UNL     1     -11.179  14.614  63.581  1.00  0.00     1.274 C  
HETATM   21  C   UNL     1     -12.418  14.877  64.426  1.00  0.00    -0.227 C  
HETATM   22  C   UNL     1     -12.699  13.641  65.266  1.00  0.00    -0.430 C  
HETATM   23  N   UNL     1     -11.567  13.328  66.143  1.00  0.00    -0.333 N  
HETATM   24  C   UNL     1     -11.731  13.728  67.484  1.00  0.00    -0.375 C  
HETATM   25  C   UNL     1     -10.907  13.081  68.571  1.00  0.00    -0.258 C  
HETATM   26  O   UNL     1     -12.652  14.452  67.861  1.00  0.00     0.076 OA 
HETATM   27  C   UNL     1     -10.209  13.930  69.684  1.00  0.00     0.538 C  
HETATM   28  O   UNL     1     -10.848  11.850  68.558  1.00  0.00    -0.201 OA 
HETATM   29  O   UNL     1      -8.849  14.199  69.367  1.00  0.00     0.261 OA 
HETATM   30  O   UNL     1     -10.152  13.031  70.819  1.00  0.00     3.759 OA 
HETATM   31  C   UNL     1      -8.611  15.160  68.349  1.00  0.00    -0.159 C  
HETATM   32  H   UNL     1      -9.727  13.547  71.495  1.00  0.00     0.000 HD 
HETATM   33  C   UNL     1      -7.095  15.108  67.942  1.00  0.00    -0.146 C  
HETATM   34  C   UNL     1      -9.171  16.526  68.808  1.00  0.00    -0.252 C  
HETATM   35  C   UNL     1      -8.325   7.869  63.635  1.00  0.00     0.086 C  
HETATM   36  H   UNL     1      -6.239   7.398  64.482  1.00  0.00     0.000 HD 
HETATM   37  C   UNL     1      -6.616  13.706  67.398  1.00  0.00     0.011 C  
HETATM   38  C   UNL     1     -10.641  16.383  69.275  1.00  0.00    -0.311 C  
HETATM   39  O   UNL     1      -6.188   7.141  65.396  1.00  0.00    -0.036 OA 
HETATM   40  C   UNL     1      -6.449  12.577  68.458  1.00  0.00    -0.073 C  
HETATM   41  C   UNL     1      -8.180   8.530  65.076  1.00  0.00    -0.160 C  
HETATM   42  C   UNL     1     -10.778  15.224  70.260  1.00  0.00    -0.283 C  
HETATM   43  C   UNL     1      -5.426  11.485  68.091  1.00  0.00    -0.042 C  
HETATM   44  C   UNL     1      -7.770  11.878  68.772  1.00  0.00    -0.074 C  
HETATM   45  C   UNL     1     -12.141  15.086  70.931  1.00  0.00    -0.380 C  
HETATM   46  C   UNL     1      -5.410  10.372  69.151  1.00  0.00    -0.038 C  
HETATM   47  C   UNL     1      -5.609   9.114  68.708  1.00  0.00    -0.040 C  
HETATM   48  C   UNL     1      -5.387  10.765  70.606  1.00  0.00    -0.093 C  
HETATM   49  C   UNL     1      -5.899   7.823  69.434  1.00  0.00    -0.030 C  
HETATM   50  C   UNL     1      -6.111   6.853  68.254  1.00  0.00    -0.033 C  
HETATM   51  C   UNL     1      -7.064   7.788  70.459  1.00  0.00    -0.047 C  
HETATM   52  C   UNL     1      -7.523   7.276  65.943  1.00  0.00    -0.080 C  
HETATM   53  C   UNL     1      -7.439   6.850  67.455  1.00  0.00    -0.097 C  
HETATM   54  O   UNL     1      -5.188   6.119  67.884  1.00  0.00    -0.004 OA 
BRANCH  33  55
HETATM   55  O   UNL     1      -6.200  15.414  69.021  1.00  0.00    -0.101 OA 
HETATM   56  C   UNL     1      -5.301  16.482  68.801  1.00  0.00    -0.121 C  
ENDBRANCH  33  55
BRANCH  34  57
HETATM   57  O   UNL     1      -9.051  17.465  67.740  1.00  0.00    -0.238 OA 
HETATM   58  C   UNL     1     -10.171  17.464  66.859  1.00  0.00    -0.322 C  
ENDBRANCH  34  57
BRANCH  51  59
HETATM   59  C   UNL     1      -7.212   6.566  71.352  1.00  0.00    -0.079 C  
HETATM   60  C   UNL     1      -6.306   5.612  71.597  1.00  0.00    -0.044 C  
ENDBRANCH  51  59
ENDBRANCH  13  14
ENDBRANCH   5  11
ENDBRANCH   2   3
TORSDOF 6
ENDMDL
MODEL       21
REMARK 921   NORMALIZED FREE ENERGY PREDICTED BY IDOCK:   10.46 KCAL/MOL
REMARK 922        TOTAL FREE ENERGY PREDICTED BY IDOCK:   12.52 KCAL/MOL
REMARK 923 INTER-LIGAND FREE ENERGY PREDICTED BY IDOCK:    4.91 KCAL/MOL
REMARK 924 INTRA-LIGAND FREE ENERGY PREDICTED BY IDOCK:    7.61 KCAL/MOL
REMARK 927      BINDING AFFINITY PREDICTED BY RF-SCORE:    0.00 PKD
ROOT
HETATM    1  C   UNL     1     -12.071  11.342  64.607  1.00  0.00     0.779 C  
HETATM    2  O   UNL     1     -11.160  10.257  64.753  1.00  0.00     0.696 OA 
ENDROOT
BRANCH   2   3
HETATM    3  C   UNL     1     -10.797  10.005  66.114  1.00  0.00     0.221 C  
HETATM    4  C   UNL     1     -10.575   8.500  66.358  1.00  0.00     0.271 C  
HETATM    5  C   UNL     1     -10.328   8.333  67.839  1.00  0.00    -0.278 C  
HETATM    6  O   UNL     1     -11.718  12.049  67.133  1.00  0.00    -0.502 OA 
HETATM    7  C   UNL     1     -11.660   8.602  68.559  1.00  0.00     1.316 C  
HETATM    8  C   UNL     1     -11.882  10.625  67.059  1.00  0.00     1.341 C  
HETATM    9  C   UNL     1     -11.872  10.103  68.508  1.00  0.00     0.365 C  
HETATM   10  H   UNL     1     -12.376  12.425  67.706  1.00  0.00     0.000 HD 
BRANCH   5  11
HETATM   11  C   UNL     1      -9.667   7.075  68.309  1.00  0.00    -0.136 C  
HETATM   12  C   UNL     1      -9.700   5.731  66.135  1.00  0.00    -0.105 C  
HETATM   13  C   UNL     1      -9.091   6.317  67.348  1.00  0.00    -0.111 C  
BRANCH  13  14
HETATM   14  C   UNL     1      -7.576   6.279  67.322  1.00  0.00    -0.093 C  
HETATM   15  C   UNL     1      -6.425   8.227  66.449  1.00  0.00    -0.054 C  
HETATM   16  O   UNL     1      -7.111   7.657  67.500  1.00  0.00    -0.081 OA 
HETATM   17  O   UNL     1      -5.820   7.582  65.591  1.00  0.00    -0.036 OA 
HETATM   18  C   UNL     1      -6.468   9.802  66.482  1.00  0.00    -0.071 C  
HETATM   19  C   UNL     1      -5.145  10.382  65.878  1.00  0.00    -0.058 C  
HETATM   20  C   UNL     1      -5.178  10.555  64.350  1.00  0.00    -0.152 C  
HETATM   21  C   UNL     1      -6.375  11.404  63.943  1.00  0.00     1.906 C  
HETATM   22  C   UNL     1      -7.640  10.721  64.439  1.00  0.00     0.318 C  
HETATM   23  N   UNL     1      -7.623  10.567  65.896  1.00  0.00    -0.146 N  
HETATM   24  C   UNL     1      -8.395  11.513  66.599  1.00  0.00    -0.167 C  
HETATM   25  C   UNL     1      -8.855  11.217  68.006  1.00  0.00    -0.148 C  
HETATM   26  O   UNL     1      -8.888  12.507  66.066  1.00  0.00     0.054 OA 
HETATM   27  C   UNL     1      -8.738  12.281  69.146  1.00  0.00     0.636 C  
HETATM   28  O   UNL     1      -9.364  10.111  68.198  1.00  0.00    -0.134 OA 
HETATM   29  O   UNL     1      -7.559  12.097  69.921  1.00  0.00     0.827 OA 
HETATM   30  O   UNL     1      -9.824  11.947  70.044  1.00  0.00     0.978 OA 
HETATM   31  C   UNL     1      -6.333  12.473  69.312  1.00  0.00    -0.110 C  
HETATM   32  H   UNL     1      -9.753  12.593  70.737  1.00  0.00     0.000 HD 
HETATM   33  C   UNL     1      -5.143  11.933  70.184  1.00  0.00    -0.082 C  
HETATM   34  C   UNL     1      -6.361  13.990  69.019  1.00  0.00    -0.097 C  
HETATM   35  C   UNL     1      -6.450   4.006  67.372  1.00  0.00    -0.038 C  
HETATM   36  H   UNL     1      -5.885   3.496  69.542  1.00  0.00     0.000 HD 
HETATM   37  C   UNL     1      -5.128  10.365  70.365  1.00  0.00    -0.044 C  
HETATM   38  C   UNL     1      -7.646  14.373  68.245  1.00  0.00    -0.124 C  
HETATM   39  O   UNL     1      -6.547   3.638  70.209  1.00  0.00    -0.031 OA 
HETATM   40  C   UNL     1      -6.202   9.773  71.325  1.00  0.00     0.031 C  
HETATM   41  C   UNL     1      -6.974   5.159  68.338  1.00  0.00    -0.057 C  
HETATM   42  C   UNL     1      -8.878  13.787  68.933  1.00  0.00     0.145 C  
HETATM   43  C   UNL     1      -5.817   8.437  71.988  1.00  0.00    -0.048 C  
HETATM   44  C   UNL     1      -7.548   9.568  70.632  1.00  0.00    -0.145 C  
HETATM   45  C   UNL     1     -10.224  14.235  68.372  1.00  0.00    -0.245 C  
HETATM   46  C   UNL     1      -6.979   7.890  72.833  1.00  0.00    -0.097 C  
HETATM   47  C   UNL     1      -7.390   6.636  72.555  1.00  0.00    -0.088 C  
HETATM   48  C   UNL     1      -7.709   8.838  73.750  1.00  0.00     0.173 C  
HETATM   49  C   UNL     1      -8.613   5.859  72.976  1.00  0.00    -0.123 C  
HETATM   50  C   UNL     1      -8.437   4.556  72.170  1.00  0.00    -0.113 C  
HETATM   51  C   UNL     1     -10.011   6.503  72.780  1.00  0.00    -0.186 C  
HETATM   52  C   UNL     1      -7.672   4.270  69.553  1.00  0.00    -0.054 C  
HETATM   53  C   UNL     1      -8.769   4.505  70.657  1.00  0.00    -0.127 C  
HETATM   54  O   UNL     1      -7.951   3.556  72.711  1.00  0.00    -0.073 OA 
BRANCH  33  55
HETATM   55  O   UNL     1      -5.125  12.461  71.518  1.00  0.00    -0.214 OA 
HETATM   56  C   UNL     1      -5.165  13.870  71.630  1.00  0.00    -0.194 C  
ENDBRANCH  33  55
BRANCH  34  57
HETATM   57  O   UNL     1      -5.187  14.350  68.293  1.00  0.00    -0.099 OA 
HETATM   58  C   UNL     1      -5.152  15.725  67.921  1.00  0.00    -0.127 C  
ENDBRANCH  34  57
BRANCH  51  59
HETATM   59  C   UNL     1     -11.220   5.827  73.407  1.00  0.00    -0.105 C  
HETATM   60  C   UNL     1     -11.660   4.578  73.206  1.00  0.00    -0.254 C  
ENDBRANCH  51  59
ENDBRANCH  13  14
ENDBRANCH   5  11
ENDBRANCH   2   3
TORSDOF 6
ENDMDL
MODEL       22
REMARK 921   NORMALIZED FREE ENERGY PREDICTED BY IDOCK:   14.10 KCAL/MOL
REMARK 922        TOTAL FREE ENERGY PREDICTED BY IDOCK:   17.44 KCAL/MOL
REMARK 923 INTER-LIGAND FREE ENERGY PREDICTED BY IDOCK:   19.21 KCAL/MOL
REMARK 924 INTRA-LIGAND FREE ENERGY PREDICTED BY IDOCK:   -1.77 KCAL/MOL
REMARK 927      BINDING AFFINITY PREDICTED BY RF-SCORE:    0.00 PKD
ROOT
HETATM    1  C   UNL     1     -14.191  15.905  71.033  1.00  0.00     1.125 C  
HETATM    2  O   UNL     1     -13.930  15.730  69.645  1.00  0.00     1.494 OA 
ENDROOT
BRANCH   2   3
HETATM    3  C   UNL     1     -12.565  15.404  69.364  1.00  0.00     0.106 C  
HETATM    4  C   UNL     1     -11.910  14.684  70.559  1.00  0.00    -0.367 C  
HETATM    5  C   UNL     1     -10.451  14.506  70.211  1.00  0.00     0.395 C  
HETATM    6  O   UNL     1     -12.141  17.059  67.591  1.00  0.00     1.152 OA 
HETATM    7  C   UNL     1      -9.797  15.897  70.251  1.00  0.00     0.357 C  
HETATM    8  C   UNL     1     -11.802  16.704  68.940  1.00  0.00     0.419 C  
HETATM    9  C   UNL     1     -10.266  16.620  69.003  1.00  0.00    -0.301 C  
HETATM   10  H   UNL     1     -11.679  17.848  67.334  1.00  0.00     0.000 HD 
BRANCH   5  11
HETATM   11  C   UNL     1      -9.664  13.481  70.966  1.00  0.00     6.847 C  
HETATM   12  C   UNL     1     -10.178  11.414  69.552  1.00  0.00     0.212 C  
HETATM   13  C   UNL     1      -9.314  12.375  70.268  1.00  0.00     4.685 C  
BRANCH  13  14
HETATM   14  C   UNL     1      -7.848  12.227  69.913  1.00  0.00     1.877 C  
HETATM   15  C   UNL     1      -6.718  10.214  70.655  1.00  0.00    -0.039 C  
HETATM   16  O   UNL     1      -7.590  10.794  69.758  1.00  0.00    -0.105 OA 
HETATM   17  O   UNL     1      -5.849  10.835  71.269  1.00  0.00    -0.335 OA 
HETATM   18  C   UNL     1      -6.929   8.658  70.785  1.00  0.00    -0.059 C  
HETATM   19  C   UNL     1      -5.563   7.960  71.095  1.00  0.00    -0.034 C  
HETATM   20  C   UNL     1      -5.218   7.895  72.592  1.00  0.00    -0.036 C  
HETATM   21  C   UNL     1      -6.350   7.230  73.364  1.00  0.00    -0.064 C  
HETATM   22  C   UNL     1      -7.622   8.030  73.135  1.00  0.00    -0.145 C  
HETATM   23  N   UNL     1      -7.967   8.083  71.711  1.00  0.00    -0.103 N  
HETATM   24  C   UNL     1      -8.987   7.195  71.317  1.00  0.00    -0.147 C  
HETATM   25  C   UNL     1      -9.762   7.451  70.047  1.00  0.00    -0.175 C  
HETATM   26  O   UNL     1      -9.425   6.308  72.049  1.00  0.00    -0.153 OA 
HETATM   27  C   UNL     1     -10.053   6.307  69.021  1.00  0.00    -0.172 C  
HETATM   28  O   UNL     1     -10.186   8.596  69.882  1.00  0.00    -0.193 OA 
HETATM   29  O   UNL     1      -9.101   6.291  67.964  1.00  0.00    -0.115 OA 
HETATM   30  O   UNL     1     -11.294   6.712  68.394  1.00  0.00    -0.556 OA 
HETATM   31  C   UNL     1      -7.805   5.808  68.282  1.00  0.00    -0.100 C  
HETATM   32  H   UNL     1     -11.471   6.017  67.771  1.00  0.00     0.000 HD 
HETATM   33  C   UNL     1      -6.832   6.136  67.093  1.00  0.00    -0.063 C  
HETATM   34  C   UNL     1      -7.913   4.329  68.716  1.00  0.00    -0.072 C  
HETATM   35  C   UNL     1      -6.546  14.335  69.366  1.00  0.00    -0.132 C  
HETATM   36  H   UNL     1      -6.510  14.624  67.084  1.00  0.00     0.000 HD 
HETATM   37  C   UNL     1      -6.703   7.674  66.764  1.00  0.00    -0.066 C  
HETATM   38  C   UNL     1      -8.987   4.161  69.819  1.00  0.00    -0.156 C  
HETATM   39  O   UNL     1      -7.333  14.521  66.620  1.00  0.00     0.379 OA 
HETATM   40  C   UNL     1      -7.921   8.330  66.049  1.00  0.00    -0.098 C  
HETATM   41  C   UNL     1      -7.417  13.194  68.676  1.00  0.00    -0.092 C  
HETATM   42  C   UNL     1     -10.287   4.847  69.406  1.00  0.00    -0.138 C  
HETATM   43  C   UNL     1      -7.585   9.561  65.186  1.00  0.00    -0.112 C  
HETATM   44  C   UNL     1      -9.014   8.746  67.032  1.00  0.00    -0.151 C  
HETATM   45  C   UNL     1     -11.481   4.608  70.325  1.00  0.00     3.684 C  
HETATM   46  C   UNL     1      -8.863  10.190  64.607  1.00  0.00    -0.220 C  
HETATM   47  C   UNL     1      -9.057  11.501  64.857  1.00  0.00     0.080 C  
HETATM   48  C   UNL     1      -9.899   9.280  63.997  1.00  0.00     1.393 C  
HETATM   49  C   UNL     1     -10.261  12.393  64.681  1.00  0.00    -0.312 C  
HETATM   50  C   UNL     1      -9.750  13.716  65.289  1.00  0.00     0.007 C  
HETATM   51  C   UNL     1     -11.620  11.942  65.280  1.00  0.00    -0.278 C  
HETATM   52  C   UNL     1      -8.310  14.079  67.593  1.00  0.00    -0.187 C  
HETATM   53  C   UNL     1      -9.673  13.908  66.824  1.00  0.00    -0.282 C  
HETATM   54  O   UNL     1      -9.320  14.609  64.551  1.00  0.00     1.043 OA 
BRANCH  33  55
HETATM   55  O   UNL     1      -7.214   5.522  65.854  1.00  0.00    -0.070 OA 
HETATM   56  C   UNL     1      -6.270   4.638  65.281  1.00  0.00    -0.034 C  
ENDBRANCH  33  55
BRANCH  34  57
HETATM   57  O   UNL     1      -6.634   3.875  69.160  1.00  0.00    -0.038 OA 
HETATM   58  C   UNL     1      -6.359   4.202  70.519  1.00  0.00    -0.026 C  
ENDBRANCH  34  57
BRANCH  51  59
HETATM   59  C   UNL     1     -12.873  12.720  64.911  1.00  0.00    -0.357 C  
HETATM   60  C   UNL     1     -13.018  14.047  64.811  1.00  0.00     0.041 C  
ENDBRANCH  51  59
ENDBRANCH  13  14
ENDBRANCH   5  11
ENDBRANCH   2   3
TORSDOF 6
ENDMDL
MODEL       23
REMARK 921   NORMALIZED FREE ENERGY PREDICTED BY IDOCK:   15.01 KCAL/MOL
REMARK 922        TOTAL FREE ENERGY PREDICTED BY IDOCK:   18.67 KCAL/MOL
REMARK 923 INTER-LIGAND FREE ENERGY PREDICTED BY IDOCK:   15.01 KCAL/MOL
REMARK 924 INTRA-LIGAND FREE ENERGY PREDICTED BY IDOCK:    3.67 KCAL/MOL
REMARK 927      BINDING AFFINITY PREDICTED BY RF-SCORE:    0.00 PKD
ROOT
HETATM    1  C   UNL     1     -13.820  14.981  72.493  1.00  0.00    -0.469 C  
HETATM    2  O   UNL     1     -13.332  15.057  71.157  1.00  0.00    -0.396 OA 
ENDROOT
BRANCH   2   3
HETATM    3  C   UNL     1     -12.213  14.199  70.915  1.00  0.00    -0.363 C  
HETATM    4  C   UNL     1     -11.034  14.985  70.310  1.00  0.00    -0.238 C  
HETATM    5  C   UNL     1      -9.965  13.971  69.976  1.00  0.00     1.243 C  
HETATM    6  O   UNL     1     -13.407  12.049  70.806  1.00  0.00     0.294 OA 
HETATM    7  C   UNL     1     -10.473  13.147  68.781  1.00  0.00    -0.187 C  
HETATM    8  C   UNL     1     -12.672  12.997  70.021  1.00  0.00     0.250 C  
HETATM    9  C   UNL     1     -11.537  12.217  69.332  1.00  0.00    -0.381 C  
HETATM   10  H   UNL     1     -13.685  11.320  70.264  1.00  0.00     0.000 HD 
BRANCH   5  11
HETATM   11  C   UNL     1      -8.564  14.459  69.780  1.00  0.00     0.702 C  
HETATM   12  C   UNL     1      -7.385  13.138  71.623  1.00  0.00     6.638 C  
HETATM   13  C   UNL     1      -7.587  13.651  70.252  1.00  0.00     1.758 C  
BRANCH  13  14
HETATM   14  C   UNL     1      -6.739  12.930  69.224  1.00  0.00    -0.061 C  
HETATM   15  C   UNL     1      -6.373  10.554  69.546  1.00  0.00    -0.064 C  
HETATM   16  O   UNL     1      -7.235  11.554  69.150  1.00  0.00    -0.115 OA 
HETATM   17  O   UNL     1      -5.146  10.664  69.544  1.00  0.00    -0.039 OA 
HETATM   18  C   UNL     1      -7.127   9.237  69.970  1.00  0.00    -0.070 C  
HETATM   19  C   UNL     1      -6.246   7.988  69.630  1.00  0.00    -0.033 C  
HETATM   20  C   UNL     1      -5.250   7.604  70.737  1.00  0.00    -0.023 C  
HETATM   21  C   UNL     1      -5.982   7.405  72.057  1.00  0.00    -0.036 C  
HETATM   22  C   UNL     1      -6.708   8.696  72.404  1.00  0.00    -0.036 C  
HETATM   23  N   UNL     1      -7.671   9.059  71.361  1.00  0.00    -0.086 N  
HETATM   24  C   UNL     1      -9.012   8.750  71.662  1.00  0.00    -0.231 C  
HETATM   25  C   UNL     1     -10.132   9.462  70.942  1.00  0.00    -0.296 C  
HETATM   26  O   UNL     1      -9.342   8.057  72.624  1.00  0.00    -0.196 OA 
HETATM   27  C   UNL     1     -11.361   8.684  70.367  1.00  0.00    -0.187 C  
HETATM   28  O   UNL     1     -10.045  10.689  70.866  1.00  0.00     1.066 OA 
HETATM   29  O   UNL     1     -11.199   8.386  68.986  1.00  0.00     0.158 OA 
HETATM   30  O   UNL     1     -12.435   9.655  70.412  1.00  0.00    -0.483 OA 
HETATM   31  C   UNL     1     -10.275   7.359  68.661  1.00  0.00    -0.191 C  
HETATM   32  H   UNL     1     -13.183   9.182  70.063  1.00  0.00     0.000 HD 
HETATM   33  C   UNL     1     -10.018   7.374  67.112  1.00  0.00    -0.215 C  
HETATM   34  C   UNL     1     -10.763   6.030  69.281  1.00  0.00    -0.332 C  
HETATM   35  C   UNL     1      -5.149  14.321  67.818  1.00  0.00     0.020 C  
HETATM   36  H   UNL     1      -6.168  14.835  65.820  1.00  0.00     0.000 HD 
HETATM   37  C   UNL     1      -9.436   8.735  66.563  1.00  0.00    -0.281 C  
HETATM   38  C   UNL     1     -11.072   6.211  70.787  1.00  0.00    -0.375 C  
HETATM   39  O   UNL     1      -7.063  15.151  65.857  1.00  0.00     2.621 OA 
HETATM   40  C   UNL     1     -10.431   9.930  66.488  1.00  0.00    -0.213 C  
HETATM   41  C   UNL     1      -6.638  13.756  67.824  1.00  0.00    -0.181 C  
HETATM   42  C   UNL     1     -11.961   7.433  71.007  1.00  0.00    -0.337 C  
HETATM   43  C   UNL     1     -10.098  10.989  65.420  1.00  0.00    -0.326 C  
HETATM   44  C   UNL     1     -10.566  10.656  67.825  1.00  0.00    -0.275 C  
HETATM   45  C   UNL     1     -12.483   7.624  72.428  1.00  0.00    -0.108 C  
HETATM   46  C   UNL     1     -11.080  12.170  65.495  1.00  0.00    -0.361 C  
HETATM   47  C   UNL     1     -10.538  13.397  65.633  1.00  0.00    -0.286 C  
HETATM   48  C   UNL     1     -12.552  11.873  65.622  1.00  0.00     1.329 C  
HETATM   49  C   UNL     1     -11.146  14.735  65.978  1.00  0.00    -0.330 C  
HETATM   50  C   UNL     1      -9.890  15.627  66.060  1.00  0.00    -0.333 C  
HETATM   51  C   UNL     1     -12.046  14.844  67.238  1.00  0.00    -0.020 C  
HETATM   52  C   UNL     1      -7.482  15.060  67.241  1.00  0.00    -0.181 C  
HETATM   53  C   UNL     1      -8.965  15.584  67.302  1.00  0.00    -0.216 C  
HETATM   54  O   UNL     1      -9.567  16.329  65.096  1.00  0.00    -0.258 OA 
BRANCH  33  55
HETATM   55  O   UNL     1     -11.199   7.135  66.332  1.00  0.00     0.530 OA 
HETATM   56  C   UNL     1     -11.369   5.817  65.849  1.00  0.00     1.308 C  
ENDBRANCH  33  55
BRANCH  34  57
HETATM   57  O   UNL     1      -9.776   5.022  69.067  1.00  0.00    -0.143 OA 
HETATM   58  C   UNL     1      -8.544   5.288  69.732  1.00  0.00    -0.098 C  
ENDBRANCH  34  57
BRANCH  51  59
HETATM   59  C   UNL     1     -12.838  16.123  67.459  1.00  0.00     3.241 C  
HETATM   60  C   UNL     1     -12.382  17.312  67.871  1.00  0.00     2.898 C  
ENDBRANCH  51  59
ENDBRANCH  13  14
ENDBRANCH   5  11
ENDBRANCH   2   3
TORSDOF 6
ENDMDL
MODEL       24
REMARK 921   NORMALIZED FREE ENERGY PREDICTED BY IDOCK:   16.79 KCAL/MOL
REMARK 922        TOTAL FREE ENERGY PREDICTED BY IDOCK:   21.08 KCAL/MOL
REMARK 923 INTER-LIGAND FREE ENERGY PREDICTED BY IDOCK:    3.00 KCAL/MOL
REMARK 924 INTRA-LIGAND FREE ENERGY PREDICTED BY IDOCK:   18.08 KCAL/MOL
REMARK 927      BINDING AFFINITY PREDICTED BY RF-SCORE:    0.00 PKD
ROOT
HETATM    1  C   UNL     1      -9.575   8.994  71.356  1.00  0.00    -0.285 C  
HETATM    2  O   UNL     1      -8.639   9.995  71.747  1.00  0.00     1.535 OA 
ENDROOT
BRANCH   2   3
HETATM    3  C   UNL     1      -7.641  10.252  70.754  1.00  0.00     0.919 C  
HETATM    4  C   UNL     1      -8.005   9.580  69.416  1.00  0.00    -0.099 C  
HETATM    5  C   UNL     1      -6.834   9.802  68.488  1.00  0.00    -0.056 C  
HETATM    6  O   UNL     1      -5.753  10.770  72.247  1.00  0.00    -0.059 OA 
HETATM    7  C   UNL     1      -5.672   8.934  69.000  1.00  0.00    -0.040 C  
HETATM    8  C   UNL     1      -6.243   9.807  71.304  1.00  0.00     0.031 C  
HETATM    9  C   UNL     1      -5.143   9.628  70.241  1.00  0.00    -0.028 C  
HETATM   10  H   UNL     1      -4.906  10.500  72.581  1.00  0.00     0.000 HD 
BRANCH   5  11
HETATM   11  C   UNL     1      -7.058   9.648  67.017  1.00  0.00    -0.086 C  
HETATM   12  C   UNL     1      -5.546   7.639  66.557  1.00  0.00    -0.025 C  
HETATM   13  C   UNL     1      -6.798   8.422  66.505  1.00  0.00    -0.067 C  
BRANCH  13  14
HETATM   14  C   UNL     1      -7.992   7.596  66.069  1.00  0.00    -0.112 C  
HETATM   15  C   UNL     1      -8.239   5.390  67.045  1.00  0.00    -0.104 C  
HETATM   16  O   UNL     1      -8.366   6.753  67.206  1.00  0.00    -0.119 OA 
HETATM   17  O   UNL     1      -8.253   4.822  65.951  1.00  0.00    -0.110 OA 
HETATM   18  C   UNL     1      -8.108   4.627  68.418  1.00  0.00    -0.083 C  
HETATM   19  C   UNL     1      -8.755   3.207  68.300  1.00  0.00    -0.139 C  
HETATM   20  C   UNL     1      -7.798   2.125  67.771  1.00  0.00    -0.059 C  
HETATM   21  C   UNL     1      -6.538   2.076  68.624  1.00  0.00    -0.029 C  
HETATM   22  C   UNL     1      -5.879   3.446  68.590  1.00  0.00    -0.023 C  
HETATM   23  N   UNL     1      -6.780   4.480  69.109  1.00  0.00    -0.044 N  
HETATM   24  C   UNL     1      -6.517   4.881  70.433  1.00  0.00    -0.031 C  
HETATM   25  C   UNL     1      -7.018   6.216  70.931  1.00  0.00    -0.068 C  
HETATM   26  O   UNL     1      -5.731   4.289  71.171  1.00  0.00    -0.011 OA 
HETATM   27  C   UNL     1      -7.719   6.360  72.322  1.00  0.00    -0.098 C  
HETATM   28  O   UNL     1      -6.811   7.189  70.203  1.00  0.00    -0.056 OA 
HETATM   29  O   UNL     1      -9.136   6.322  72.206  1.00  0.00    -0.141 OA 
HETATM   30  O   UNL     1      -7.417   7.720  72.721  1.00  0.00    -0.089 OA 
HETATM   31  C   UNL     1      -9.718   5.056  71.937  1.00  0.00    -0.160 C  
HETATM   32  H   UNL     1      -7.843   7.808  73.566  1.00  0.00     0.000 HD 
HETATM   33  C   UNL     1     -11.229   5.258  71.558  1.00  0.00     0.161 C  
HETATM   34  C   UNL     1      -9.407   4.099  73.110  1.00  0.00    -0.113 C  
HETATM   35  C   UNL     1      -9.086   8.179  63.855  1.00  0.00     1.123 C  
HETATM   36  H   UNL     1     -10.878   9.567  64.247  1.00  0.00     0.000 HD 
HETATM   37  C   UNL     1     -11.465   6.174  70.295  1.00  0.00    -0.357 C  
HETATM   38  C   UNL     1      -7.891   4.094  73.423  1.00  0.00    -0.085 C  
HETATM   39  O   UNL     1     -10.741  10.298  64.839  1.00  0.00     0.024 OA 
HETATM   40  C   UNL     1     -11.231   7.701  70.497  1.00  0.00    -0.275 C  
HETATM   41  C   UNL     1      -9.164   8.513  65.410  1.00  0.00    -0.043 C  
HETATM   42  C   UNL     1      -7.367   5.523  73.551  1.00  0.00    -0.091 C  
HETATM   43  C   UNL     1     -12.035   8.614  69.552  1.00  0.00     1.202 C  
HETATM   44  C   UNL     1      -9.759   8.084  70.360  1.00  0.00    -0.178 C  
HETATM   45  C   UNL     1      -5.925   5.658  74.030  1.00  0.00    -0.057 C  
HETATM   46  C   UNL     1     -11.659  10.089  69.765  1.00  0.00    -0.193 C  
HETATM   47  C   UNL     1     -11.257  10.773  68.674  1.00  0.00    -0.333 C  
HETATM   48  C   UNL     1     -11.559  10.609  71.176  1.00  0.00    -0.127 C  
HETATM   49  C   UNL     1     -10.594  12.119  68.516  1.00  0.00    -0.252 C  
HETATM   50  C   UNL     1     -10.346  12.158  66.994  1.00  0.00    -0.211 C  
HETATM   51  C   UNL     1      -9.315  12.424  69.341  1.00  0.00     1.143 C  
HETATM   52  C   UNL     1      -9.404  10.155  65.377  1.00  0.00    -0.216 C  
HETATM   53  C   UNL     1      -9.177  11.365  66.357  1.00  0.00    -0.209 C  
HETATM   54  O   UNL     1     -11.132  12.763  66.256  1.00  0.00    -0.274 OA 
BRANCH  33  55
HETATM   55  O   UNL     1     -12.006   5.861  72.604  1.00  0.00    -0.229 OA 
HETATM   56  C   UNL     1     -11.345   6.047  73.840  1.00  0.00     0.887 C  
ENDBRANCH  33  55
BRANCH  34  57
HETATM   57  O   UNL     1      -9.878   2.792  72.788  1.00  0.00    -0.113 OA 
HETATM   58  C   UNL     1     -11.187   2.786  72.225  1.00  0.00     1.073 C  
ENDBRANCH  34  57
BRANCH  51  59
HETATM   59  C   UNL     1      -8.781  13.847  69.357  1.00  0.00     0.683 C  
HETATM   60  C   UNL     1      -9.458  14.983  69.148  1.00  0.00    -0.195 C  
ENDBRANCH  51  59
ENDBRANCH  13  14
ENDBRANCH   5  11
ENDBRANCH   2   3
TORSDOF 6
ENDMDL
MODEL       25
REMARK 921   NORMALIZED FREE ENERGY PREDICTED BY IDOCK:   18.85 KCAL/MOL
REMARK 922        TOTAL FREE ENERGY PREDICTED BY IDOCK:   23.86 KCAL/MOL
REMARK 923 INTER-LIGAND FREE ENERGY PREDICTED BY IDOCK:    1.49 KCAL/MOL
REMARK 924 INTRA-LIGAND FREE ENERGY PREDICTED BY IDOCK:   22.37 KCAL/MOL
REMARK 927      BINDING AFFINITY PREDICTED BY RF-SCORE:    0.00 PKD
ROOT
HETATM    1  C   UNL     1      -8.900   5.379  70.722  1.00  0.00    -0.133 C  
HETATM    2  O   UNL     1      -9.796   4.530  70.012  1.00  0.00    -0.201 OA 
ENDROOT
BRANCH   2   3
HETATM    3  C   UNL     1      -9.318   4.166  68.713  1.00  0.00    -0.159 C  
HETATM    4  C   UNL     1     -10.183   4.801  67.607  1.00  0.00    -0.096 C  
HETATM    5  C   UNL     1      -9.677   4.251  66.294  1.00  0.00    -0.225 C  
HETATM    6  O   UNL     1      -8.097   2.117  69.325  1.00  0.00    -0.045 OA 
HETATM    7  C   UNL     1     -10.079   2.769  66.232  1.00  0.00     1.148 C  
HETATM    8  C   UNL     1      -9.243   2.605  68.612  1.00  0.00    -0.179 C  
HETATM    9  C   UNL     1      -9.150   2.039  67.183  1.00  0.00    -0.135 C  
HETATM   10  H   UNL     1      -8.052   1.170  69.264  1.00  0.00     0.000 HD 
BRANCH   5  11
HETATM   11  C   UNL     1     -10.019   4.991  65.038  1.00  0.00     0.246 C  
HETATM   12  C   UNL     1     -10.579   7.281  66.025  1.00  0.00     1.356 C  
HETATM   13  C   UNL     1      -9.915   6.338  65.100  1.00  0.00     1.597 C  
BRANCH  13  14
HETATM   14  C   UNL     1      -8.771   6.972  64.335  1.00  0.00     0.545 C  
HETATM   15  C   UNL     1      -8.938   9.340  63.836  1.00  0.00    -0.050 C  
HETATM   16  O   UNL     1      -8.682   8.365  64.777  1.00  0.00    -0.110 OA 
HETATM   17  O   UNL     1      -8.816   9.172  62.622  1.00  0.00    -0.227 OA 
HETATM   18  C   UNL     1      -9.371  10.709  64.486  1.00  0.00    -0.243 C  
HETATM   19  C   UNL     1      -8.883  11.898  63.593  1.00  0.00     0.702 C  
HETATM   20  C   UNL     1      -9.862  12.283  62.471  1.00  0.00     1.902 C  
HETATM   21  C   UNL     1     -11.238  12.575  63.053  1.00  0.00     0.167 C  
HETATM   22  C   UNL     1     -11.721  11.337  63.792  1.00  0.00     0.239 C  
HETATM   23  N   UNL     1     -10.801  10.974  64.874  1.00  0.00    -0.203 N  
HETATM   24  C   UNL     1     -11.222  11.359  66.162  1.00  0.00    -0.137 C  
HETATM   25  C   UNL     1     -10.656  10.669  67.379  1.00  0.00    -0.256 C  
HETATM   26  O   UNL     1     -12.178  12.108  66.360  1.00  0.00    -0.592 OA 
HETATM   27  C   UNL     1     -10.173  11.478  68.628  1.00  0.00    -0.208 C  
HETATM   28  O   UNL     1     -10.632   9.437  67.353  1.00  0.00    -0.265 OA 
HETATM   29  O   UNL     1      -8.769  11.707  68.599  1.00  0.00    -0.153 OA 
HETATM   30  O   UNL     1     -10.375  10.562  69.732  1.00  0.00    -0.337 OA 
HETATM   31  C   UNL     1      -8.302  12.674  67.671  1.00  0.00    -0.174 C  
HETATM   32  H   UNL     1     -10.081  11.053  70.491  1.00  0.00     0.000 HD 
HETATM   33  C   UNL     1      -6.737  12.577  67.578  1.00  0.00    -0.151 C  
HETATM   34  C   UNL     1      -8.902  14.051  68.035  1.00  0.00    -0.181 C  
HETATM   35  C   UNL     1      -7.280   5.446  62.961  1.00  0.00    -0.043 C  
HETATM   36  H   UNL     1      -5.425   4.893  64.204  1.00  0.00     0.000 HD 
HETATM   37  C   UNL     1      -6.199  11.168  67.114  1.00  0.00    -0.083 C  
HETATM   38  C   UNL     1     -10.440  13.951  68.191  1.00  0.00    -0.246 C  
HETATM   39  O   UNL     1      -5.569   4.621  65.103  1.00  0.00    -0.013 OA 
HETATM   40  C   UNL     1      -6.284  10.019  68.162  1.00  0.00    -0.053 C  
HETATM   41  C   UNL     1      -7.411   6.081  64.416  1.00  0.00    -0.078 C  
HETATM   42  C   UNL     1     -10.808  12.783  69.104  1.00  0.00    -0.123 C  
HETATM   43  C   UNL     1      -5.241   8.899  67.987  1.00  0.00    -0.035 C  
HETATM   44  C   UNL     1      -7.662   9.360  68.187  1.00  0.00    -0.083 C  
HETATM   45  C   UNL     1     -12.283  12.680  69.482  1.00  0.00    -0.149 C  
HETATM   46  C   UNL     1      -5.474   7.770  69.005  1.00  0.00    -0.022 C  
HETATM   47  C   UNL     1      -5.616   6.526  68.504  1.00  0.00    -0.016 C  
HETATM   48  C   UNL     1      -5.736   8.142  70.442  1.00  0.00    -0.028 C  
HETATM   49  C   UNL     1      -6.086   5.236  69.130  1.00  0.00    -0.025 C  
HETATM   50  C   UNL     1      -6.083   4.290  67.911  1.00  0.00    -0.032 C  
HETATM   51  C   UNL     1      -7.435   5.224  69.896  1.00  0.00    -0.065 C  
HETATM   52  C   UNL     1      -6.982   4.793  65.371  1.00  0.00    -0.062 C  
HETATM   53  C   UNL     1      -7.220   4.343  66.860  1.00  0.00    -0.072 C  
HETATM   54  O   UNL     1      -5.126   3.531  67.721  1.00  0.00    -0.007 OA 
BRANCH  33  55
HETATM   55  O   UNL     1      -6.071  12.837  68.823  1.00  0.00    -0.064 OA 
HETATM   56  C   UNL     1      -6.134  14.168  69.295  1.00  0.00    -0.101 C  
ENDBRANCH  33  55
BRANCH  34  57
HETATM   57  O   UNL     1      -8.540  15.000  67.033  1.00  0.00    -0.209 OA 
HETATM   58  C   UNL     1      -9.214  16.248  67.168  1.00  0.00    -0.213 C  
ENDBRANCH  34  57
BRANCH  51  59
HETATM   59  C   UNL     1      -7.798   3.996  70.715  1.00  0.00    -0.051 C  
HETATM   60  C   UNL     1      -7.899   3.895  72.046  1.00  0.00    -0.075 C  
ENDBRANCH  51  59
ENDBRANCH  13  14
ENDBRANCH   5  11
ENDBRANCH   2   3
TORSDOF 6
ENDMDL
MODEL       26
REMARK 921   NORMALIZED FREE ENERGY PREDICTED BY IDOCK:   20.17 KCAL/MOL
REMARK 922        TOTAL FREE ENERGY PREDICTED BY IDOCK:   25.65 KCAL/MOL
REMARK 923 INTER-LIGAND FREE ENERGY PREDICTED BY IDOCK:   20.58 KCAL/MOL
REMARK 924 INTRA-LIGAND FREE ENERGY PREDICTED BY IDOCK:    5.06 KCAL/MOL
REMARK 927      BINDING AFFINITY PREDICTED BY RF-SCORE:    0.00 PKD
ROOT
HETATM    1  C   UNL     1     -10.441   8.759  73.190  1.00  0.00     1.200 C  
HETATM    2  O   UNL     1     -10.078  10.028  72.656  1.00  0.00     3.273 OA 
ENDROOT
BRANCH   2   3
HETATM    3  C   UNL     1     -10.548  10.233  71.319  1.00  0.00     0.946 C  
HETATM    4  C   UNL     1     -10.328  11.692  70.873  1.00  0.00     4.369 C  
HETATM    5  C   UNL     1     -10.971  11.830  69.514  1.00  0.00    -0.126 C  
HETATM    6  O   UNL     1     -12.130   8.352  71.186  1.00  0.00    -0.289 OA 
HETATM    7  C   UNL     1     -12.493  11.762  69.718  1.00  0.00    -0.051 C  
HETATM    8  C   UNL     1     -12.045   9.784  71.226  1.00  0.00    -0.382 C  
HETATM    9  C   UNL     1     -12.817  10.308  70.001  1.00  0.00     0.071 C  
HETATM   10  H   UNL     1     -13.038   8.079  71.129  1.00  0.00     0.000 HD 
BRANCH   5  11
HETATM   11  C   UNL     1     -10.559  12.981  68.650  1.00  0.00    -0.257 C  
HETATM   12  C   UNL     1      -9.458  14.470  70.410  1.00  0.00     1.540 C  
HETATM   13  C   UNL     1      -9.549  13.744  69.126  1.00  0.00     0.302 C  
BRANCH  13  14
HETATM   14  C   UNL     1      -8.215  13.636  68.415  1.00  0.00    -0.146 C  
HETATM   15  C   UNL     1      -6.993  11.554  68.647  1.00  0.00    -0.089 C  
HETATM   16  O   UNL     1      -8.039  12.228  68.053  1.00  0.00    -0.137 OA 
HETATM   17  O   UNL     1      -5.987  12.105  69.097  1.00  0.00    -0.064 OA 
HETATM   18  C   UNL     1      -7.208   9.993  68.660  1.00  0.00    -0.080 C  
HETATM   19  C   UNL     1      -5.825   9.266  68.556  1.00  0.00    -0.041 C  
HETATM   20  C   UNL     1      -5.135   9.038  69.912  1.00  0.00    -0.029 C  
HETATM   21  C   UNL     1      -6.067   8.294  70.858  1.00  0.00    -0.033 C  
HETATM   22  C   UNL     1      -7.336   9.114  71.027  1.00  0.00    -0.098 C  
HETATM   23  N   UNL     1      -8.009   9.321  69.741  1.00  0.00    -0.091 N  
HETATM   24  C   UNL     1      -9.117   8.481  69.513  1.00  0.00    -0.150 C  
HETATM   25  C   UNL     1     -10.165   8.873  68.501  1.00  0.00    -0.197 C  
HETATM   26  O   UNL     1      -9.390   7.520  70.230  1.00  0.00    -0.161 OA 
HETATM   27  C   UNL     1     -10.722   7.847  67.459  1.00  0.00    -0.181 C  
HETATM   28  O   UNL     1     -10.587  10.030  68.564  1.00  0.00    -0.195 OA 
HETATM   29  O   UNL     1     -10.051   7.947  66.209  1.00  0.00    -0.148 OA 
HETATM   30  O   UNL     1     -12.066   8.319  67.195  1.00  0.00     3.276 OA 
HETATM   31  C   UNL     1      -8.730   7.432  66.153  1.00  0.00    -0.156 C  
HETATM   32  H   UNL     1     -12.405   7.695  66.563  1.00  0.00     0.000 HD 
HETATM   33  C   UNL     1      -8.060   7.888  64.808  1.00  0.00    -0.141 C  
HETATM   34  C   UNL     1      -8.769   5.915  66.442  1.00  0.00    -0.131 C  
HETATM   35  C   UNL     1      -7.027  15.791  67.797  1.00  0.00    -0.173 C  
HETATM   36  H   UNL     1      -7.530  16.326  65.618  1.00  0.00     0.000 HD 
HETATM   37  C   UNL     1      -7.974   9.453  64.621  1.00  0.00    -0.124 C  
HETATM   38  C   UNL     1      -9.553   5.628  67.747  1.00  0.00    -0.128 C  
HETATM   39  O   UNL     1      -8.442  16.275  65.356  1.00  0.00     0.311 OA 
HETATM   40  C   UNL     1      -9.310  10.182  64.293  1.00  0.00    -0.349 C  
HETATM   41  C   UNL     1      -8.067  14.731  67.220  1.00  0.00    -0.232 C  
HETATM   42  C   UNL     1     -10.896   6.355  67.733  1.00  0.00    -0.418 C  
HETATM   43  C   UNL     1      -9.158  11.500  63.509  1.00  0.00     0.041 C  
HETATM   44  C   UNL     1     -10.126  10.489  65.548  1.00  0.00    -0.349 C  
HETATM   45  C   UNL     1     -11.842   6.017  68.882  1.00  0.00     1.323 C  
HETATM   46  C   UNL     1     -10.521  12.188  63.325  1.00  0.00    -0.360 C  
HETATM   47  C   UNL     1     -10.615  13.463  63.751  1.00  0.00     0.288 C  
HETATM   48  C   UNL     1     -11.695  11.350  62.888  1.00  0.00     0.551 C  
HETATM   49  C   UNL     1     -11.802  14.370  63.964  1.00  0.00    -0.222 C  
HETATM   50  C   UNL     1     -11.127  15.618  64.567  1.00  0.00    -0.286 C  
HETATM   51  C   UNL     1     -12.991  13.856  64.821  1.00  0.00     0.020 C  
HETATM   52  C   UNL     1      -9.170  15.729  66.483  1.00  0.00    -0.283 C  
HETATM   53  C   UNL     1     -10.680  15.643  66.051  1.00  0.00    -0.322 C  
HETATM   54  O   UNL     1     -10.863  16.587  63.846  1.00  0.00    -0.073 OA 
BRANCH  33  55
HETATM   55  O   UNL     1      -8.743   7.412  63.638  1.00  0.00     0.390 OA 
HETATM   56  C   UNL     1      -7.967   7.319  62.460  1.00  0.00    -0.131 C  
ENDBRANCH  33  55
BRANCH  34  57
HETATM   57  O   UNL     1      -7.434   5.416  66.515  1.00  0.00    -0.084 OA 
HETATM   58  C   UNL     1      -6.993   5.176  67.848  1.00  0.00    -0.062 C  
ENDBRANCH  34  57
BRANCH  51  59
HETATM   59  C   UNL     1     -14.275  14.669  64.848  1.00  0.00     4.382 C  
HETATM   60  C   UNL     1     -14.404  16.001  64.881  1.00  0.00     5.268 C  
ENDBRANCH  51  59
ENDBRANCH  13  14
ENDBRANCH   5  11
ENDBRANCH   2   3
TORSDOF 6
ENDMDL
MODEL       27
REMARK 921   NORMALIZED FREE ENERGY PREDICTED BY IDOCK:   20.55 KCAL/MOL
REMARK 922        TOTAL FREE ENERGY PREDICTED BY IDOCK:   26.16 KCAL/MOL
REMARK 923 INTER-LIGAND FREE ENERGY PREDICTED BY IDOCK:   20.99 KCAL/MOL
REMARK 924 INTRA-LIGAND FREE ENERGY PREDICTED BY IDOCK:    5.17 KCAL/MOL
REMARK 927      BINDING AFFINITY PREDICTED BY RF-SCORE:    0.00 PKD
ROOT
HETATM    1  C   UNL     1     -13.368  12.776  72.320  1.00  0.00    -0.458 C  
HETATM    2  O   UNL     1     -13.606  14.007  71.645  1.00  0.00    -0.350 OA 
ENDROOT
BRANCH   2   3
HETATM    3  C   UNL     1     -12.716  14.231  70.547  1.00  0.00    -0.328 C  
HETATM    4  C   UNL     1     -13.033  13.280  69.376  1.00  0.00     1.204 C  
HETATM    5  C   UNL     1     -11.964  13.508  68.333  1.00  0.00    -0.378 C  
HETATM    6  O   UNL     1     -10.865  15.292  71.775  1.00  0.00    -0.447 OA 
HETATM    7  C   UNL     1     -10.650  12.935  68.891  1.00  0.00    -0.154 C  
HETATM    8  C   UNL     1     -11.238  14.111  71.051  1.00  0.00     0.673 C  
HETATM    9  C   UNL     1     -10.179  13.914  69.950  1.00  0.00     0.881 C  
HETATM   10  H   UNL     1      -9.968  15.220  72.080  1.00  0.00     0.000 HD 
BRANCH   5  11
HETATM   11  C   UNL     1     -12.235  13.058  66.932  1.00  0.00    -0.233 C  
HETATM   12  C   UNL     1     -13.534  15.084  66.071  1.00  0.00     2.406 C  
HETATM   13  C   UNL     1     -12.489  14.039  66.036  1.00  0.00    -0.489 C  
BRANCH  13  14
HETATM   14  C   UNL     1     -11.418  14.314  65.000  1.00  0.00    -0.364 C  
HETATM   15  C   UNL     1     -10.516  16.562  64.896  1.00  0.00     0.130 C  
HETATM   16  O   UNL     1     -10.545  15.351  65.553  1.00  0.00    -0.329 OA 
HETATM   17  O   UNL     1     -10.804  16.706  63.706  1.00  0.00     0.382 OA 
HETATM   18  C   UNL     1     -10.038  17.743  65.823  1.00  0.00    -0.061 C  
HETATM   19  C   UNL     1      -9.271  18.810  64.972  1.00  0.00     2.952 C  
HETATM   20  C   UNL     1     -10.180  19.871  64.330  1.00  0.00     4.018 C  
HETATM   21  C   UNL     1     -11.035  20.544  65.395  1.00  0.00     0.588 C  
HETATM   22  C   UNL     1     -11.860  19.476  66.095  1.00  0.00     2.319 C  
HETATM   23  N   UNL     1     -10.999  18.470  66.724  1.00  0.00    -0.089 N  
HETATM   24  C   UNL     1     -10.835  18.620  68.115  1.00  0.00    -0.002 C  
HETATM   25  C   UNL     1     -10.396  17.445  68.955  1.00  0.00    -0.340 C  
HETATM   26  O   UNL     1     -11.212  19.615  68.733  1.00  0.00     1.015 OA 
HETATM   27  C   UNL     1      -9.279  17.586  70.042  1.00  0.00     1.811 C  
HETATM   28  O   UNL     1     -10.989  16.381  68.767  1.00  0.00    -0.313 OA 
HETATM   29  O   UNL     1      -8.005  17.196  69.544  1.00  0.00     0.132 OA 
HETATM   30  O   UNL     1      -9.620  16.574  71.020  1.00  0.00     2.656 OA 
HETATM   31  C   UNL     1      -7.374  18.089  68.640  1.00  0.00    -0.282 C  
HETATM   32  H   UNL     1      -8.942  16.660  71.681  1.00  0.00     0.000 HD 
HETATM   33  C   UNL     1      -6.142  17.368  67.986  1.00  0.00    -0.150 C  
HETATM   34  C   UNL     1      -7.104  19.428  69.364  1.00  0.00    -0.274 C  
HETATM   35  C   UNL     1     -11.275  12.751  63.006  1.00  0.00     0.417 C  
HETATM   36  H   UNL     1      -9.689  11.140  63.427  1.00  0.00     0.000 HD 
HETATM   37  C   UNL     1      -6.506  16.056  67.187  1.00  0.00    -0.145 C  
HETATM   38  C   UNL     1      -8.393  19.951  70.043  1.00  0.00     0.985 C  
HETATM   39  O   UNL     1      -9.715  10.715  64.277  1.00  0.00    -0.259 OA 
HETATM   40  C   UNL     1      -6.878  14.810  68.044  1.00  0.00    -0.150 C  
HETATM   41  C   UNL     1     -10.704  12.946  64.479  1.00  0.00    -0.392 C  
HETATM   42  C   UNL     1      -9.045  18.846  70.872  1.00  0.00     3.994 C  
HETATM   43  C   UNL     1      -6.606  13.451  67.370  1.00  0.00    -0.038 C  
HETATM   44  C   UNL     1      -8.344  14.820  68.474  1.00  0.00    -0.160 C  
HETATM   45  C   UNL     1     -10.228  19.278  71.734  1.00  0.00     3.310 C  
HETATM   46  C   UNL     1      -7.098  12.293  68.253  1.00  0.00    -0.093 C  
HETATM   47  C   UNL     1      -7.956  11.423  67.684  1.00  0.00    -0.123 C  
HETATM   48  C   UNL     1      -6.771  12.322  69.724  1.00  0.00     0.118 C  
HETATM   49  C   UNL     1      -8.826  10.336  68.267  1.00  0.00    -0.126 C  
HETATM   50  C   UNL     1      -9.597   9.861  67.019  1.00  0.00    -0.175 C  
HETATM   51  C   UNL     1      -9.761  10.684  69.456  1.00  0.00    -0.085 C  
HETATM   52  C   UNL     1     -10.739  11.388  65.049  1.00  0.00    -0.277 C  
HETATM   53  C   UNL     1     -10.783  10.684  66.456  1.00  0.00    -0.218 C  
HETATM   54  O   UNL     1      -9.222   8.855  66.407  1.00  0.00    -0.161 OA 
BRANCH  33  55
HETATM   55  O   UNL     1      -5.145  16.961  68.935  1.00  0.00    -0.128 OA 
HETATM   56  C   UNL     1      -5.335  17.402  70.264  1.00  0.00    -0.244 C  
ENDBRANCH  33  55
BRANCH  34  57
HETATM   57  O   UNL     1      -6.587  20.372  68.427  1.00  0.00    -0.291 OA 
HETATM   58  C   UNL     1      -5.214  20.686  68.641  1.00  0.00    -0.274 C  
ENDBRANCH  34  57
BRANCH  51  59
HETATM   59  C   UNL     1     -10.462   9.552  70.188  1.00  0.00    -0.299 C  
HETATM   60  C   UNL     1     -10.864   9.522  71.465  1.00  0.00    -0.321 C  
ENDBRANCH  51  59
ENDBRANCH  13  14
ENDBRANCH   5  11
ENDBRANCH   2   3
TORSDOF 6
ENDMDL
MODEL       28
REMARK 921   NORMALIZED FREE ENERGY PREDICTED BY IDOCK:   21.04 KCAL/MOL
REMARK 922        TOTAL FREE ENERGY PREDICTED BY IDOCK:   26.82 KCAL/MOL
REMARK 923 INTER-LIGAND FREE ENERGY PREDICTED BY IDOCK:   20.66 KCAL/MOL
REMARK 924 INTRA-LIGAND FREE ENERGY PREDICTED BY IDOCK:    6.16 KCAL/MOL
REMARK 927      BINDING AFFINITY PREDICTED BY RF-SCORE:    0.00 PKD
ROOT
HETATM    1  C   UNL     1     -13.971  15.789  68.733  1.00  0.00     6.264 C  
HETATM    2  O   UNL     1     -12.672  15.289  68.435  1.00  0.00     0.545 OA 
ENDROOT
BRANCH   2   3
HETATM    3  C   UNL     1     -11.641  15.889  69.224  1.00  0.00    -0.369 C  
HETATM    4  C   UNL     1     -10.334  16.023  68.419  1.00  0.00    -0.251 C  
HETATM    5  C   UNL     1      -9.287  16.541  69.376  1.00  0.00    -0.040 C  
HETATM    6  O   UNL     1     -12.530  15.369  71.460  1.00  0.00    -0.322 OA 
HETATM    7  C   UNL     1      -8.965  15.406  70.362  1.00  0.00     1.028 C  
HETATM    8  C   UNL     1     -11.464  15.071  70.548  1.00  0.00    -0.290 C  
HETATM    9  C   UNL     1     -10.147  15.320  71.307  1.00  0.00     1.238 C  
HETATM   10  H   UNL     1     -12.422  14.872  72.263  1.00  0.00     0.000 HD 
BRANCH   5  11
HETATM   11  C   UNL     1      -8.055  17.170  68.804  1.00  0.00    -0.252 C  
HETATM   12  C   UNL     1      -6.271  15.719  69.920  1.00  0.00    -0.157 C  
HETATM   13  C   UNL     1      -6.947  16.393  68.792  1.00  0.00    -0.172 C  
BRANCH  13  14
HETATM   14  C   UNL     1      -6.477  15.893  67.441  1.00  0.00    -0.175 C  
HETATM   15  C   UNL     1      -6.335  13.493  67.126  1.00  0.00     0.548 C  
HETATM   16  O   UNL     1      -7.140  14.609  67.207  1.00  0.00    -0.172 OA 
HETATM   17  O   UNL     1      -5.143  13.526  66.816  1.00  0.00     0.414 OA 
HETATM   18  C   UNL     1      -7.114  12.160  67.441  1.00  0.00    -0.146 C  
HETATM   19  C   UNL     1      -6.504  10.980  66.612  1.00  0.00    -0.129 C  
HETATM   20  C   UNL     1      -5.318  10.281  67.296  1.00  0.00    -0.041 C  
HETATM   21  C   UNL     1      -5.717   9.812  68.689  1.00  0.00    -0.039 C  
HETATM   22  C   UNL     1      -6.170  11.021  69.492  1.00  0.00    -0.085 C  
HETATM   23  N   UNL     1      -7.312  11.683  68.854  1.00  0.00    -0.117 N  
HETATM   24  C   UNL     1      -8.563  11.391  69.433  1.00  0.00     0.504 C  
HETATM   25  C   UNL     1      -9.731  12.322  69.216  1.00  0.00     0.663 C  
HETATM   26  O   UNL     1      -8.724  10.507  70.273  1.00  0.00     0.354 OA 
HETATM   27  C   UNL     1     -11.150  11.781  68.841  1.00  0.00    -0.243 C  
HETATM   28  O   UNL     1      -9.517  13.524  69.389  1.00  0.00     0.530 OA 
HETATM   29  O   UNL     1     -11.375  11.818  67.437  1.00  0.00    -0.281 OA 
HETATM   30  O   UNL     1     -12.052  12.775  69.385  1.00  0.00    -0.273 OA 
HETATM   31  C   UNL     1     -10.694  10.846  66.658  1.00  0.00    -0.230 C  
HETATM   32  H   UNL     1     -12.915  12.447  69.158  1.00  0.00     0.000 HD 
HETATM   33  C   UNL     1     -10.831  11.222  65.139  1.00  0.00    -0.200 C  
HETATM   34  C   UNL     1     -11.170   9.438  67.082  1.00  0.00     0.587 C  
HETATM   35  C   UNL     1      -5.132  17.486  65.995  1.00  0.00    -0.191 C  
HETATM   36  H   UNL     1      -6.546  18.528  64.510  1.00  0.00     0.000 HD 
HETATM   37  C   UNL     1     -10.243  12.637  64.764  1.00  0.00    -0.307 C  
HETATM   38  C   UNL     1     -11.068   9.268  68.618  1.00  0.00     0.065 C  
HETATM   39  O   UNL     1      -7.358  18.880  64.856  1.00  0.00     0.070 OA 
HETATM   40  C   UNL     1     -11.072  13.872  65.223  1.00  0.00    -0.318 C  
HETATM   41  C   UNL     1      -6.629  17.026  66.281  1.00  0.00    -0.104 C  
HETATM   42  C   UNL     1     -11.719  10.451  69.331  1.00  0.00    -0.231 C  
HETATM   43  C   UNL     1     -10.890  15.137  64.362  1.00  0.00     0.051 C  
HETATM   44  C   UNL     1     -10.780  14.260  66.672  1.00  0.00    -0.290 C  
HETATM   45  C   UNL     1     -11.842  10.323  70.846  1.00  0.00    -0.473 C  
HETATM   46  C   UNL     1     -11.670  16.321  64.956  1.00  0.00     0.401 C  
HETATM   47  C   UNL     1     -10.966  17.443  65.206  1.00  0.00     0.154 C  
HETATM   48  C   UNL     1     -13.089  16.091  65.409  1.00  0.00     3.133 C  
HETATM   49  C   UNL     1     -11.301  18.691  65.985  1.00  0.00     1.072 C  
HETATM   50  C   UNL     1      -9.966  19.460  65.916  1.00  0.00    -0.264 C  
HETATM   51  C   UNL     1     -11.838  18.546  67.434  1.00  0.00     2.144 C  
HETATM   52  C   UNL     1      -7.427  18.481  66.247  1.00  0.00    -0.257 C  
HETATM   53  C   UNL     1      -8.772  19.063  66.820  1.00  0.00    -0.318 C  
HETATM   54  O   UNL     1      -9.810  20.354  65.077  1.00  0.00     0.238 OA 
BRANCH  33  55
HETATM   55  O   UNL     1     -12.190  11.250  64.677  1.00  0.00     0.295 OA 
HETATM   56  C   UNL     1     -12.378  11.610  63.323  1.00  0.00    -0.158 C  
ENDBRANCH  33  55
BRANCH  34  57
HETATM   57  O   UNL     1     -10.397   8.455  66.395  1.00  0.00    -0.235 OA 
HETATM   58  C   UNL     1      -9.030   8.430  66.795  1.00  0.00    -0.145 C  
ENDBRANCH  34  57
BRANCH  51  59
HETATM   59  C   UNL     1     -12.388  19.778  68.134  1.00  0.00     4.400 C  
HETATM   60  C   UNL     1     -11.709  20.709  68.816  1.00  0.00     3.237 C  
ENDBRANCH  51  59
ENDBRANCH  13  14
ENDBRANCH   5  11
ENDBRANCH   2   3
TORSDOF 6
ENDMDL
MODEL       29
REMARK 921   NORMALIZED FREE ENERGY PREDICTED BY IDOCK:   22.48 KCAL/MOL
REMARK 922        TOTAL FREE ENERGY PREDICTED BY IDOCK:   28.76 KCAL/MOL
REMARK 923 INTER-LIGAND FREE ENERGY PREDICTED BY IDOCK:   22.74 KCAL/MOL
REMARK 924 INTRA-LIGAND FREE ENERGY PREDICTED BY IDOCK:    6.02 KCAL/MOL
REMARK 927      BINDING AFFINITY PREDICTED BY RF-SCORE:    0.00 PKD
ROOT
HETATM    1  C   UNL     1      -6.789  14.512  70.945  1.00  0.00     0.615 C  
HETATM    2  O   UNL     1      -7.826  15.024  70.114  1.00  0.00     0.080 OA 
ENDROOT
BRANCH   2   3
HETATM    3  C   UNL     1      -7.478  16.254  69.472  1.00  0.00    -0.039 C  
HETATM    4  C   UNL     1      -8.062  16.319  68.047  1.00  0.00    -0.150 C  
HETATM    5  C   UNL     1      -7.531  17.586  67.419  1.00  0.00    -0.212 C  
HETATM    6  O   UNL     1      -5.497  16.832  70.815  1.00  0.00    -0.182 OA 
HETATM    7  C   UNL     1      -6.029  17.376  67.162  1.00  0.00    -0.173 C  
HETATM    8  C   UNL     1      -5.922  16.430  69.505  1.00  0.00    -0.176 C  
HETATM    9  C   UNL     1      -5.354  17.466  68.517  1.00  0.00    -0.146 C  
HETATM   10  H   UNL     1      -4.554  16.938  70.835  1.00  0.00     0.000 HD 
BRANCH   5  11
HETATM   11  C   UNL     1      -8.244  18.136  66.224  1.00  0.00    -0.243 C  
HETATM   12  C   UNL     1      -7.939  16.185  64.602  1.00  0.00     8.298 C  
HETATM   13  C   UNL     1      -8.695  17.222  65.334  1.00  0.00     1.340 C  
BRANCH  13  14
HETATM   14  C   UNL     1     -10.195  17.016  65.266  1.00  0.00     0.168 C  
HETATM   15  C   UNL     1     -10.995  14.758  64.887  1.00  0.00    -0.412 C  
HETATM   16  O   UNL     1     -10.464  15.669  65.775  1.00  0.00    -0.321 OA 
HETATM   17  O   UNL     1     -11.634  15.070  63.881  1.00  0.00    -0.072 OA 
HETATM   18  C   UNL     1     -10.725  13.266  65.317  1.00  0.00    -0.311 C  
HETATM   19  C   UNL     1     -11.909  12.356  64.849  1.00  0.00    -0.442 C  
HETATM   20  C   UNL     1     -11.759  11.820  63.415  1.00  0.00    -0.423 C  
HETATM   21  C   UNL     1     -10.429  11.095  63.262  1.00  0.00    -0.323 C  
HETATM   22  C   UNL     1      -9.309  12.068  63.598  1.00  0.00     0.199 C  
HETATM   23  N   UNL     1      -9.437  12.571  64.969  1.00  0.00     0.142 N  
HETATM   24  C   UNL     1      -8.579  11.959  65.904  1.00  0.00     0.215 C  
HETATM   25  C   UNL     1      -8.253  12.660  67.201  1.00  0.00    -0.159 C  
HETATM   26  O   UNL     1      -7.915  10.955  65.650  1.00  0.00    -0.133 OA 
HETATM   27  C   UNL     1      -8.284  11.904  68.570  1.00  0.00    -0.126 C  
HETATM   28  O   UNL     1      -7.924  13.845  67.119  1.00  0.00    -0.151 OA 
HETATM   29  O   UNL     1      -9.522  12.086  69.246  1.00  0.00     0.343 OA 
HETATM   30  O   UNL     1      -7.314  12.614  69.378  1.00  0.00    -0.317 OA 
HETATM   31  C   UNL     1     -10.641  11.385  68.725  1.00  0.00    -0.204 C  
HETATM   32  H   UNL     1      -7.332  12.155  70.210  1.00  0.00     0.000 HD 
HETATM   33  C   UNL     1     -11.947  11.930  69.406  1.00  0.00    -0.289 C  
HETATM   34  C   UNL     1     -10.374   9.866  68.825  1.00  0.00    -0.203 C  
HETATM   35  C   UNL     1     -11.641  19.027  64.715  1.00  0.00     3.702 C  
HETATM   36  H   UNL     1     -12.406  19.959  66.674  1.00  0.00     0.000 HD 
HETATM   37  C   UNL     1     -12.201  13.472  69.186  1.00  0.00    -0.236 C  
HETATM   38  C   UNL     1      -9.002   9.511  68.201  1.00  0.00    -0.123 C  
HETATM   39  O   UNL     1     -11.772  20.091  67.370  1.00  0.00     0.679 OA 
HETATM   40  C   UNL     1     -11.285  14.442  69.989  1.00  0.00    -0.193 C  
HETATM   41  C   UNL     1     -11.015  18.243  65.952  1.00  0.00     0.204 C  
HETATM   42  C   UNL     1      -7.913  10.433  68.747  1.00  0.00    -0.122 C  
HETATM   43  C   UNL     1     -11.901  15.823  70.284  1.00  0.00    -0.369 C  
HETATM   44  C   UNL     1      -9.944  14.679  69.297  1.00  0.00    -0.100 C  
HETATM   45  C   UNL     1      -6.484  10.077  68.346  1.00  0.00    -0.054 C  
HETATM   46  C   UNL     1     -10.884  16.736  70.990  1.00  0.00     0.728 C  
HETATM   47  C   UNL     1     -10.645  17.931  70.414  1.00  0.00     1.566 C  
HETATM   48  C   UNL     1     -10.081  16.168  72.133  1.00  0.00     4.352 C  
HETATM   49  C   UNL     1      -9.575  18.969  70.653  1.00  0.00     2.207 C  
HETATM   50  C   UNL     1      -9.890  19.990  69.540  1.00  0.00     0.092 C  
HETATM   51  C   UNL     1      -8.089  18.523  70.656  1.00  0.00     3.873 C  
HETATM   52  C   UNL     1     -10.528  19.501  66.920  1.00  0.00    -0.477 C  
HETATM   53  C   UNL     1      -9.478  19.719  68.071  1.00  0.00    -0.466 C  
HETATM   54  O   UNL     1     -10.548  21.004  69.800  1.00  0.00     0.497 OA 
BRANCH  33  55
HETATM   55  O   UNL     1     -11.968  11.750  70.830  1.00  0.00    -0.319 OA 
HETATM   56  C   UNL     1     -13.241  11.549  71.412  1.00  0.00    -0.125 C  
ENDBRANCH  33  55
BRANCH  34  57
HETATM   57  O   UNL     1     -11.436   9.160  68.187  1.00  0.00     0.391 OA 
HETATM   58  C   UNL     1     -11.006   7.979  67.516  1.00  0.00     0.105 C  
ENDBRANCH  34  57
BRANCH  51  59
HETATM   59  C   UNL     1      -7.032  19.514  71.119  1.00  0.00     1.122 C  
HETATM   60  C   UNL     1      -6.090  20.116  70.383  1.00  0.00    -0.383 C  
ENDBRANCH  51  59
ENDBRANCH  13  14
ENDBRANCH   5  11
ENDBRANCH   2   3
TORSDOF 6
ENDMDL
MODEL       30
REMARK 921   NORMALIZED FREE ENERGY PREDICTED BY IDOCK:   25.62 KCAL/MOL
REMARK 922        TOTAL FREE ENERGY PREDICTED BY IDOCK:   33.01 KCAL/MOL
REMARK 923 INTER-LIGAND FREE ENERGY PREDICTED BY IDOCK:   27.82 KCAL/MOL
REMARK 924 INTRA-LIGAND FREE ENERGY PREDICTED BY IDOCK:    5.19 KCAL/MOL
REMARK 927      BINDING AFFINITY PREDICTED BY RF-SCORE:    0.00 PKD
ROOT
HETATM    1  C   UNL     1     -13.568  11.715  64.299  1.00  0.00     2.032 C  
HETATM    2  O   UNL     1     -12.541  10.753  64.520  1.00  0.00     2.260 OA 
ENDROOT
BRANCH   2   3
HETATM    3  C   UNL     1     -11.919  10.875  65.803  1.00  0.00     2.049 C  
HETATM    4  C   UNL     1     -11.374   9.517  66.285  1.00  0.00     1.820 C  
HETATM    5  C   UNL     1     -10.862   9.730  67.690  1.00  0.00    -0.301 C  
HETATM    6  O   UNL     1     -13.040  12.930  66.568  1.00  0.00     0.620 OA 
HETATM    7  C   UNL     1     -12.086   9.947  68.596  1.00  0.00     1.198 C  
HETATM    8  C   UNL     1     -12.935  11.519  66.807  1.00  0.00     5.501 C  
HETATM    9  C   UNL     1     -12.589  11.346  68.298  1.00  0.00     1.398 C  
HETATM   10  H   UNL     1     -13.656  13.320  67.177  1.00  0.00     0.000 HD 
BRANCH   5  11
HETATM   11  C   UNL     1      -9.903   8.729  68.254  1.00  0.00    -0.185 C  
HETATM   12  C   UNL     1     -10.351   6.767  66.679  1.00  0.00    -0.219 C  
HETATM   13  C   UNL     1      -9.518   7.743  67.412  1.00  0.00    -0.177 C  
BRANCH  13  14
HETATM   14  C   UNL     1      -8.089   7.792  66.908  1.00  0.00    -0.116 C  
HETATM   15  C   UNL     1      -7.475   9.647  65.473  1.00  0.00    -0.106 C  
HETATM   16  O   UNL     1      -7.740   9.205  66.751  1.00  0.00    -0.096 OA 
HETATM   17  O   UNL     1      -7.099   8.915  64.556  1.00  0.00    -0.087 OA 
HETATM   18  C   UNL     1      -7.671  11.203  65.318  1.00  0.00     0.418 C  
HETATM   19  C   UNL     1      -6.667  11.761  64.253  1.00  0.00     3.696 C  
HETATM   20  C   UNL     1      -7.187  11.695  62.807  1.00  0.00     1.397 C  
HETATM   21  C   UNL     1      -8.533  12.398  62.700  1.00  0.00     3.317 C  
HETATM   22  C   UNL     1      -9.505  11.725  63.657  1.00  0.00    -0.086 C  
HETATM   23  N   UNL     1      -9.024  11.799  65.040  1.00  0.00     0.211 N  
HETATM   24  C   UNL     1      -9.638  12.794  65.826  1.00  0.00    -0.092 C  
HETATM   25  C   UNL     1      -9.609  12.691  67.331  1.00  0.00    -0.194 C  
HETATM   26  O   UNL     1     -10.372  13.662  65.357  1.00  0.00    -0.308 OA 
HETATM   27  C   UNL     1      -9.258  13.923  68.230  1.00  0.00    -0.207 C  
HETATM   28  O   UNL     1      -9.914  11.599  67.815  1.00  0.00    -0.175 OA 
HETATM   29  O   UNL     1      -7.885  13.931  68.603  1.00  0.00    -0.136 OA 
HETATM   30  O   UNL     1      -9.974  13.666  69.462  1.00  0.00    -0.189 OA 
HETATM   31  C   UNL     1      -6.953  14.281  67.591  1.00  0.00    -0.184 C  
HETATM   32  H   UNL     1      -9.761  14.415  70.008  1.00  0.00     0.000 HD 
HETATM   33  C   UNL     1      -5.503  13.954  68.099  1.00  0.00    -0.120 C  
HETATM   34  C   UNL     1      -7.229  15.730  67.133  1.00  0.00    -0.206 C  
HETATM   35  C   UNL     1      -6.770   5.624  66.884  1.00  0.00    -0.062 C  
HETATM   36  H   UNL     1      -5.514   5.489  68.806  1.00  0.00     0.000 HD 
HETATM   37  C   UNL     1      -5.268  12.436  68.463  1.00  0.00    -0.052 C  
HETATM   38  C   UNL     1      -8.724  15.912  66.769  1.00  0.00    -0.303 C  
HETATM   39  O   UNL     1      -5.949   5.692  69.626  1.00  0.00    -0.019 OA 
HETATM   40  C   UNL     1      -5.926  11.935  69.783  1.00  0.00    -0.132 C  
HETATM   41  C   UNL     1      -7.089   6.879  67.812  1.00  0.00    -0.085 C  
HETATM   42  C   UNL     1      -9.615  15.367  67.883  1.00  0.00    -0.206 C  
HETATM   43  C   UNL     1      -5.217  10.742  70.452  1.00  0.00    -0.066 C  
HETATM   44  C   UNL     1      -7.390  11.546  69.589  1.00  0.00     0.230 C  
HETATM   45  C   UNL     1     -11.107  15.642  67.729  1.00  0.00    -0.311 C  
HETATM   46  C   UNL     1      -5.998  10.264  71.687  1.00  0.00     0.348 C  
HETATM   47  C   UNL     1      -6.340   8.960  71.716  1.00  0.00    -0.070 C  
HETATM   48  C   UNL     1      -6.506  11.296  72.661  1.00  0.00     4.465 C  
HETATM   49  C   UNL     1      -7.285   8.185  72.602  1.00  0.00    -0.127 C  
HETATM   50  C   UNL     1      -7.230   6.786  71.954  1.00  0.00    -0.080 C  
HETATM   51  C   UNL     1      -8.736   8.707  72.783  1.00  0.00    -0.046 C  
HETATM   52  C   UNL     1      -7.282   6.148  69.289  1.00  0.00    -0.082 C  
HETATM   53  C   UNL     1      -8.004   6.484  70.647  1.00  0.00    -0.111 C  
HETATM   54  O   UNL     1      -6.499   5.913  72.434  1.00  0.00    -0.055 OA 
BRANCH  33  55
HETATM   55  O   UNL     1      -5.131  14.681  69.279  1.00  0.00    -0.087 OA 
HETATM   56  C   UNL     1      -6.137  15.493  69.852  1.00  0.00    -0.157 C  
ENDBRANCH  33  55
BRANCH  34  57
HETATM   57  O   UNL     1      -6.381  16.044  66.030  1.00  0.00     1.074 OA 
HETATM   58  C   UNL     1      -6.745  17.249  65.362  1.00  0.00     1.144 C  
ENDBRANCH  34  57
BRANCH  51  59
HETATM   59  C   UNL     1      -9.614   8.064  73.844  1.00  0.00     0.288 C  
HETATM   60  C   UNL     1     -10.449   7.027  73.703  1.00  0.00    -0.414 C  
ENDBRANCH  51  59
ENDBRANCH  13  14
ENDBRANCH   5  11
ENDBRANCH   2   3
TORSDOF 6
ENDMDL
MODEL       31
REMARK 921   NORMALIZED FREE ENERGY PREDICTED BY IDOCK:   26.30 KCAL/MOL
REMARK 922        TOTAL FREE ENERGY PREDICTED BY IDOCK:   33.92 KCAL/MOL
REMARK 923 INTER-LIGAND FREE ENERGY PREDICTED BY IDOCK:   30.62 KCAL/MOL
REMARK 924 INTRA-LIGAND FREE ENERGY PREDICTED BY IDOCK:    3.30 KCAL/MOL
REMARK 927      BINDING AFFINITY PREDICTED BY RF-SCORE:    0.00 PKD
ROOT
HETATM    1  C   UNL     1     -11.467  15.785  64.646  1.00  0.00    -0.282 C  
HETATM    2  O   UNL     1     -10.839  14.541  64.354  1.00  0.00    -0.284 OA 
ENDROOT
BRANCH   2   3
HETATM    3  C   UNL     1     -10.539  13.772  65.523  1.00  0.00    -0.307 C  
HETATM    4  C   UNL     1     -10.054  12.358  65.146  1.00  0.00    -0.276 C  
HETATM    5  C   UNL     1      -9.893  11.596  66.440  1.00  0.00    -0.233 C  
HETATM    6  O   UNL     1     -11.908  15.013  67.150  1.00  0.00    -0.288 OA 
HETATM    7  C   UNL     1     -11.303  11.335  66.996  1.00  0.00    -0.262 C  
HETATM    8  C   UNL     1     -11.791  13.758  66.464  1.00  0.00    -0.407 C  
HETATM    9  C   UNL     1     -11.793  12.661  67.545  1.00  0.00    -0.396 C  
HETATM   10  H   UNL     1     -12.667  15.005  67.720  1.00  0.00     0.000 HD 
BRANCH   5  11
HETATM   11  C   UNL     1      -9.043  10.365  66.436  1.00  0.00    -0.177 C  
HETATM   12  C   UNL     1      -8.675  10.103  63.920  1.00  0.00    -0.220 C  
HETATM   13  C   UNL     1      -8.271  10.186  65.339  1.00  0.00    -0.151 C  
BRANCH  13  14
HETATM   14  C   UNL     1      -6.777  10.375  65.515  1.00  0.00    -0.121 C  
HETATM   15  C   UNL     1      -5.996  12.589  66.120  1.00  0.00     2.401 C  
HETATM   16  O   UNL     1      -6.595  11.417  66.528  1.00  0.00    -0.129 OA 
HETATM   17  O   UNL     1      -5.247  12.676  65.145  1.00  0.00     3.911 OA 
HETATM   18  C   UNL     1      -6.344  13.806  67.059  1.00  0.00     1.020 C  
HETATM   19  C   UNL     1      -5.139  14.803  67.104  1.00  0.00     0.830 C  
HETATM   20  C   UNL     1      -5.150  15.852  65.979  1.00  0.00     2.967 C  
HETATM   21  C   UNL     1      -6.474  16.605  65.976  1.00  0.00     0.930 C  
HETATM   22  C   UNL     1      -7.599  15.599  65.791  1.00  0.00     2.876 C  
HETATM   23  N   UNL     1      -7.604  14.606  66.870  1.00  0.00     0.124 N  
HETATM   24  C   UNL     1      -8.570  14.827  67.871  1.00  0.00    -0.166 C  
HETATM   25  C   UNL     1      -9.014  13.688  68.757  1.00  0.00     0.074 C  
HETATM   26  O   UNL     1      -9.227  15.864  67.954  1.00  0.00    -0.197 OA 
HETATM   27  C   UNL     1      -9.145  13.859  70.307  1.00  0.00     2.923 C  
HETATM   28  O   UNL     1      -9.305  12.632  68.192  1.00  0.00    -0.202 OA 
HETATM   29  O   UNL     1      -7.981  13.408  70.988  1.00  0.00     4.342 OA 
HETATM   30  O   UNL     1     -10.177  12.911  70.672  1.00  0.00     2.943 OA 
HETATM   31  C   UNL     1      -6.830  14.234  70.897  1.00  0.00     0.713 C  
HETATM   32  H   UNL     1     -10.257  13.015  71.613  1.00  0.00     0.000 HD 
HETATM   33  C   UNL     1      -5.590  13.445  71.452  1.00  0.00    -0.145 C  
HETATM   34  C   UNL     1      -7.142  15.602  71.545  1.00  0.00     3.145 C  
HETATM   35  C   UNL     1      -5.235   8.703  64.391  1.00  0.00    -0.043 C  
HETATM   36  H   UNL     1      -4.658   7.075  65.911  1.00  0.00     0.000 HD 
HETATM   37  C   UNL     1      -5.278  12.101  70.684  1.00  0.00    -0.138 C  
HETATM   38  C   UNL     1      -8.449  16.195  70.963  1.00  0.00     4.377 C  
HETATM   39  O   UNL     1      -5.359   6.697  66.431  1.00  0.00    -0.016 OA 
HETATM   40  C   UNL     1      -6.250  10.914  70.951  1.00  0.00     0.206 C  
HETATM   41  C   UNL     1      -6.006   8.962  65.760  1.00  0.00    -0.051 C  
HETATM   42  C   UNL     1      -9.567  15.156  70.994  1.00  0.00     1.808 C  
HETATM   43  C   UNL     1      -5.637   9.514  70.757  1.00  0.00    -0.057 C  
HETATM   44  C   UNL     1      -7.505  10.987  70.083  1.00  0.00     0.697 C  
HETATM   45  C   UNL     1     -10.953  15.665  70.612  1.00  0.00    -0.364 C  
HETATM   46  C   UNL     1      -6.700   8.420  70.946  1.00  0.00    -0.042 C  
HETATM   47  C   UNL     1      -6.850   7.543  69.933  1.00  0.00    -0.047 C  
HETATM   48  C   UNL     1      -7.632   8.520  72.127  1.00  0.00    -0.122 C  
HETATM   49  C   UNL     1      -7.914   6.513  69.640  1.00  0.00    -0.120 C  
HETATM   50  C   UNL     1      -7.460   5.992  68.261  1.00  0.00    -0.086 C  
HETATM   51  C   UNL     1      -9.403   6.951  69.657  1.00  0.00    -0.145 C  
HETATM   52  C   UNL     1      -6.562   7.439  66.113  1.00  0.00    -0.049 C  
HETATM   53  C   UNL     1      -7.721   6.814  66.974  1.00  0.00    -0.100 C  
HETATM   54  O   UNL     1      -6.809   4.944  68.180  1.00  0.00    -0.053 OA 
BRANCH  33  55
HETATM   55  O   UNL     1      -5.723  13.063  72.829  1.00  0.00    -0.044 OA 
HETATM   56  C   UNL     1      -5.263  14.002  73.781  1.00  0.00    -0.311 C  
ENDBRANCH  33  55
BRANCH  34  57
HETATM   57  O   UNL     1      -6.035  16.480  71.343  1.00  0.00     0.749 OA 
HETATM   58  C   UNL     1      -5.986  17.036  70.032  1.00  0.00    -0.184 C  
ENDBRANCH  34  57
BRANCH  51  59
HETATM   59  C   UNL     1     -10.478   5.879  69.589  1.00  0.00    -0.346 C  
HETATM   60  C   UNL     1     -10.998   5.170  70.599  1.00  0.00     0.150 C  
ENDBRANCH  51  59
ENDBRANCH  13  14
ENDBRANCH   5  11
ENDBRANCH   2   3
TORSDOF 6
ENDMDL
MODEL       32
REMARK 921   NORMALIZED FREE ENERGY PREDICTED BY IDOCK:   26.68 KCAL/MOL
REMARK 922        TOTAL FREE ENERGY PREDICTED BY IDOCK:   34.44 KCAL/MOL
REMARK 923 INTER-LIGAND FREE ENERGY PREDICTED BY IDOCK:   16.44 KCAL/MOL
REMARK 924 INTRA-LIGAND FREE ENERGY PREDICTED BY IDOCK:   18.00 KCAL/MOL
REMARK 927      BINDING AFFINITY PREDICTED BY RF-SCORE:    0.00 PKD
ROOT
HETATM    1  C   UNL     1     -11.180   8.597  71.564  1.00  0.00    -0.290 C  
HETATM    2  O   UNL     1     -10.962   9.981  71.306  1.00  0.00    -0.264 OA 
ENDROOT
BRANCH   2   3
HETATM    3  C   UNL     1     -11.689  10.464  70.171  1.00  0.00    -0.312 C  
HETATM    4  C   UNL     1     -10.961  10.116  68.859  1.00  0.00    -0.261 C  
HETATM    5  C   UNL     1     -11.737  10.779  67.745  1.00  0.00     0.021 C  
HETATM    6  O   UNL     1     -13.000  12.224  71.288  1.00  0.00    -0.322 OA 
HETATM    7  C   UNL     1     -11.510  12.295  67.868  1.00  0.00    -0.390 C  
HETATM    8  C   UNL     1     -11.945  12.000  70.341  1.00  0.00    -0.291 C  
HETATM    9  C   UNL     1     -12.338  12.750  69.055  1.00  0.00     0.146 C  
HETATM   10  H   UNL     1     -13.155  13.155  71.391  1.00  0.00     0.000 HD 
BRANCH   5  11
HETATM   11  C   UNL     1     -11.534  10.281  66.348  1.00  0.00     1.086 C  
HETATM   12  C   UNL     1     -13.004  11.943  65.080  1.00  0.00     1.299 C  
HETATM   13  C   UNL     1     -11.773  11.177  65.362  1.00  0.00     0.666 C  
BRANCH  13  14
HETATM   14  C   UNL     1     -10.568  11.701  64.608  1.00  0.00    -0.312 C  
HETATM   15  C   UNL     1     -10.147  14.088  64.696  1.00  0.00    -0.067 C  
HETATM   16  O   UNL     1     -10.081  12.871  65.341  1.00  0.00    -0.285 OA 
HETATM   17  O   UNL     1     -10.171  14.216  63.471  1.00  0.00     1.711 OA 
HETATM   18  C   UNL     1     -10.153  15.304  65.697  1.00  0.00    -0.371 C  
HETATM   19  C   UNL     1      -9.443  16.535  65.041  1.00  0.00     1.536 C  
HETATM   20  C   UNL     1     -10.373  17.415  64.189  1.00  0.00     4.921 C  
HETATM   21  C   UNL     1     -11.574  17.861  65.012  1.00  0.00     2.426 C  
HETATM   22  C   UNL     1     -12.303  16.622  65.509  1.00  0.00     3.266 C  
HETATM   23  N   UNL     1     -11.427  15.787  66.336  1.00  0.00     0.141 N  
HETATM   24  C   UNL     1     -11.628  15.914  67.724  1.00  0.00    -0.044 C  
HETATM   25  C   UNL     1     -11.167  14.821  68.657  1.00  0.00    -0.273 C  
HETATM   26  O   UNL     1     -12.336  16.789  68.223  1.00  0.00     0.974 OA 
HETATM   27  C   UNL     1     -10.391  15.143  69.976  1.00  0.00    -0.158 C  
HETATM   28  O   UNL     1     -11.469  13.667  68.346  1.00  0.00    -0.270 OA 
HETATM   29  O   UNL     1      -8.984  15.037  69.800  1.00  0.00    -0.075 OA 
HETATM   30  O   UNL     1     -10.737  14.047  70.857  1.00  0.00     0.494 OA 
HETATM   31  C   UNL     1      -8.354  16.073  69.063  1.00  0.00    -0.243 C  
HETATM   32  H   UNL     1     -10.265  14.243  71.659  1.00  0.00     0.000 HD 
HETATM   33  C   UNL     1      -6.882  15.641  68.728  1.00  0.00    -0.118 C  
HETATM   34  C   UNL     1      -8.542  17.410  69.815  1.00  0.00     1.290 C  
HETATM   35  C   UNL     1      -9.643  10.276  62.722  1.00  0.00    -0.277 C  
HETATM   36  H   UNL     1      -7.905   9.003  63.527  1.00  0.00     0.000 HD 
HETATM   37  C   UNL     1      -6.771  14.313  67.881  1.00  0.00    -0.177 C  
HETATM   38  C   UNL     1     -10.034  17.636  70.162  1.00  0.00     1.224 C  
HETATM   39  O   UNL     1      -8.042   8.550  64.351  1.00  0.00    -0.150 OA 
HETATM   40  C   UNL     1      -7.071  12.986  68.638  1.00  0.00    -0.103 C  
HETATM   41  C   UNL     1      -9.487  10.526  64.287  1.00  0.00    -0.337 C  
HETATM   42  C   UNL     1     -10.622  16.392  70.825  1.00  0.00     0.512 C  
HETATM   43  C   UNL     1      -6.375  11.737  68.063  1.00  0.00    -0.053 C  
HETATM   44  C   UNL     1      -8.567  12.684  68.707  1.00  0.00     0.174 C  
HETATM   45  C   UNL     1     -12.037  16.543  71.376  1.00  0.00     0.258 C  
HETATM   46  C   UNL     1      -6.814  10.471  68.817  1.00  0.00    -0.060 C  
HETATM   47  C   UNL     1      -7.316   9.467  68.070  1.00  0.00    -0.082 C  
HETATM   48  C   UNL     1      -6.854  10.509  70.324  1.00  0.00    -0.097 C  
HETATM   49  C   UNL     1      -8.057   8.206  68.442  1.00  0.00    -0.128 C  
HETATM   50  C   UNL     1      -8.399   7.634  67.051  1.00  0.00    -0.124 C  
HETATM   51  C   UNL     1      -9.296   8.313  69.370  1.00  0.00    -0.155 C  
HETATM   52  C   UNL     1      -9.334   8.972  64.850  1.00  0.00     0.118 C  
HETATM   53  C   UNL     1      -9.563   8.221  66.214  1.00  0.00    -0.266 C  
HETATM   54  O   UNL     1      -7.693   6.748  66.557  1.00  0.00    -0.097 OA 
BRANCH  33  55
HETATM   55  O   UNL     1      -6.075  15.407  69.891  1.00  0.00    -0.138 OA 
HETATM   56  C   UNL     1      -6.685  15.679  71.137  1.00  0.00     1.562 C  
ENDBRANCH  33  55
BRANCH  34  57
HETATM   57  O   UNL     1      -8.025  18.474  69.017  1.00  0.00    -0.241 OA 
HETATM   58  C   UNL     1      -7.711  18.080  67.685  1.00  0.00    -0.215 C  
ENDBRANCH  34  57
BRANCH  51  59
HETATM   59  C   UNL     1      -9.902   7.035  69.928  1.00  0.00    -0.173 C  
HETATM   60  C   UNL     1      -9.271   5.901  70.255  1.00  0.00    -0.170 C  
ENDBRANCH  51  59
ENDBRANCH  13  14
ENDBRANCH   5  11
ENDBRANCH   2   3
TORSDOF 6
ENDMDL
MODEL       33
REMARK 921   NORMALIZED FREE ENERGY PREDICTED BY IDOCK:   26.96 KCAL/MOL
REMARK 922        TOTAL FREE ENERGY PREDICTED BY IDOCK:   34.82 KCAL/MOL
REMARK 923 INTER-LIGAND FREE ENERGY PREDICTED BY IDOCK:   31.65 KCAL/MOL
REMARK 924 INTRA-LIGAND FREE ENERGY PREDICTED BY IDOCK:    3.17 KCAL/MOL
REMARK 927      BINDING AFFINITY PREDICTED BY RF-SCORE:    0.00 PKD
ROOT
HETATM    1  C   UNL     1      -9.744   8.244  73.573  1.00  0.00     0.271 C  
HETATM    2  O   UNL     1      -9.913   7.314  72.508  1.00  0.00    -0.167 OA 
ENDROOT
BRANCH   2   3
HETATM    3  C   UNL     1     -10.424   7.911  71.312  1.00  0.00    -0.203 C  
HETATM    4  C   UNL     1      -9.729   9.257  71.026  1.00  0.00    -0.341 C  
HETATM    5  C   UNL     1     -10.427   9.858  69.829  1.00  0.00    -0.292 C  
HETATM    6  O   UNL     1     -12.597   6.759  71.215  1.00  0.00    -0.353 OA 
HETATM    7  C   UNL     1     -11.831  10.290  70.286  1.00  0.00    -0.372 C  
HETATM    8  C   UNL     1     -11.981   8.037  71.425  1.00  0.00    -0.298 C  
HETATM    9  C   UNL     1     -12.638   9.014  70.431  1.00  0.00     0.490 C  
HETATM   10  H   UNL     1     -13.541   6.835  71.284  1.00  0.00     0.000 HD 
BRANCH   5  11
HETATM   11  C   UNL     1      -9.720  10.931  69.062  1.00  0.00    -0.181 C  
HETATM   12  C   UNL     1      -8.610  12.183  70.995  1.00  0.00    10.185 C  
HETATM   13  C   UNL     1      -8.662  11.501  69.684  1.00  0.00     1.146 C  
BRANCH  13  14
HETATM   14  C   UNL     1      -7.287  11.171  69.138  1.00  0.00    -0.115 C  
HETATM   15  C   UNL     1      -6.646   8.833  69.066  1.00  0.00    -0.048 C  
HETATM   16  O   UNL     1      -7.385   9.853  68.506  1.00  0.00    -0.076 OA 
HETATM   17  O   UNL     1      -5.633   9.009  69.745  1.00  0.00    -0.032 OA 
HETATM   18  C   UNL     1      -7.220   7.407  68.715  1.00  0.00    -0.090 C  
HETATM   19  C   UNL     1      -6.050   6.371  68.630  1.00  0.00    -0.025 C  
HETATM   20  C   UNL     1      -5.679   5.733  69.979  1.00  0.00    -0.016 C  
HETATM   21  C   UNL     1      -6.910   5.106  70.620  1.00  0.00    -0.044 C  
HETATM   22  C   UNL     1      -7.961   6.189  70.803  1.00  0.00    -0.115 C  
HETATM   23  N   UNL     1      -8.332   6.790  69.519  1.00  0.00    -0.131 N  
HETATM   24  C   UNL     1      -9.548   6.328  68.979  1.00  0.00    -0.127 C  
HETATM   25  C   UNL     1     -10.282   7.156  67.953  1.00  0.00    -0.187 C  
HETATM   26  O   UNL     1     -10.160   5.362  69.433  1.00  0.00    -0.191 OA 
HETATM   27  C   UNL     1     -10.874   6.515  66.654  1.00  0.00    -0.152 C  
HETATM   28  O   UNL     1     -10.426   8.353  68.211  1.00  0.00    -0.206 OA 
HETATM   29  O   UNL     1      -9.990   6.653  65.548  1.00  0.00     0.734 OA 
HETATM   30  O   UNL     1     -12.003   7.364  66.333  1.00  0.00     1.945 OA 
HETATM   31  C   UNL     1      -8.837   5.825  65.547  1.00  0.00    -0.113 C  
HETATM   32  H   UNL     1     -12.362   6.974  65.544  1.00  0.00     0.000 HD 
HETATM   33  C   UNL     1      -7.855   6.318  64.425  1.00  0.00    -0.115 C  
HETATM   34  C   UNL     1      -9.281   4.346  65.496  1.00  0.00    -0.150 C  
HETATM   35  C   UNL     1      -5.538  13.009  69.151  1.00  0.00    -0.073 C  
HETATM   36  H   UNL     1      -5.513  14.035  67.093  1.00  0.00     0.000 HD 
HETATM   37  C   UNL     1      -7.374   7.812  64.592  1.00  0.00    -0.080 C  
HETATM   38  C   UNL     1     -10.325   4.051  66.600  1.00  0.00     0.441 C  
HETATM   39  O   UNL     1      -6.352  14.274  66.715  1.00  0.00     0.629 OA 
HETATM   40  C   UNL     1      -8.424   8.915  64.265  1.00  0.00    -0.165 C  
HETATM   41  C   UNL     1      -6.680  12.381  68.235  1.00  0.00    -0.070 C  
HETATM   42  C   UNL     1     -11.437   5.097  66.577  1.00  0.00     1.452 C  
HETATM   43  C   UNL     1      -7.833  10.262  63.809  1.00  0.00    -0.118 C  
HETATM   44  C   UNL     1      -9.351   9.200  65.446  1.00  0.00    -0.258 C  
HETATM   45  C   UNL     1     -12.621   4.824  67.499  1.00  0.00    13.875 C  
HETATM   46  C   UNL     1      -8.943  11.308  63.609  1.00  0.00     0.037 C  
HETATM   47  C   UNL     1      -8.808  12.467  64.285  1.00  0.00     1.560 C  
HETATM   48  C   UNL     1     -10.186  10.901  62.860  1.00  0.00    -0.089 C  
HETATM   49  C   UNL     1      -9.769  13.602  64.539  1.00  0.00     0.539 C  
HETATM   50  C   UNL     1      -8.936  14.501  65.476  1.00  0.00     1.074 C  
HETATM   51  C   UNL     1     -11.175  13.278  65.111  1.00  0.00    -0.322 C  
HETATM   52  C   UNL     1      -7.373  13.749  67.599  1.00  0.00    -0.172 C  
HETATM   53  C   UNL     1      -8.762  14.144  66.974  1.00  0.00    -0.222 C  
HETATM   54  O   UNL     1      -8.331  15.476  65.019  1.00  0.00     2.873 OA 
BRANCH  33  55
HETATM   55  O   UNL     1      -8.415   6.255  63.105  1.00  0.00     0.028 OA 
HETATM   56  C   UNL     1      -8.361   4.994  62.466  1.00  0.00    -0.102 C  
ENDBRANCH  33  55
BRANCH  34  57
HETATM   57  O   UNL     1      -8.134   3.507  65.624  1.00  0.00    -0.092 OA 
HETATM   58  C   UNL     1      -8.444   2.117  65.589  1.00  0.00    -0.100 C  
ENDBRANCH  34  57
BRANCH  51  59
HETATM   59  C   UNL     1     -12.218  14.384  65.153  1.00  0.00    -0.393 C  
HETATM   60  C   UNL     1     -12.041  15.669  65.484  1.00  0.00     0.761 C  
ENDBRANCH  51  59
ENDBRANCH  13  14
ENDBRANCH   5  11
ENDBRANCH   2   3
TORSDOF 6
ENDMDL
MODEL       34
REMARK 921   NORMALIZED FREE ENERGY PREDICTED BY IDOCK:   30.03 KCAL/MOL
REMARK 922        TOTAL FREE ENERGY PREDICTED BY IDOCK:   38.97 KCAL/MOL
REMARK 923 INTER-LIGAND FREE ENERGY PREDICTED BY IDOCK:   36.73 KCAL/MOL
REMARK 924 INTRA-LIGAND FREE ENERGY PREDICTED BY IDOCK:    2.24 KCAL/MOL
REMARK 927      BINDING AFFINITY PREDICTED BY RF-SCORE:    0.00 PKD
ROOT
HETATM    1  C   UNL     1      -6.474   5.636  71.957  1.00  0.00    -0.052 C  
HETATM    2  O   UNL     1      -6.843   6.649  71.027  1.00  0.00    -0.059 OA 
ENDROOT
BRANCH   2   3
HETATM    3  C   UNL     1      -8.258   6.758  70.843  1.00  0.00    -0.123 C  
HETATM    4  C   UNL     1      -8.797   8.064  71.460  1.00  0.00    -0.178 C  
HETATM    5  C   UNL     1     -10.301   8.016  71.327  1.00  0.00    -0.230 C  
HETATM    6  O   UNL     1      -8.779   4.374  70.518  1.00  0.00    -0.080 OA 
HETATM    7  C   UNL     1     -10.813   6.942  72.302  1.00  0.00    -0.262 C  
HETATM    8  C   UNL     1      -8.951   5.477  71.419  1.00  0.00    -0.139 C  
HETATM    9  C   UNL     1     -10.464   5.605  71.678  1.00  0.00    -0.286 C  
HETATM   10  H   UNL     1      -9.199   3.597  70.867  1.00  0.00     0.000 HD 
BRANCH   5  11
HETATM   11  C   UNL     1     -11.062   9.300  71.438  1.00  0.00    -0.437 C  
HETATM   12  C   UNL     1      -9.266  10.937  70.647  1.00  0.00     3.029 C  
HETATM   13  C   UNL     1     -10.609  10.322  70.676  1.00  0.00    -0.035 C  
BRANCH  13  14
HETATM   14  C   UNL     1     -11.466  10.724  69.492  1.00  0.00    -0.294 C  
HETATM   15  C   UNL     1     -11.988  13.079  69.241  1.00  0.00    -0.278 C  
HETATM   16  O   UNL     1     -11.053  12.075  69.106  1.00  0.00    -0.232 OA 
HETATM   17  O   UNL     1     -13.205  12.889  69.244  1.00  0.00     1.570 OA 
HETATM   18  C   UNL     1     -11.331  14.507  69.357  1.00  0.00    -0.279 C  
HETATM   19  C   UNL     1     -12.276  15.579  68.718  1.00  0.00    -0.032 C  
HETATM   20  C   UNL     1     -13.329  16.142  69.687  1.00  0.00     2.426 C  
HETATM   21  C   UNL     1     -12.654  16.693  70.935  1.00  0.00     2.282 C  
HETATM   22  C   UNL     1     -11.862  15.571  71.588  1.00  0.00    -0.415 C  
HETATM   23  N   UNL     1     -10.844  15.040  70.677  1.00  0.00    -0.162 N  
HETATM   24  C   UNL     1      -9.536  15.501  70.920  1.00  0.00     1.813 C  
HETATM   25  C   UNL     1      -8.352  14.718  70.407  1.00  0.00     1.314 C  
HETATM   26  O   UNL     1      -9.281  16.419  71.699  1.00  0.00     5.588 OA 
HETATM   27  C   UNL     1      -7.154  15.422  69.688  1.00  0.00    -0.180 C  
HETATM   28  O   UNL     1      -8.360  13.504  70.620  1.00  0.00     3.701 OA 
HETATM   29  O   UNL     1      -7.288  15.378  68.272  1.00  0.00    -0.107 OA 
HETATM   30  O   UNL     1      -6.024  14.563  69.978  1.00  0.00    -0.118 OA 
HETATM   31  C   UNL     1      -8.263  16.237  67.699  1.00  0.00    -0.153 C  
HETATM   32  H   UNL     1      -5.297  14.991  69.541  1.00  0.00     0.000 HD 
HETATM   33  C   UNL     1      -8.467  15.843  66.193  1.00  0.00    -0.161 C  
HETATM   34  C   UNL     1      -7.879  17.703  67.998  1.00  0.00    -0.235 C  
HETATM   35  C   UNL     1     -12.919   8.939  68.424  1.00  0.00     9.212 C  
HETATM   36  H   UNL     1     -11.806   8.044  66.621  1.00  0.00     0.000 HD 
HETATM   37  C   UNL     1      -8.947  14.356  65.969  1.00  0.00     0.216 C  
HETATM   38  C   UNL     1      -7.609  17.899  69.511  1.00  0.00     0.370 C  
HETATM   39  O   UNL     1     -10.894   7.806  66.747  1.00  0.00    -0.254 OA 
HETATM   40  C   UNL     1      -7.877  13.246  66.194  1.00  0.00     1.927 C  
HETATM   41  C   UNL     1     -11.469   9.590  68.324  1.00  0.00     0.422 C  
HETATM   42  C   UNL     1      -6.654  16.825  70.026  1.00  0.00     0.243 C  
HETATM   43  C   UNL     1      -8.109  11.947  65.398  1.00  0.00     1.158 C  
HETATM   44  C   UNL     1      -7.742  12.862  67.666  1.00  0.00    -0.162 C  
HETATM   45  C   UNL     1      -6.169  17.006  71.461  1.00  0.00     2.373 C  
HETATM   46  C   UNL     1      -7.060  10.885  65.766  1.00  0.00     0.014 C  
HETATM   47  C   UNL     1      -7.529   9.691  66.178  1.00  0.00    -0.098 C  
HETATM   48  C   UNL     1      -5.613  11.302  65.845  1.00  0.00     0.014 C  
HETATM   49  C   UNL     1      -6.851   8.515  66.838  1.00  0.00    -0.069 C  
HETATM   50  C   UNL     1      -8.052   7.584  67.106  1.00  0.00    -0.118 C  
HETATM   51  C   UNL     1      -5.989   8.763  68.104  1.00  0.00    -0.046 C  
HETATM   52  C   UNL     1     -10.528   8.245  68.078  1.00  0.00    -0.181 C  
HETATM   53  C   UNL     1      -9.019   7.851  68.286  1.00  0.00    -0.132 C  
HETATM   54  O   UNL     1      -8.299   6.656  66.327  1.00  0.00    -0.114 OA 
BRANCH  33  55
HETATM   55  O   UNL     1      -7.278  15.973  65.400  1.00  0.00     2.718 OA 
HETATM   56  C   UNL     1      -6.053  15.922  66.103  1.00  0.00     2.689 C  
ENDBRANCH  33  55
BRANCH  34  57
HETATM   57  O   UNL     1      -8.918  18.565  67.537  1.00  0.00    -0.272 OA 
HETATM   58  C   UNL     1      -9.161  19.670  68.402  1.00  0.00    -0.339 C  
ENDBRANCH  34  57
BRANCH  51  59
HETATM   59  C   UNL     1      -5.127   7.627  68.633  1.00  0.00    -0.025 C  
HETATM   60  C   UNL     1      -5.269   6.315  68.411  1.00  0.00    -0.007 C  
ENDBRANCH  51  59
ENDBRANCH  13  14
ENDBRANCH   5  11
ENDBRANCH   2   3
TORSDOF 6
ENDMDL
MODEL       35
REMARK 921   NORMALIZED FREE ENERGY PREDICTED BY IDOCK:   35.61 KCAL/MOL
REMARK 922        TOTAL FREE ENERGY PREDICTED BY IDOCK:   46.50 KCAL/MOL
REMARK 923 INTER-LIGAND FREE ENERGY PREDICTED BY IDOCK:   32.95 KCAL/MOL
REMARK 924 INTRA-LIGAND FREE ENERGY PREDICTED BY IDOCK:   13.55 KCAL/MOL
REMARK 927      BINDING AFFINITY PREDICTED BY RF-SCORE:    0.00 PKD
ROOT
HETATM    1  C   UNL     1     -10.503   9.260  71.922  1.00  0.00    -0.055 C  
HETATM    2  O   UNL     1      -9.904  10.406  72.519  1.00  0.00     5.477 OA 
ENDROOT
BRANCH   2   3
HETATM    3  C   UNL     1      -8.892  11.004  71.702  1.00  0.00     9.548 C  
HETATM    4  C   UNL     1      -9.306  11.002  70.218  1.00  0.00     1.902 C  
HETATM    5  C   UNL     1      -8.125  11.529  69.439  1.00  0.00     0.394 C  
HETATM    6  O   UNL     1      -6.969  10.703  73.209  1.00  0.00     3.538 OA 
HETATM    7  C   UNL     1      -7.027  10.454  69.487  1.00  0.00    -0.102 C  
HETATM    8  C   UNL     1      -7.529  10.277  71.959  1.00  0.00     3.668 C  
HETATM    9  C   UNL     1      -6.446  10.506  70.888  1.00  0.00     0.212 C  
HETATM   10  H   UNL     1      -6.142  10.262  73.365  1.00  0.00     0.000 HD 
BRANCH   5  11
HETATM   11  C   UNL     1      -8.363  12.042  68.053  1.00  0.00    -0.162 C  
HETATM   12  C   UNL     1      -6.252  11.175  66.902  1.00  0.00    -0.111 C  
HETATM   13  C   UNL     1      -7.704  11.395  67.063  1.00  0.00    -0.154 C  
BRANCH  13  14
HETATM   14  C   UNL     1      -8.537  10.531  66.138  1.00  0.00    -0.150 C  
HETATM   15  C   UNL     1      -8.015   8.164  66.051  1.00  0.00    -0.100 C  
HETATM   16  O   UNL     1      -8.605   9.200  66.744  1.00  0.00    -0.124 OA 
HETATM   17  O   UNL     1      -7.826   8.171  64.834  1.00  0.00    -0.112 OA 
HETATM   18  C   UNL     1      -7.639   6.950  66.982  1.00  0.00    -0.102 C  
HETATM   19  C   UNL     1      -7.755   5.610  66.180  1.00  0.00    -0.095 C  
HETATM   20  C   UNL     1      -6.481   5.230  65.408  1.00  0.00    -0.039 C  
HETATM   21  C   UNL     1      -5.286   5.192  66.351  1.00  0.00    -0.009 C  
HETATM   22  C   UNL     1      -5.140   6.561  66.997  1.00  0.00    -0.008 C  
HETATM   23  N   UNL     1      -6.345   6.923  67.750  1.00  0.00    -0.046 N  
HETATM   24  C   UNL     1      -6.245   6.749  69.144  1.00  0.00    -0.027 C  
HETATM   25  C   UNL     1      -7.178   7.496  70.066  1.00  0.00    -0.069 C  
HETATM   26  O   UNL     1      -5.307   6.162  69.682  1.00  0.00    -0.011 OA 
HETATM   27  C   UNL     1      -7.894   6.782  71.260  1.00  0.00    -0.101 C  
HETATM   28  O   UNL     1      -7.314   8.703  69.854  1.00  0.00    -0.050 OA 
HETATM   29  O   UNL     1      -9.210   6.368  70.915  1.00  0.00    -0.156 OA 
HETATM   30  O   UNL     1      -8.082   7.839  72.232  1.00  0.00    -0.100 OA 
HETATM   31  C   UNL     1      -9.319   5.246  70.053  1.00  0.00    -0.152 C  
HETATM   32  H   UNL     1      -8.517   7.405  72.957  1.00  0.00     0.000 HD 
HETATM   33  C   UNL     1     -10.805   5.124  69.559  1.00  0.00     0.319 C  
HETATM   34  C   UNL     1      -8.705   4.013  70.753  1.00  0.00    -0.073 C  
HETATM   35  C   UNL     1      -9.752  11.676  64.227  1.00  0.00    -0.196 C  
HETATM   36  H   UNL     1     -11.915  12.120  64.872  1.00  0.00     0.000 HD 
HETATM   37  C   UNL     1     -11.335   6.386  68.773  1.00  0.00    -0.252 C  
HETATM   38  C   UNL     1      -7.282   4.332  71.272  1.00  0.00    -0.040 C  
HETATM   39  O   UNL     1     -12.042  12.512  65.728  1.00  0.00    -0.511 OA 
HETATM   40  C   UNL     1     -11.642   7.651  69.629  1.00  0.00     0.342 C  
HETATM   41  C   UNL     1      -9.950  11.238  65.745  1.00  0.00    -0.281 C  
HETATM   42  C   UNL     1      -7.283   5.637  72.066  1.00  0.00    -0.088 C  
HETATM   43  C   UNL     1     -12.705   8.595  69.036  1.00  0.00     4.824 C  
HETATM   44  C   UNL     1     -10.391   8.484  69.900  1.00  0.00    -0.210 C  
HETATM   45  C   UNL     1      -5.979   5.977  72.781  1.00  0.00    -0.038 C  
HETATM   46  C   UNL     1     -12.862   9.856  69.902  1.00  0.00     0.551 C  
HETATM   47  C   UNL     1     -12.713  11.040  69.276  1.00  0.00     0.455 C  
HETATM   48  C   UNL     1     -12.955   9.693  71.398  1.00  0.00    -0.474 C  
HETATM   49  C   UNL     1     -12.554  12.446  69.802  1.00  0.00     0.257 C  
HETATM   50  C   UNL     1     -12.325  13.234  68.496  1.00  0.00     0.134 C  
HETATM   51  C   UNL     1     -11.463  12.725  70.871  1.00  0.00     1.240 C  
HETATM   52  C   UNL     1     -10.741  12.560  66.363  1.00  0.00    -0.249 C  
HETATM   53  C   UNL     1     -10.951  13.209  67.781  1.00  0.00    -0.272 C  
HETATM   54  O   UNL     1     -13.266  13.833  67.963  1.00  0.00     1.922 OA 
BRANCH  33  55
HETATM   55  O   UNL     1     -11.748   4.926  70.622  1.00  0.00     2.041 OA 
HETATM   56  C   UNL     1     -11.200   4.727  71.910  1.00  0.00     0.407 C  
ENDBRANCH  33  55
BRANCH  34  57
HETATM   57  O   UNL     1      -8.695   2.913  69.844  1.00  0.00    -0.058 OA 
HETATM   58  C   UNL     1      -7.402   2.628  69.317  1.00  0.00    -0.044 C  
ENDBRANCH  34  57
BRANCH  51  59
HETATM   59  C   UNL     1     -11.452  14.077  71.564  1.00  0.00     0.923 C  
HETATM   60  C   UNL     1     -12.446  14.662  72.243  1.00  0.00    -0.387 C  
ENDBRANCH  51  59
ENDBRANCH  13  14
ENDBRANCH   5  11
ENDBRANCH   2   3
TORSDOF 6
ENDMDL
MODEL       36
REMARK 921   NORMALIZED FREE ENERGY PREDICTED BY IDOCK:   35.97 KCAL/MOL
REMARK 922        TOTAL FREE ENERGY PREDICTED BY IDOCK:   46.98 KCAL/MOL
REMARK 923 INTER-LIGAND FREE ENERGY PREDICTED BY IDOCK:   39.04 KCAL/MOL
REMARK 924 INTRA-LIGAND FREE ENERGY PREDICTED BY IDOCK:    7.94 KCAL/MOL
REMARK 927      BINDING AFFINITY PREDICTED BY RF-SCORE:    0.00 PKD
ROOT
HETATM    1  C   UNL     1      -8.913   6.433  74.149  1.00  0.00    -0.149 C  
HETATM    2  O   UNL     1      -8.357   7.658  73.682  1.00  0.00    -0.143 OA 
ENDROOT
BRANCH   2   3
HETATM    3  C   UNL     1      -9.094   8.238  72.602  1.00  0.00    -0.257 C  
HETATM    4  C   UNL     1      -8.447   9.556  72.135  1.00  0.00     1.663 C  
HETATM    5  C   UNL     1      -9.368  10.145  71.092  1.00  0.00     1.780 C  
HETATM    6  O   UNL     1     -11.264   7.144  72.999  1.00  0.00    -0.448 OA 
HETATM    7  C   UNL     1     -10.634  10.627  71.819  1.00  0.00     3.857 C  
HETATM    8  C   UNL     1     -10.590   8.410  73.034  1.00  0.00     0.173 C  
HETATM    9  C   UNL     1     -11.420   9.378  72.170  1.00  0.00     0.015 C  
HETATM   10  H   UNL     1     -12.171   7.248  73.261  1.00  0.00     0.000 HD 
BRANCH   5  11
HETATM   11  C   UNL     1      -8.814  11.177  70.161  1.00  0.00     1.979 C  
HETATM   12  C   UNL     1      -6.582  11.646  71.313  1.00  0.00     2.476 C  
HETATM   13  C   UNL     1      -7.469  11.325  70.176  1.00  0.00     1.026 C  
BRANCH  13  14
HETATM   14  C   UNL     1      -6.713  10.828  68.961  1.00  0.00    -0.070 C  
HETATM   15  C   UNL     1      -6.352   8.438  68.771  1.00  0.00    -0.049 C  
HETATM   16  O   UNL     1      -7.230   9.494  68.652  1.00  0.00    -0.072 OA 
HETATM   17  O   UNL     1      -5.127   8.550  68.695  1.00  0.00    -0.028 OA 
HETATM   18  C   UNL     1      -7.087   7.060  68.980  1.00  0.00    -0.084 C  
HETATM   19  C   UNL     1      -6.250   5.908  68.329  1.00  0.00    -0.029 C  
HETATM   20  C   UNL     1      -5.176   5.313  69.255  1.00  0.00     0.000 C  
HETATM   21  C   UNL     1      -5.806   4.850  70.561  1.00  0.00    -0.017 C  
HETATM   22  C   UNL     1      -6.487   6.042  71.216  1.00  0.00    -0.049 C  
HETATM   23  N   UNL     1      -7.524   6.604  70.345  1.00  0.00    -0.088 N  
HETATM   24  C   UNL     1      -8.842   6.236  70.682  1.00  0.00    -0.144 C  
HETATM   25  C   UNL     1     -10.004   7.074  70.210  1.00  0.00    -0.179 C  
HETATM   26  O   UNL     1      -9.104   5.363  71.509  1.00  0.00    -0.140 OA 
HETATM   27  C   UNL     1     -11.284   6.423  69.589  1.00  0.00    -0.418 C  
HETATM   28  O   UNL     1      -9.909   8.292  70.375  1.00  0.00    -0.184 OA 
HETATM   29  O   UNL     1     -11.234   6.409  68.168  1.00  0.00    -0.312 OA 
HETATM   30  O   UNL     1     -12.340   7.361  69.911  1.00  0.00    -0.145 OA 
HETATM   31  C   UNL     1     -10.350   5.471  67.572  1.00  0.00    -0.214 C  
HETATM   32  H   UNL     1     -13.117   6.966  69.535  1.00  0.00     0.000 HD 
HETATM   33  C   UNL     1     -10.214   5.798  66.042  1.00  0.00     0.112 C  
HETATM   34  C   UNL     1     -10.805   4.043  67.949  1.00  0.00     2.624 C  
HETATM   35  C   UNL     1      -5.220  12.479  67.742  1.00  0.00    -0.101 C  
HETATM   36  H   UNL     1      -6.384  13.380  65.974  1.00  0.00     0.000 HD 
HETATM   37  C   UNL     1      -9.659   7.243  65.733  1.00  0.00     0.367 C  
HETATM   38  C   UNL     1     -10.993   3.917  69.481  1.00  0.00     3.811 C  
HETATM   39  O   UNL     1      -7.270  13.679  66.144  1.00  0.00     2.066 OA 
HETATM   40  C   UNL     1     -10.643   8.425  65.978  1.00  0.00     1.245 C  
HETATM   41  C   UNL     1      -6.711  11.919  67.752  1.00  0.00    -0.087 C  
HETATM   42  C   UNL     1     -11.847   5.067  70.010  1.00  0.00     4.550 C  
HETATM   43  C   UNL     1     -10.380   9.679  65.121  1.00  0.00     0.550 C  
HETATM   44  C   UNL     1     -10.664   8.868  67.439  1.00  0.00    -0.225 C  
HETATM   45  C   UNL     1     -12.255   4.967  71.477  1.00  0.00     2.941 C  
HETATM   46  C   UNL     1     -11.339  10.817  65.507  1.00  0.00     0.508 C  
HETATM   47  C   UNL     1     -10.773  11.993  65.846  1.00  0.00    -0.314 C  
HETATM   48  C   UNL     1     -12.800  10.496  65.687  1.00  0.00     8.519 C  
HETATM   49  C   UNL     1     -11.336  13.232  66.498  1.00  0.00    -0.353 C  
HETATM   50  C   UNL     1     -10.067  14.094  66.659  1.00  0.00    -0.275 C  
HETATM   51  C   UNL     1     -12.134  13.083  67.821  1.00  0.00    -0.244 C  
HETATM   52  C   UNL     1      -7.582  13.311  67.510  1.00  0.00    -0.164 C  
HETATM   53  C   UNL     1      -9.048  13.807  67.791  1.00  0.00    -0.193 C  
HETATM   54  O   UNL     1      -9.811  14.977  65.832  1.00  0.00    -0.297 OA 
BRANCH  33  55
HETATM   55  O   UNL     1     -11.454   5.716  65.326  1.00  0.00     1.634 OA 
HETATM   56  C   UNL     1     -11.572   4.649  64.405  1.00  0.00     1.474 C  
ENDBRANCH  33  55
BRANCH  34  57
HETATM   57  O   UNL     1      -9.849   3.102  67.462  1.00  0.00    -0.011 OA 
HETATM   58  C   UNL     1      -8.865   2.745  68.427  1.00  0.00    -0.121 C  
ENDBRANCH  34  57
BRANCH  51  59
HETATM   59  C   UNL     1     -12.891  14.289  68.355  1.00  0.00     1.293 C  
HETATM   60  C   UNL     1     -12.513  15.137  69.320  1.00  0.00    -0.014 C  
ENDBRANCH  51  59
ENDBRANCH  13  14
ENDBRANCH   5  11
ENDBRANCH   2   3
TORSDOF 6
ENDMDL
MODEL       37
REMARK 921   NORMALIZED FREE ENERGY PREDICTED BY IDOCK:   38.47 KCAL/MOL
REMARK 922        TOTAL FREE ENERGY PREDICTED BY IDOCK:   50.36 KCAL/MOL
REMARK 923 INTER-LIGAND FREE ENERGY PREDICTED BY IDOCK:   27.47 KCAL/MOL
REMARK 924 INTRA-LIGAND FREE ENERGY PREDICTED BY IDOCK:   22.89 KCAL/MOL
REMARK 927      BINDING AFFINITY PREDICTED BY RF-SCORE:    0.00 PKD
ROOT
HETATM    1  C   UNL     1     -10.811  14.471  72.175  1.00  0.00     2.010 C  
HETATM    2  O   UNL     1      -9.510  15.050  72.212  1.00  0.00     3.623 OA 
ENDROOT
BRANCH   2   3
HETATM    3  C   UNL     1      -8.820  14.967  70.962  1.00  0.00     2.816 C  
HETATM    4  C   UNL     1      -9.806  15.038  69.779  1.00  0.00    -0.044 C  
HETATM    5  C   UNL     1      -8.994  14.812  68.526  1.00  0.00    -0.182 C  
HETATM    6  O   UNL     1      -6.759  13.870  71.743  1.00  0.00     0.137 OA 
HETATM    7  C   UNL     1      -8.560  13.337  68.520  1.00  0.00    -0.065 C  
HETATM    8  C   UNL     1      -7.936  13.674  70.947  1.00  0.00     4.879 C  
HETATM    9  C   UNL     1      -7.459  13.217  69.556  1.00  0.00     0.568 C  
HETATM   10  H   UNL     1      -6.223  13.085  71.734  1.00  0.00     0.000 HD 
BRANCH   5  11
HETATM   11  C   UNL     1      -9.579  15.242  67.217  1.00  0.00    -0.214 C  
HETATM   12  C   UNL     1      -7.794  14.339  65.627  1.00  0.00     4.703 C  
HETATM   13  C   UNL     1      -9.167  14.549  66.130  1.00  0.00    -0.175 C  
BRANCH  13  14
HETATM   14  C   UNL     1     -10.178  13.623  65.486  1.00  0.00    -0.302 C  
HETATM   15  C   UNL     1      -9.500  11.327  65.096  1.00  0.00    -0.215 C  
HETATM   16  O   UNL     1      -9.916  12.278  66.003  1.00  0.00    -0.243 OA 
HETATM   17  O   UNL     1      -9.731  11.382  63.887  1.00  0.00    -0.251 OA 
HETATM   18  C   UNL     1      -8.722  10.139  65.779  1.00  0.00    -0.152 C  
HETATM   19  C   UNL     1      -8.976   8.813  64.986  1.00  0.00    -0.113 C  
HETATM   20  C   UNL     1      -8.005   8.588  63.814  1.00  0.00    -0.161 C  
HETATM   21  C   UNL     1      -6.566   8.655  64.305  1.00  0.00    -0.071 C  
HETATM   22  C   UNL     1      -6.338  10.017  64.943  1.00  0.00    -0.118 C  
HETATM   23  N   UNL     1      -7.249  10.232  66.071  1.00  0.00    -0.122 N  
HETATM   24  C   UNL     1      -6.672  10.038  67.342  1.00  0.00    -0.073 C  
HETATM   25  C   UNL     1      -7.306  10.660  68.562  1.00  0.00    -0.090 C  
HETATM   26  O   UNL     1      -5.558   9.541  67.504  1.00  0.00    -0.037 OA 
HETATM   27  C   UNL     1      -7.511   9.847  69.883  1.00  0.00    -0.154 C  
HETATM   28  O   UNL     1      -7.616  11.850  68.476  1.00  0.00    -0.117 OA 
HETATM   29  O   UNL     1      -8.823   9.304  69.970  1.00  0.00    -0.161 OA 
HETATM   30  O   UNL     1      -7.459  10.856  70.921  1.00  0.00     0.461 OA 
HETATM   31  C   UNL     1      -9.110   8.197  69.130  1.00  0.00    -0.148 C  
HETATM   32  H   UNL     1      -7.584  10.362  71.723  1.00  0.00     0.000 HD 
HETATM   33  C   UNL     1     -10.657   7.929  69.150  1.00  0.00    -0.173 C  
HETATM   34  C   UNL     1      -8.186   7.020  69.516  1.00  0.00    -0.132 C  
HETATM   35  C   UNL     1     -12.063  14.675  64.153  1.00  0.00    -0.346 C  
HETATM   36  H   UNL     1     -13.916  14.873  65.502  1.00  0.00     0.000 HD 
HETATM   37  C   UNL     1     -11.534   9.145  68.657  1.00  0.00     0.624 C  
HETATM   38  C   UNL     1      -6.707   7.477  69.552  1.00  0.00    -0.040 C  
HETATM   39  O   UNL     1     -13.785  15.229  66.373  1.00  0.00     3.056 OA 
HETATM   40  C   UNL     1     -11.653  10.350  69.637  1.00  0.00    -0.307 C  
HETATM   41  C   UNL     1     -11.700  14.184  65.624  1.00  0.00    -0.357 C  
HETATM   42  C   UNL     1      -6.563   8.755  70.374  1.00  0.00    -0.042 C  
HETATM   43  C   UNL     1     -12.936  11.189  69.485  1.00  0.00     0.694 C  
HETATM   44  C   UNL     1     -10.466  11.305  69.525  1.00  0.00    -0.017 C  
HETATM   45  C   UNL     1      -5.131   9.215  70.635  1.00  0.00    -0.020 C  
HETATM   46  C   UNL     1     -12.908  12.406  70.425  1.00  0.00     0.183 C  
HETATM   47  C   UNL     1     -13.089  13.614  69.853  1.00  0.00     0.721 C  
HETATM   48  C   UNL     1     -12.479  12.200  71.855  1.00  0.00     0.168 C  
HETATM   49  C   UNL     1     -12.893  15.016  70.375  1.00  0.00    -0.332 C  
HETATM   50  C   UNL     1     -13.189  15.854  69.115  1.00  0.00     2.211 C  
HETATM   51  C   UNL     1     -11.538  15.384  71.037  1.00  0.00    -0.410 C  
HETATM   52  C   UNL     1     -12.356  15.401  66.543  1.00  0.00     1.002 C  
HETATM   53  C   UNL     1     -12.138  15.991  67.985  1.00  0.00     0.558 C  
HETATM   54  O   UNL     1     -14.306  16.361  68.959  1.00  0.00     4.929 OA 
BRANCH  33  55
HETATM   55  O   UNL     1     -11.167   7.607  70.453  1.00  0.00    -0.266 OA 
HETATM   56  C   UNL     1     -11.429   6.239  70.698  1.00  0.00    -0.329 C  
ENDBRANCH  33  55
BRANCH  34  57
HETATM   57  O   UNL     1      -8.379   5.948  68.594  1.00  0.00    -0.108 OA 
HETATM   58  C   UNL     1      -8.543   4.682  69.225  1.00  0.00    -0.082 C  
ENDBRANCH  34  57
BRANCH  51  59
HETATM   59  C   UNL     1     -11.419  16.715  71.763  1.00  0.00     0.051 C  
HETATM   60  C   UNL     1     -11.791  17.004  73.017  1.00  0.00     0.247 C  
ENDBRANCH  51  59
ENDBRANCH  13  14
ENDBRANCH   5  11
ENDBRANCH   2   3
TORSDOF 6
ENDMDL
MODEL       38
REMARK 921   NORMALIZED FREE ENERGY PREDICTED BY IDOCK:   47.54 KCAL/MOL
REMARK 922        TOTAL FREE ENERGY PREDICTED BY IDOCK:   62.62 KCAL/MOL
REMARK 923 INTER-LIGAND FREE ENERGY PREDICTED BY IDOCK:   42.54 KCAL/MOL
REMARK 924 INTRA-LIGAND FREE ENERGY PREDICTED BY IDOCK:   20.08 KCAL/MOL
REMARK 927      BINDING AFFINITY PREDICTED BY RF-SCORE:    0.00 PKD
ROOT
HETATM    1  C   UNL     1     -11.092  12.520  71.971  1.00  0.00     6.900 C  
HETATM    2  O   UNL     1     -11.672  13.756  71.566  1.00  0.00     0.246 OA 
ENDROOT
BRANCH   2   3
HETATM    3  C   UNL     1     -12.480  13.641  70.390  1.00  0.00    -0.294 C  
HETATM    4  C   UNL     1     -11.713  12.930  69.259  1.00  0.00    -0.378 C  
HETATM    5  C   UNL     1     -12.600  12.979  68.037  1.00  0.00     0.816 C  
HETATM    6  O   UNL     1     -14.067  15.467  70.847  1.00  0.00    -0.855 OA 
HETATM    7  C   UNL     1     -12.639  14.439  67.557  1.00  0.00     0.464 C  
HETATM    8  C   UNL     1     -12.997  15.062  69.981  1.00  0.00     0.013 C  
HETATM    9  C   UNL     1     -13.524  15.183  68.539  1.00  0.00     4.072 C  
HETATM   10  H   UNL     1     -14.381  16.329  70.598  1.00  0.00     0.000 HD 
BRANCH   5  11
HETATM   11  C   UNL     1     -12.325  12.017  66.924  1.00  0.00     0.825 C  
HETATM   12  C   UNL     1     -13.052  13.443  64.931  1.00  0.00    -0.009 C  
HETATM   13  C   UNL     1     -12.144  12.566  65.701  1.00  0.00    -0.464 C  
BRANCH  13  14
HETATM   14  C   UNL     1     -10.737  12.539  65.140  1.00  0.00    -0.292 C  
HETATM   15  C   UNL     1      -9.417  14.564  65.338  1.00  0.00     0.202 C  
HETATM   16  O   UNL     1      -9.933  13.447  65.961  1.00  0.00    -0.291 OA 
HETATM   17  O   UNL     1      -9.214  14.643  64.126  1.00  0.00     2.891 OA 
HETATM   18  C   UNL     1      -9.079  15.721  66.353  1.00  0.00    -0.322 C  
HETATM   19  C   UNL     1      -7.852  16.542  65.833  1.00  0.00     0.364 C  
HETATM   20  C   UNL     1      -8.224  17.685  64.874  1.00  0.00     4.123 C  
HETATM   21  C   UNL     1      -9.251  18.602  65.524  1.00  0.00     1.037 C  
HETATM   22  C   UNL     1     -10.476  17.776  65.883  1.00  0.00    -0.251 C  
HETATM   23  N   UNL     1     -10.131  16.694  66.811  1.00  0.00    -0.282 N  
HETATM   24  C   UNL     1     -10.459  16.944  68.158  1.00  0.00    -0.350 C  
HETATM   25  C   UNL     1     -10.609  15.795  69.124  1.00  0.00    -0.242 C  
HETATM   26  O   UNL     1     -10.822  18.046  68.567  1.00  0.00    -0.142 OA 
HETATM   27  C   UNL     1      -9.963  15.833  70.549  1.00  0.00     0.526 C  
HETATM   28  O   UNL     1     -11.298  14.845  68.748  1.00  0.00    -0.259 OA 
HETATM   29  O   UNL     1      -8.705  15.170  70.577  1.00  0.00     0.736 OA 
HETATM   30  O   UNL     1     -10.838  14.999  71.347  1.00  0.00    -0.557 OA 
HETATM   31  C   UNL     1      -7.618  15.842  69.960  1.00  0.00     0.392 C  
HETATM   32  H   UNL     1     -10.446  15.023  72.212  1.00  0.00     0.000 HD 
HETATM   33  C   UNL     1      -6.409  14.847  69.833  1.00  0.00    -0.157 C  
HETATM   34  C   UNL     1      -7.361  17.171  70.704  1.00  0.00     3.245 C  
HETATM   35  C   UNL     1     -10.201  10.793  63.379  1.00  0.00    -0.287 C  
HETATM   36  H   UNL     1      -9.246   8.966  64.400  1.00  0.00     0.000 HD 
HETATM   37  C   UNL     1      -6.718  13.553  68.983  1.00  0.00    -0.112 C  
HETATM   38  C   UNL     1      -8.673  17.984  70.836  1.00  0.00     6.208 C  
HETATM   39  O   UNL     1      -9.668   8.636  65.186  1.00  0.00     0.325 OA 
HETATM   40  C   UNL     1      -7.625  12.485  69.660  1.00  0.00     0.930 C  
HETATM   41  C   UNL     1     -10.180  11.021  64.955  1.00  0.00    -0.373 C  
HETATM   42  C   UNL     1      -9.795  17.103  71.381  1.00  0.00     5.256 C  
HETATM   43  C   UNL     1      -7.411  11.041  69.167  1.00  0.00    -0.121 C  
HETATM   44  C   UNL     1      -9.111  12.805  69.506  1.00  0.00     1.620 C  
HETATM   45  C   UNL     1     -11.095  17.825  71.724  1.00  0.00     2.438 C  
HETATM   46  C   UNL     1      -8.420  10.083  69.823  1.00  0.00    -0.189 C  
HETATM   47  C   UNL     1      -9.169   9.334  68.989  1.00  0.00    -0.144 C  
HETATM   48  C   UNL     1      -8.654  10.192  71.308  1.00  0.00     2.373 C  
HETATM   49  C   UNL     1     -10.396   8.486  69.224  1.00  0.00    -0.227 C  
HETATM   50  C   UNL     1     -10.738   8.043  67.786  1.00  0.00    -0.104 C  
HETATM   51  C   UNL     1     -11.607   9.113  69.964  1.00  0.00     0.036 C  
HETATM   52  C   UNL     1     -10.741   9.557  65.501  1.00  0.00     1.281 C  
HETATM   53  C   UNL     1     -11.440   9.012  66.801  1.00  0.00     2.211 C  
HETATM   54  O   UNL     1     -10.381   6.931  67.381  1.00  0.00    -0.179 OA 
BRANCH  33  55
HETATM   55  O   UNL     1      -5.934  14.357  71.096  1.00  0.00    -0.192 OA 
HETATM   56  C   UNL     1      -5.128  15.245  71.844  1.00  0.00    -0.090 C  
ENDBRANCH  33  55
BRANCH  34  57
HETATM   57  O   UNL     1      -6.356  17.911  70.013  1.00  0.00    -0.132 OA 
HETATM   58  C   UNL     1      -6.384  19.306  70.298  1.00  0.00    -0.043 C  
ENDBRANCH  34  57
BRANCH  51  59
HETATM   59  C   UNL     1     -12.744   8.203  70.401  1.00  0.00     0.775 C  
HETATM   60  C   UNL     1     -12.731   7.274  71.365  1.00  0.00    -0.427 C  
ENDBRANCH  51  59
ENDBRANCH  13  14
ENDBRANCH   5  11
ENDBRANCH   2   3
TORSDOF 6
ENDMDL
MODEL       39
REMARK 921   NORMALIZED FREE ENERGY PREDICTED BY IDOCK:   56.63 KCAL/MOL
REMARK 922        TOTAL FREE ENERGY PREDICTED BY IDOCK:   74.90 KCAL/MOL
REMARK 923 INTER-LIGAND FREE ENERGY PREDICTED BY IDOCK:   74.79 KCAL/MOL
REMARK 924 INTRA-LIGAND FREE ENERGY PREDICTED BY IDOCK:    0.11 KCAL/MOL
REMARK 927      BINDING AFFINITY PREDICTED BY RF-SCORE:    0.00 PKD
ROOT
HETATM    1  C   UNL     1     -13.541  14.700  71.695  1.00  0.00    -0.393 C  
HETATM    2  O   UNL     1     -12.950  14.032  70.586  1.00  0.00    -0.297 OA 
ENDROOT
BRANCH   2   3
HETATM    3  C   UNL     1     -11.525  13.938  70.678  1.00  0.00     0.144 C  
HETATM    4  C   UNL     1     -11.105  12.947  71.781  1.00  0.00     5.297 C  
HETATM    5  C   UNL     1      -9.600  13.022  71.880  1.00  0.00    15.765 C  
HETATM    6  O   UNL     1     -10.940  16.095  69.643  1.00  0.00    -0.299 OA 
HETATM    7  C   UNL     1      -9.249  14.387  72.497  1.00  0.00     8.242 C  
HETATM    8  C   UNL     1     -10.927  15.372  70.883  1.00  0.00    -0.286 C  
HETATM    9  C   UNL     1      -9.480  15.415  71.406  1.00  0.00     2.931 C  
HETATM   10  H   UNL     1     -10.578  16.964  69.768  1.00  0.00     0.000 HD 
BRANCH   5  11
HETATM   11  C   UNL     1      -8.877  11.892  72.543  1.00  0.00    22.799 C  
HETATM   12  C   UNL     1      -9.771   9.938  71.159  1.00  0.00     0.631 C  
HETATM   13  C   UNL     1      -8.732  10.769  71.801  1.00  0.00     8.321 C  
BRANCH  13  14
HETATM   14  C   UNL     1      -7.335  10.454  71.305  1.00  0.00     2.021 C  
HETATM   15  C   UNL     1      -6.455   8.244  71.779  1.00  0.00    -0.058 C  
HETATM   16  O   UNL     1      -7.301   9.019  71.013  1.00  0.00    -0.099 OA 
HETATM   17  O   UNL     1      -5.460   8.680  72.360  1.00  0.00    -0.044 OA 
HETATM   18  C   UNL     1      -6.880   6.727  71.802  1.00  0.00    -0.069 C  
HETATM   19  C   UNL     1      -5.609   5.822  71.931  1.00  0.00    -0.022 C  
HETATM   20  C   UNL     1      -5.163   5.571  73.381  1.00  0.00    -0.022 C  
HETATM   21  C   UNL     1      -6.316   5.001  74.195  1.00  0.00    -0.062 C  
HETATM   22  C   UNL     1      -7.473   5.987  74.146  1.00  0.00    -0.087 C  
HETATM   23  N   UNL     1      -7.915   6.217  72.768  1.00  0.00    -0.105 N  
HETATM   24  C   UNL     1      -9.081   5.519  72.397  1.00  0.00    -0.141 C  
HETATM   25  C   UNL     1      -9.907   5.995  71.227  1.00  0.00    -0.178 C  
HETATM   26  O   UNL     1      -9.585   4.638  73.092  1.00  0.00    -0.129 OA 
HETATM   27  C   UNL     1     -10.439   5.002  70.142  1.00  0.00    -0.165 C  
HETATM   28  O   UNL     1     -10.172   7.199  71.193  1.00  0.00    -0.192 OA 
HETATM   29  O   UNL     1      -9.585   4.953  69.006  1.00  0.00    -0.133 OA 
HETATM   30  O   UNL     1     -11.653   5.631  69.664  1.00  0.00     0.265 OA 
HETATM   31  C   UNL     1      -8.352   4.268  69.167  1.00  0.00    -0.073 C  
HETATM   32  H   UNL     1     -11.977   5.028  69.005  1.00  0.00     0.000 HD 
HETATM   33  C   UNL     1      -7.436   4.567  67.926  1.00  0.00    -0.069 C  
HETATM   34  C   UNL     1      -8.639   2.784  69.489  1.00  0.00    -0.068 C  
HETATM   35  C   UNL     1      -5.787  12.403  70.814  1.00  0.00    -0.003 C  
HETATM   36  H   UNL     1      -5.887  12.893  68.569  1.00  0.00     0.000 HD 
HETATM   37  C   UNL     1      -7.111   6.096  67.711  1.00  0.00    -0.081 C  
HETATM   38  C   UNL     1      -9.638   2.666  70.667  1.00  0.00    -0.167 C  
HETATM   39  O   UNL     1      -6.749  12.949  68.173  1.00  0.00    -0.075 OA 
HETATM   40  C   UNL     1      -8.273   6.977  67.163  1.00  0.00    -0.118 C  
HETATM   41  C   UNL     1      -6.865  11.461  70.116  1.00  0.00     0.295 C  
HETATM   42  C   UNL     1     -10.853   3.560  70.429  1.00  0.00     2.911 C  
HETATM   43  C   UNL     1      -7.829   8.224  66.375  1.00  0.00    -0.095 C  
HETATM   44  C   UNL     1      -9.215   7.448  68.270  1.00  0.00    -0.137 C  
HETATM   45  C   UNL     1     -11.994   3.404  71.429  1.00  0.00     6.593 C  
HETATM   46  C   UNL     1      -9.044   9.074  65.966  1.00  0.00    -0.257 C  
HETATM   47  C   UNL     1      -9.025  10.370  66.336  1.00  0.00    -0.166 C  
HETATM   48  C   UNL     1     -10.244   8.376  65.379  1.00  0.00     1.825 C  
HETATM   49  C   UNL     1     -10.096  11.433  66.341  1.00  0.00    -0.255 C  
HETATM   50  C   UNL     1      -9.353  12.610  67.005  1.00  0.00    -0.220 C  
HETATM   51  C   UNL     1     -11.456  11.120  67.021  1.00  0.00    -0.109 C  
HETATM   52  C   UNL     1      -7.702  12.557  69.192  1.00  0.00     0.306 C  
HETATM   53  C   UNL     1      -9.130  12.648  68.537  1.00  0.00    -0.052 C  
HETATM   54  O   UNL     1      -8.856  13.500  66.305  1.00  0.00     0.025 OA 
BRANCH  33  55
HETATM   55  O   UNL     1      -7.998   4.128  66.680  1.00  0.00    -0.096 OA 
HETATM   56  C   UNL     1      -7.416   4.668  65.511  1.00  0.00    -0.081 C  
ENDBRANCH  33  55
BRANCH  34  57
HETATM   57  O   UNL     1      -7.410   2.120  69.778  1.00  0.00    -0.042 OA 
HETATM   58  C   UNL     1      -6.306   3.009  69.916  1.00  0.00    -0.028 C  
ENDBRANCH  34  57
BRANCH  51  59
HETATM   59  C   UNL     1     -12.608  12.095  66.830  1.00  0.00     1.587 C  
HETATM   60  C   UNL     1     -12.636  13.196  66.069  1.00  0.00    -0.192 C  
ENDBRANCH  51  59
ENDBRANCH  13  14
ENDBRANCH   5  11
ENDBRANCH   2   3
TORSDOF 6
ENDMDL
MODEL       40
REMARK 921   NORMALIZED FREE ENERGY PREDICTED BY IDOCK:   57.46 KCAL/MOL
REMARK 922        TOTAL FREE ENERGY PREDICTED BY IDOCK:   76.02 KCAL/MOL
REMARK 923 INTER-LIGAND FREE ENERGY PREDICTED BY IDOCK:   67.15 KCAL/MOL
REMARK 924 INTRA-LIGAND FREE ENERGY PREDICTED BY IDOCK:    8.87 KCAL/MOL
REMARK 927      BINDING AFFINITY PREDICTED BY RF-SCORE:    0.00 PKD
ROOT
HETATM    1  C   UNL     1      -5.627  13.114  66.181  1.00  0.00     4.034 C  
HETATM    2  O   UNL     1      -6.384  13.645  67.264  1.00  0.00    -0.300 OA 
ENDROOT
BRANCH   2   3
HETATM    3  C   UNL     1      -7.653  14.169  66.862  1.00  0.00     0.459 C  
HETATM    4  C   UNL     1      -8.070  13.614  65.486  1.00  0.00     3.909 C  
HETATM    5  C   UNL     1      -9.347  14.324  65.102  1.00  0.00     0.798 C  
HETATM    6  O   UNL     1      -7.681  16.197  68.256  1.00  0.00    -0.141 OA 
HETATM    7  C   UNL     1      -8.982  15.784  64.785  1.00  0.00     3.643 C  
HETATM    8  C   UNL     1      -7.600  15.733  66.901  1.00  0.00    -0.200 C  
HETATM    9  C   UNL     1      -8.716  16.452  66.120  1.00  0.00    -0.347 C  
HETATM   10  H   UNL     1      -7.648  17.147  68.280  1.00  0.00     0.000 HD 
BRANCH   5  11
HETATM   11  C   UNL     1     -10.210  13.707  64.047  1.00  0.00     0.637 C  
HETATM   12  C   UNL     1      -9.325  11.310  64.112  1.00  0.00    -0.129 C  
HETATM   13  C   UNL     1     -10.361  12.364  64.118  1.00  0.00    -0.409 C  
BRANCH  13  14
HETATM   14  C   UNL     1     -11.720  11.850  64.547  1.00  0.00    -0.248 C  
HETATM   15  C   UNL     1     -11.772   9.943  66.044  1.00  0.00     3.525 C  
HETATM   16  O   UNL     1     -11.562  11.297  65.894  1.00  0.00    -0.127 OA 
HETATM   17  O   UNL     1     -12.465   9.266  65.283  1.00  0.00    10.610 OA 
HETATM   18  C   UNL     1     -11.056   9.357  67.320  1.00  0.00     0.236 C  
HETATM   19  C   UNL     1     -11.892   8.167  67.898  1.00  0.00     2.814 C  
HETATM   20  C   UNL     1     -11.565   6.805  67.265  1.00  0.00     0.589 C  
HETATM   21  C   UNL     1     -10.073   6.520  67.374  1.00  0.00    -0.205 C  
HETATM   22  C   UNL     1      -9.317   7.638  66.675  1.00  0.00    -0.190 C  
HETATM   23  N   UNL     1      -9.611   8.938  67.285  1.00  0.00    -0.156 N  
HETATM   24  C   UNL     1      -8.617   9.419  68.159  1.00  0.00    -0.120 C  
HETATM   25  C   UNL     1      -8.542  10.892  68.480  1.00  0.00    -0.152 C  
HETATM   26  O   UNL     1      -7.670   8.733  68.542  1.00  0.00    -0.096 OA 
HETATM   27  C   UNL     1      -8.352  11.402  69.947  1.00  0.00     1.508 C  
HETATM   28  O   UNL     1      -8.597  11.668  67.524  1.00  0.00    -0.140 OA 
HETATM   29  O   UNL     1      -9.593  11.742  70.553  1.00  0.00     3.398 OA 
HETATM   30  O   UNL     1      -7.661  12.665  69.787  1.00  0.00     0.299 OA 
HETATM   31  C   UNL     1     -10.431  10.662  70.934  1.00  0.00     1.298 C  
HETATM   32  H   UNL     1      -7.546  12.975  70.677  1.00  0.00     0.000 HD 
HETATM   33  C   UNL     1     -11.850  11.224  71.305  1.00  0.00     0.358 C  
HETATM   34  C   UNL     1      -9.706   9.817  72.005  1.00  0.00     2.300 C  
HETATM   35  C   UNL     1     -13.714  12.423  63.086  1.00  0.00     2.268 C  
HETATM   36  H   UNL     1     -14.755  14.290  63.936  1.00  0.00     0.000 HD 
HETATM   37  C   UNL     1     -12.570  11.999  70.134  1.00  0.00     0.000 C  
HETATM   38  C   UNL     1      -8.284   9.433  71.526  1.00  0.00     0.453 C  
HETATM   39  O   UNL     1     -14.202  15.025  64.177  1.00  0.00     3.885 OA 
HETATM   40  C   UNL     1     -12.012  13.414  69.800  1.00  0.00    -0.396 C  
HETATM   41  C   UNL     1     -12.890  12.963  64.337  1.00  0.00    -0.235 C  
HETATM   42  C   UNL     1      -7.543  10.666  71.013  1.00  0.00     2.448 C  
HETATM   43  C   UNL     1     -13.031  14.384  69.172  1.00  0.00     1.080 C  
HETATM   44  C   UNL     1     -10.803  13.355  68.868  1.00  0.00    -0.253 C  
HETATM   45  C   UNL     1      -6.070  10.459  70.675  1.00  0.00    -0.096 C  
HETATM   46  C   UNL     1     -12.358  15.713  68.790  1.00  0.00     0.203 C  
HETATM   47  C   UNL     1     -12.496  16.113  67.510  1.00  0.00     1.999 C  
HETATM   48  C   UNL     1     -11.432  16.362  69.787  1.00  0.00    -0.095 C  
HETATM   49  C   UNL     1     -11.806  17.192  66.711  1.00  0.00     2.134 C  
HETATM   50  C   UNL     1     -12.410  16.965  65.310  1.00  0.00     3.831 C  
HETATM   51  C   UNL     1     -10.254  17.236  66.697  1.00  0.00    -0.319 C  
HETATM   52  C   UNL     1     -12.831  14.589  64.009  1.00  0.00     0.602 C  
HETATM   53  C   UNL     1     -11.916  15.805  64.409  1.00  0.00    -0.082 C  
HETATM   54  O   UNL     1     -13.354  17.663  64.924  1.00  0.00     9.479 OA 
BRANCH  33  55
HETATM   55  O   UNL     1     -11.832  12.146  72.405  1.00  0.00     2.577 OA 
HETATM   56  C   UNL     1     -13.094  12.532  72.914  1.00  0.00     1.502 C  
ENDBRANCH  33  55
BRANCH  34  57
HETATM   57  O   UNL     1     -10.487   8.659  72.299  1.00  0.00    -0.330 OA 
HETATM   58  C   UNL     1      -9.999   7.916  73.411  1.00  0.00    -0.206 C  
ENDBRANCH  34  57
BRANCH  51  59
HETATM   59  C   UNL     1      -9.565  18.445  66.087  1.00  0.00    -0.195 C  
HETATM   60  C   UNL     1      -9.904  19.735  66.211  1.00  0.00    -0.557 C  
ENDBRANCH  51  59
ENDBRANCH  13  14
ENDBRANCH   5  11
ENDBRANCH   2   3
TORSDOF 6
ENDMDL
MODEL       41
REMARK 921   NORMALIZED FREE ENERGY PREDICTED BY IDOCK:   59.13 KCAL/MOL
REMARK 922        TOTAL FREE ENERGY PREDICTED BY IDOCK:   78.27 KCAL/MOL
REMARK 923 INTER-LIGAND FREE ENERGY PREDICTED BY IDOCK:   57.34 KCAL/MOL
REMARK 924 INTRA-LIGAND FREE ENERGY PREDICTED BY IDOCK:   20.93 KCAL/MOL
REMARK 927      BINDING AFFINITY PREDICTED BY RF-SCORE:    0.00 PKD
ROOT
HETATM    1  C   UNL     1     -10.441  12.151  71.020  1.00  0.00     5.546 C  
HETATM    2  O   UNL     1     -11.109  13.151  70.258  1.00  0.00     0.343 OA 
ENDROOT
BRANCH   2   3
HETATM    3  C   UNL     1     -11.472  12.712  68.945  1.00  0.00    -0.306 C  
HETATM    4  C   UNL     1     -10.257  12.123  68.203  1.00  0.00    -0.203 C  
HETATM    5  C   UNL     1     -10.716  11.815  66.797  1.00  0.00    -0.289 C  
HETATM    6  O   UNL     1     -13.491  14.086  68.636  1.00  0.00     2.191 OA 
HETATM    7  C   UNL     1     -10.935  13.159  66.082  1.00  0.00    -0.299 C  
HETATM    8  C   UNL     1     -12.146  13.898  68.175  1.00  0.00    -0.282 C  
HETATM    9  C   UNL     1     -12.220  13.733  66.645  1.00  0.00    -0.454 C  
HETATM   10  H   UNL     1     -13.900  14.805  68.168  1.00  0.00     0.000 HD 
BRANCH   5  11
HETATM   11  C   UNL     1      -9.906  10.858  65.982  1.00  0.00    -0.280 C  
HETATM   12  C   UNL     1      -9.466  12.307  63.923  1.00  0.00     0.214 C  
HETATM   13  C   UNL     1      -9.105  11.413  65.043  1.00  0.00    -0.025 C  
BRANCH  13  14
HETATM   14  C   UNL     1      -7.613  11.370  65.304  1.00  0.00     0.832 C  
HETATM   15  C   UNL     1      -6.525  13.451  65.907  1.00  0.00     6.133 C  
HETATM   16  O   UNL     1      -7.325  12.401  66.303  1.00  0.00     0.599 OA 
HETATM   17  O   UNL     1      -5.718  13.389  64.978  1.00  0.00     9.623 OA 
HETATM   18  C   UNL     1      -6.728  14.736  66.798  1.00  0.00     1.435 C  
HETATM   19  C   UNL     1      -5.384  15.532  66.894  1.00  0.00     0.921 C  
HETATM   20  C   UNL     1      -5.166  16.535  65.749  1.00  0.00     2.074 C  
HETATM   21  C   UNL     1      -6.351  17.486  65.650  1.00  0.00     0.080 C  
HETATM   22  C   UNL     1      -7.609  16.664  65.419  1.00  0.00     2.438 C  
HETATM   23  N   UNL     1      -7.833  15.718  66.516  1.00  0.00    -0.166 N  
HETATM   24  C   UNL     1      -8.805  16.118  67.453  1.00  0.00    -0.187 C  
HETATM   25  C   UNL     1      -9.473  15.091  68.335  1.00  0.00    -0.201 C  
HETATM   26  O   UNL     1      -9.293  17.248  67.474  1.00  0.00    -0.233 OA 
HETATM   27  C   UNL     1      -9.662  15.328  69.869  1.00  0.00    -0.093 C  
HETATM   28  O   UNL     1      -9.896  14.077  67.776  1.00  0.00    -0.223 OA 
HETATM   29  O   UNL     1      -8.624  14.720  70.629  1.00  0.00     1.250 OA 
HETATM   30  O   UNL     1     -10.851  14.565  70.192  1.00  0.00    -0.462 OA 
HETATM   31  C   UNL     1      -7.354  15.352  70.590  1.00  0.00     1.077 C  
HETATM   32  H   UNL     1     -10.966  14.709  71.125  1.00  0.00     0.000 HD 
HETATM   33  C   UNL     1      -6.288  14.395  71.235  1.00  0.00     0.256 C  
HETATM   34  C   UNL     1      -7.480  16.771  71.188  1.00  0.00     5.250 C  
HETATM   35  C   UNL     1      -6.295   9.442  64.311  1.00  0.00    -0.089 C  
HETATM   36  H   UNL     1      -6.070   7.791  65.897  1.00  0.00     0.000 HD 
HETATM   37  C   UNL     1      -6.151  12.996  70.516  1.00  0.00     0.000 C  
HETATM   38  C   UNL     1      -8.642  17.545  70.517  1.00  0.00     4.307 C  
HETATM   39  O   UNL     1      -6.850   7.545  66.382  1.00  0.00    -0.059 OA 
HETATM   40  C   UNL     1      -7.312  11.985  70.749  1.00  0.00     3.879 C  
HETATM   41  C   UNL     1      -7.090   9.862  65.626  1.00  0.00    -0.112 C  
HETATM   42  C   UNL     1      -9.911  16.695  70.503  1.00  0.00     1.740 C  
HETATM   43  C   UNL     1      -6.919  10.501  70.623  1.00  0.00     0.384 C  
HETATM   44  C   UNL     1      -8.489  12.228  69.806  1.00  0.00     2.156 C  
HETATM   45  C   UNL     1     -11.175  17.404  70.027  1.00  0.00     1.271 C  
HETATM   46  C   UNL     1      -8.151   9.594  70.771  1.00  0.00     0.046 C  
HETATM   47  C   UNL     1      -8.381   8.721  69.769  1.00  0.00    -0.127 C  
HETATM   48  C   UNL     1      -9.120   9.875  71.891  1.00  0.00     2.996 C  
HETATM   49  C   UNL     1      -9.577   7.862  69.435  1.00  0.00    -0.160 C  
HETATM   50  C   UNL     1      -9.135   7.235  68.097  1.00  0.00    -0.134 C  
HETATM   51  C   UNL     1     -10.976   8.529  69.353  1.00  0.00    -0.020 C  
HETATM   52  C   UNL     1      -7.900   8.456  65.977  1.00  0.00    -0.098 C  
HETATM   53  C   UNL     1      -9.190   8.048  66.780  1.00  0.00    -0.206 C  
HETATM   54  O   UNL     1      -8.655   6.096  68.078  1.00  0.00    -0.116 OA 
BRANCH  33  55
HETATM   55  O   UNL     1      -6.556  14.081  72.609  1.00  0.00     0.682 OA 
HETATM   56  C   UNL     1      -5.450  13.645  73.375  1.00  0.00     0.045 C  
ENDBRANCH  33  55
BRANCH  34  57
HETATM   57  O   UNL     1      -6.238  17.457  71.035  1.00  0.00     0.880 OA 
HETATM   58  C   UNL     1      -6.365  18.875  71.096  1.00  0.00     0.946 C  
ENDBRANCH  34  57
BRANCH  51  59
HETATM   59  C   UNL     1     -12.203   7.638  69.244  1.00  0.00     1.960 C  
HETATM   60  C   UNL     1     -12.896   7.067  70.237  1.00  0.00     0.609 C  
ENDBRANCH  51  59
ENDBRANCH  13  14
ENDBRANCH   5  11
ENDBRANCH   2   3
TORSDOF 6
ENDMDL
MODEL       42
REMARK 921   NORMALIZED FREE ENERGY PREDICTED BY IDOCK:   64.74 KCAL/MOL
REMARK 922        TOTAL FREE ENERGY PREDICTED BY IDOCK:   85.84 KCAL/MOL
REMARK 923 INTER-LIGAND FREE ENERGY PREDICTED BY IDOCK:   51.90 KCAL/MOL
REMARK 924 INTRA-LIGAND FREE ENERGY PREDICTED BY IDOCK:   33.94 KCAL/MOL
REMARK 927      BINDING AFFINITY PREDICTED BY RF-SCORE:    0.00 PKD
ROOT
HETATM    1  C   UNL     1     -14.300  14.623  72.188  1.00  0.00    -0.503 C  
HETATM    2  O   UNL     1     -14.057  14.143  70.869  1.00  0.00     0.026 OA 
ENDROOT
BRANCH   2   3
HETATM    3  C   UNL     1     -12.796  14.564  70.339  1.00  0.00    -0.262 C  
HETATM    4  C   UNL     1     -11.649  14.234  71.314  1.00  0.00     0.067 C  
HETATM    5  C   UNL     1     -10.394  14.831  70.722  1.00  0.00     0.660 C  
HETATM    6  O   UNL     1     -13.604  16.265  68.754  1.00  0.00     2.269 OA 
HETATM    7  C   UNL     1     -10.513  16.360  70.841  1.00  0.00     0.919 C  
HETATM    8  C   UNL     1     -12.873  16.085  69.975  1.00  0.00     0.710 C  
HETATM    9  C   UNL     1     -11.516  16.788  69.787  1.00  0.00     0.414 C  
HETATM   10  H   UNL     1     -13.651  17.188  68.533  1.00  0.00     0.000 HD 
BRANCH   5  11
HETATM   11  C   UNL     1      -9.072  14.321  71.204  1.00  0.00     4.857 C  
HETATM   12  C   UNL     1      -9.370  11.828  70.725  1.00  0.00     6.919 C  
HETATM   13  C   UNL     1      -8.676  13.133  70.693  1.00  0.00     6.837 C  
BRANCH  13  14
HETATM   14  C   UNL     1      -7.522  13.161  69.711  1.00  0.00     0.951 C  
HETATM   15  C   UNL     1      -6.688  11.031  68.906  1.00  0.00    -0.074 C  
HETATM   16  O   UNL     1      -7.673  11.993  68.841  1.00  0.00    -0.087 OA 
HETATM   17  O   UNL     1      -5.537  11.250  69.285  1.00  0.00    -0.041 OA 
HETATM   18  C   UNL     1      -7.186   9.621  68.408  1.00  0.00    -0.074 C  
HETATM   19  C   UNL     1      -6.000   8.843  67.746  1.00  0.00    -0.047 C  
HETATM   20  C   UNL     1      -5.150   8.033  68.740  1.00  0.00    -0.024 C  
HETATM   21  C   UNL     1      -6.035   7.088  69.541  1.00  0.00    -0.026 C  
HETATM   22  C   UNL     1      -7.083   7.913  70.271  1.00  0.00    -0.049 C  
HETATM   23  N   UNL     1      -7.909   8.675  69.328  1.00  0.00    -0.099 N  
HETATM   24  C   UNL     1      -9.176   8.117  69.069  1.00  0.00    -0.148 C  
HETATM   25  C   UNL     1     -10.285   8.984  68.525  1.00  0.00    -0.200 C  
HETATM   26  O   UNL     1      -9.502   6.990  69.438  1.00  0.00    -0.147 OA 
HETATM   27  C   UNL     1     -11.188   8.510  67.338  1.00  0.00     0.761 C  
HETATM   28  O   UNL     1     -10.467  10.065  69.089  1.00  0.00    -0.195 OA 
HETATM   29  O   UNL     1     -10.726   9.011  66.090  1.00  0.00     0.191 OA 
HETATM   30  O   UNL     1     -12.445   9.192  67.567  1.00  0.00     4.601 OA 
HETATM   31  C   UNL     1      -9.551   8.415  65.561  1.00  0.00     0.330 C  
HETATM   32  H   UNL     1     -12.994   8.904  66.847  1.00  0.00     0.000 HD 
HETATM   33  C   UNL     1      -9.040   9.279  64.353  1.00  0.00    -0.056 C  
HETATM   34  C   UNL     1      -9.825   6.918  65.290  1.00  0.00     1.699 C  
HETATM   35  C   UNL     1      -6.071  15.241  69.654  1.00  0.00    -0.137 C  
HETATM   36  H   UNL     1      -6.817  16.631  67.980  1.00  0.00     0.000 HD 
HETATM   37  C   UNL     1      -8.695  10.775  64.723  1.00  0.00    -0.118 C  
HETATM   38  C   UNL     1     -10.423   6.238  66.546  1.00  0.00    -0.174 C  
HETATM   39  O   UNL     1      -7.754  16.786  67.928  1.00  0.00    -0.165 OA 
HETATM   40  C   UNL     1      -9.907  11.717  64.984  1.00  0.00    -0.280 C  
HETATM   41  C   UNL     1      -7.370  14.610  68.985  1.00  0.00    -0.134 C  
HETATM   42  C   UNL     1     -11.590   7.057  67.093  1.00  0.00     0.861 C  
HETATM   43  C   UNL     1      -9.643  13.209  64.709  1.00  0.00     0.296 C  
HETATM   44  C   UNL     1     -10.433  11.602  66.414  1.00  0.00    -0.283 C  
HETATM   45  C   UNL     1     -12.379   6.407  68.226  1.00  0.00     4.277 C  
HETATM   46  C   UNL     1     -10.865  14.061  65.091  1.00  0.00    -0.376 C  
HETATM   47  C   UNL     1     -10.648  15.074  65.954  1.00  0.00    -0.338 C  
HETATM   48  C   UNL     1     -12.231  13.593  64.658  1.00  0.00    -0.448 C  
HETATM   49  C   UNL     1     -11.593  15.953  66.736  1.00  0.00     0.434 C  
HETATM   50  C   UNL     1     -10.606  16.787  67.578  1.00  0.00    -0.309 C  
HETATM   51  C   UNL     1     -12.699  15.282  67.595  1.00  0.00     1.630 C  
HETATM   52  C   UNL     1      -8.374  15.930  68.918  1.00  0.00    -0.226 C  
HETATM   53  C   UNL     1      -9.925  16.186  68.833  1.00  0.00    -0.233 C  
HETATM   54  O   UNL     1     -10.289  17.924  67.210  1.00  0.00    -0.343 OA 
BRANCH  33  55
HETATM   55  O   UNL     1      -9.983   9.372  63.275  1.00  0.00     1.191 OA 
HETATM   56  C   UNL     1     -10.175  10.661  62.726  1.00  0.00     0.230 C  
ENDBRANCH  33  55
BRANCH  34  57
HETATM   57  O   UNL     1      -8.613   6.286  64.880  1.00  0.00    -0.069 OA 
HETATM   58  C   UNL     1      -7.676   6.121  65.940  1.00  0.00    -0.093 C  
ENDBRANCH  34  57
BRANCH  51  59
HETATM   59  C   UNL     1     -13.786  16.158  68.197  1.00  0.00     6.519 C  
HETATM   60  C   UNL     1     -14.275  17.308  67.716  1.00  0.00    10.005 C  
ENDBRANCH  51  59
ENDBRANCH  13  14
ENDBRANCH   5  11
ENDBRANCH   2   3
TORSDOF 6
ENDMDL
MODEL       43
REMARK 921   NORMALIZED FREE ENERGY PREDICTED BY IDOCK:   70.11 KCAL/MOL
REMARK 922        TOTAL FREE ENERGY PREDICTED BY IDOCK:   93.10 KCAL/MOL
REMARK 923 INTER-LIGAND FREE ENERGY PREDICTED BY IDOCK:   76.46 KCAL/MOL
REMARK 924 INTRA-LIGAND FREE ENERGY PREDICTED BY IDOCK:   16.64 KCAL/MOL
REMARK 927      BINDING AFFINITY PREDICTED BY RF-SCORE:    0.00 PKD
ROOT
HETATM    1  C   UNL     1     -10.762  18.131  67.667  1.00  0.00    -0.343 C  
HETATM    2  O   UNL     1     -11.230  17.510  66.474  1.00  0.00     0.315 OA 
ENDROOT
BRANCH   2   3
HETATM    3  C   UNL     1     -11.666  16.161  66.673  1.00  0.00     0.879 C  
HETATM    4  C   UNL     1     -10.542  15.161  66.338  1.00  0.00    -0.305 C  
HETATM    5  C   UNL     1     -11.144  13.780  66.455  1.00  0.00    -0.309 C  
HETATM    6  O   UNL     1     -14.095  16.524  66.499  1.00  0.00     7.529 OA 
HETATM    7  C   UNL     1     -12.119  13.604  65.278  1.00  0.00    -0.429 C  
HETATM    8  C   UNL     1     -12.972  15.916  65.844  1.00  0.00     3.154 C  
HETATM    9  C   UNL     1     -13.340  14.439  65.614  1.00  0.00     0.596 C  
HETATM   10  H   UNL     1     -14.887  16.375  65.996  1.00  0.00     0.000 HD 
BRANCH   5  11
HETATM   11  C   UNL     1     -10.217  12.616  66.609  1.00  0.00    -0.246 C  
HETATM   12  C   UNL     1     -10.054  11.866  64.171  1.00  0.00    -0.338 C  
HETATM   13  C   UNL     1      -9.533  12.254  65.499  1.00  0.00    -0.029 C  
BRANCH  13  14
HETATM   14  C   UNL     1      -8.046  12.545  65.486  1.00  0.00     2.162 C  
HETATM   15  C   UNL     1      -7.305  14.615  66.509  1.00  0.00     1.617 C  
HETATM   16  O   UNL     1      -7.753  13.324  66.691  1.00  0.00     0.347 OA 
HETATM   17  O   UNL     1      -6.744  15.011  65.486  1.00  0.00     6.302 OA 
HETATM   18  C   UNL     1      -7.556  15.526  67.770  1.00  0.00    -0.145 C  
HETATM   19  C   UNL     1      -6.423  16.600  67.884  1.00  0.00    -0.150 C  
HETATM   20  C   UNL     1      -6.693  17.883  67.080  1.00  0.00    -0.203 C  
HETATM   21  C   UNL     1      -8.039  18.476  67.473  1.00  0.00    -0.261 C  
HETATM   22  C   UNL     1      -9.117  17.436  67.212  1.00  0.00    -0.237 C  
HETATM   23  N   UNL     1      -8.876  16.216  67.988  1.00  0.00    -0.179 N  
HETATM   24  C   UNL     1      -9.663  16.089  69.149  1.00  0.00    -0.251 C  
HETATM   25  C   UNL     1      -9.877  14.730  69.771  1.00  0.00     0.174 C  
HETATM   26  O   UNL     1     -10.356  17.003  69.594  1.00  0.00    -0.211 OA 
HETATM   27  C   UNL     1      -9.746  14.507  71.314  1.00  0.00     3.504 C  
HETATM   28  O   UNL     1     -10.199  13.818  69.007  1.00  0.00    -0.158 OA 
HETATM   29  O   UNL     1      -8.457  14.024  71.670  1.00  0.00     5.475 OA 
HETATM   30  O   UNL     1     -10.641  13.399  71.579  1.00  0.00     3.927 OA 
HETATM   31  C   UNL     1      -7.391  14.960  71.618  1.00  0.00     2.797 C  
HETATM   32  H   UNL     1     -10.562  13.263  72.516  1.00  0.00     0.000 HD 
HETATM   33  C   UNL     1      -6.028  14.190  71.755  1.00  0.00     0.047 C  
HETATM   34  C   UNL     1      -7.666  16.092  72.634  1.00  0.00    12.381 C  
HETATM   35  C   UNL     1      -6.626  11.360  63.749  1.00  0.00     1.898 C  
HETATM   36  H   UNL     1      -5.698   9.480  64.694  1.00  0.00     0.000 HD 
HETATM   37  C   UNL     1      -5.775  13.112  70.631  1.00  0.00    -0.171 C  
HETATM   38  C   UNL     1      -9.087  16.673  72.432  1.00  0.00    12.514 C  
HETATM   39  O   UNL     1      -6.273   8.919  65.202  1.00  0.00    -0.059 OA 
HETATM   40  C   UNL     1      -6.613  11.803  70.731  1.00  0.00     1.300 C  
HETATM   41  C   UNL     1      -7.161  11.201  65.240  1.00  0.00     0.538 C  
HETATM   42  C   UNL     1     -10.119  15.549  72.367  1.00  0.00     3.652 C  
HETATM   43  C   UNL     1      -5.961  10.561  70.094  1.00  0.00    -0.091 C  
HETATM   44  C   UNL     1      -8.002  11.956  70.115  1.00  0.00     2.672 C  
HETATM   45  C   UNL     1     -11.578  15.992  72.345  1.00  0.00    -0.442 C  
HETATM   46  C   UNL     1      -6.908   9.351  70.158  1.00  0.00    -0.071 C  
HETATM   47  C   UNL     1      -7.179   8.735  68.990  1.00  0.00    -0.072 C  
HETATM   48  C   UNL     1      -7.624   9.067  71.454  1.00  0.00    -0.078 C  
HETATM   49  C   UNL     1      -8.214   7.705  68.610  1.00  0.00    -0.128 C  
HETATM   50  C   UNL     1      -7.977   7.582  67.091  1.00  0.00    -0.117 C  
HETATM   51  C   UNL     1      -9.701   7.972  68.967  1.00  0.00    -0.159 C  
HETATM   52  C   UNL     1      -7.555   9.589  65.273  1.00  0.00    -0.111 C  
HETATM   53  C   UNL     1      -8.508   8.661  66.113  1.00  0.00    -0.140 C  
HETATM   54  O   UNL     1      -7.289   6.657  66.646  1.00  0.00    -0.075 OA 
BRANCH  33  55
HETATM   55  O   UNL     1      -5.896  13.475  72.992  1.00  0.00    -0.295 OA 
HETATM   56  C   UNL     1      -5.950  12.065  72.905  1.00  0.00     2.815 C  
ENDBRANCH  33  55
BRANCH  34  57
HETATM   57  O   UNL     1      -6.665  17.100  72.496  1.00  0.00     5.301 OA 
HETATM   58  C   UNL     1      -5.381  16.579  72.165  1.00  0.00     0.883 C  
ENDBRANCH  34  57
BRANCH  51  59
HETATM   59  C   UNL     1     -10.706   6.845  68.794  1.00  0.00    -0.255 C  
HETATM   60  C   UNL     1     -10.516   5.656  68.208  1.00  0.00    -0.257 C  
ENDBRANCH  51  59
ENDBRANCH  13  14
ENDBRANCH   5  11
ENDBRANCH   2   3
TORSDOF 6
ENDMDL
MODEL       44
REMARK 921   NORMALIZED FREE ENERGY PREDICTED BY IDOCK:   78.72 KCAL/MOL
REMARK 922        TOTAL FREE ENERGY PREDICTED BY IDOCK:  104.73 KCAL/MOL
REMARK 923 INTER-LIGAND FREE ENERGY PREDICTED BY IDOCK:   87.56 KCAL/MOL
REMARK 924 INTRA-LIGAND FREE ENERGY PREDICTED BY IDOCK:   17.17 KCAL/MOL
REMARK 927      BINDING AFFINITY PREDICTED BY RF-SCORE:    0.00 PKD
ROOT
HETATM    1  C   UNL     1      -9.918  12.874  73.273  1.00  0.00    18.785 C  
HETATM    2  O   UNL     1      -8.697  13.521  73.617  1.00  0.00     9.540 OA 
ENDROOT
BRANCH   2   3
HETATM    3  C   UNL     1      -7.785  13.625  72.519  1.00  0.00     8.969 C  
HETATM    4  C   UNL     1      -8.412  14.410  71.351  1.00  0.00     5.025 C  
HETATM    5  C   UNL     1      -7.425  14.348  70.209  1.00  0.00     0.655 C  
HETATM    6  O   UNL     1      -6.342  11.702  73.048  1.00  0.00     2.806 OA 
HETATM    7  C   UNL     1      -7.421  12.902  69.685  1.00  0.00     0.788 C  
HETATM    8  C   UNL     1      -7.309  12.191  72.108  1.00  0.00    10.597 C  
HETATM    9  C   UNL     1      -6.666  12.083  70.714  1.00  0.00     1.787 C  
HETATM   10  H   UNL     1      -6.053  10.832  72.799  1.00  0.00     0.000 HD 
BRANCH   5  11
HETATM   11  C   UNL     1      -7.550  15.355  69.110  1.00  0.00    -0.198 C  
HETATM   12  C   UNL     1      -5.685  14.542  67.563  1.00  0.00     0.141 C  
HETATM   13  C   UNL     1      -7.053  14.982  67.908  1.00  0.00    -0.165 C  
BRANCH  13  14
HETATM   14  C   UNL     1      -8.059  14.691  66.812  1.00  0.00     0.123 C  
HETATM   15  C   UNL     1      -8.208  12.406  66.013  1.00  0.00     0.785 C  
HETATM   16  O   UNL     1      -8.513  13.312  67.006  1.00  0.00    -0.195 OA 
HETATM   17  O   UNL     1      -7.981  12.718  64.843  1.00  0.00     3.636 OA 
HETATM   18  C   UNL     1      -8.214  10.917  66.529  1.00  0.00    -0.157 C  
HETATM   19  C   UNL     1      -8.668   9.958  65.378  1.00  0.00    -0.175 C  
HETATM   20  C   UNL     1      -7.521   9.487  64.467  1.00  0.00    -0.114 C  
HETATM   21  C   UNL     1      -6.418   8.848  65.299  1.00  0.00    -0.067 C  
HETATM   22  C   UNL     1      -5.923   9.871  66.309  1.00  0.00    -0.064 C  
HETATM   23  N   UNL     1      -7.006  10.312  67.192  1.00  0.00    -0.086 N  
HETATM   24  C   UNL     1      -7.008   9.717  68.468  1.00  0.00    -0.065 C  
HETATM   25  C   UNL     1      -7.731  10.385  69.613  1.00  0.00    -0.144 C  
HETATM   26  O   UNL     1      -6.289   8.763  68.765  1.00  0.00    -0.048 OA 
HETATM   27  C   UNL     1      -8.658   9.576  70.579  1.00  0.00    -0.184 C  
HETATM   28  O   UNL     1      -7.521  11.589  69.769  1.00  0.00     0.183 OA 
HETATM   29  O   UNL     1     -10.024   9.660  70.193  1.00  0.00    -0.230 OA 
HETATM   30  O   UNL     1      -8.581  10.311  71.825  1.00  0.00     2.127 OA 
HETATM   31  C   UNL     1     -10.407   8.915  69.047  1.00  0.00    -0.212 C  
HETATM   32  H   UNL     1      -9.144   9.820  72.413  1.00  0.00     0.000 HD 
HETATM   33  C   UNL     1     -11.851   9.356  68.611  1.00  0.00     1.293 C  
HETATM   34  C   UNL     1     -10.184   7.412  69.326  1.00  0.00    -0.199 C  
HETATM   35  C   UNL     1      -8.841  16.633  65.380  1.00  0.00     1.100 C  
HETATM   36  H   UNL     1     -10.819  17.444  66.230  1.00  0.00     0.000 HD 
HETATM   37  C   UNL     1     -11.984  10.888  68.255  1.00  0.00    -0.024 C  
HETATM   38  C   UNL     1      -8.747   7.162  69.846  1.00  0.00    -0.142 C  
HETATM   39  O   UNL     1     -10.864  17.586  67.169  1.00  0.00    -0.242 OA 
HETATM   40  C   UNL     1     -11.960  11.879  69.456  1.00  0.00    -0.355 C  
HETATM   41  C   UNL     1      -9.207  15.841  66.712  1.00  0.00    -0.268 C  
HETATM   42  C   UNL     1      -8.416   8.124  70.985  1.00  0.00    -0.144 C  
HETATM   43  C   UNL     1     -12.700  13.209  69.217  1.00  0.00     0.690 C  
HETATM   44  C   UNL     1     -10.538  12.220  69.898  1.00  0.00     0.958 C  
HETATM   45  C   UNL     1      -7.095   7.868  71.704  1.00  0.00    -0.067 C  
HETATM   46  C   UNL     1     -12.533  14.152  70.420  1.00  0.00    -0.424 C  
HETATM   47  C   UNL     1     -12.041  15.380  70.160  1.00  0.00    -0.400 C  
HETATM   48  C   UNL     1     -12.721  13.589  71.806  1.00  0.00    -0.340 C  
HETATM   49  C   UNL     1     -11.519  16.469  71.065  1.00  0.00    -0.079 C  
HETATM   50  C   UNL     1     -11.035  17.512  70.037  1.00  0.00     1.116 C  
HETATM   51  C   UNL     1     -10.433  16.111  72.115  1.00  0.00     2.677 C  
HETATM   52  C   UNL     1      -9.623  17.087  67.726  1.00  0.00    -0.244 C  
HETATM   53  C   UNL     1      -9.696  17.322  69.280  1.00  0.00    -0.030 C  
HETATM   54  O   UNL     1     -11.755  18.474  69.748  1.00  0.00     4.368 OA 
BRANCH  33  55
HETATM   55  O   UNL     1     -12.849   9.120  69.615  1.00  0.00     1.651 OA 
HETATM   56  C   UNL     1     -12.385   8.593  70.842  1.00  0.00    -0.052 C  
ENDBRANCH  33  55
BRANCH  34  57
HETATM   57  O   UNL     1     -10.445   6.669  68.136  1.00  0.00    -0.176 OA 
HETATM   58  C   UNL     1     -11.122   5.439  68.375  1.00  0.00     0.582 C  
ENDBRANCH  34  57
BRANCH  51  59
HETATM   59  C   UNL     1     -10.072  17.143  73.171  1.00  0.00     8.534 C  
HETATM   60  C   UNL     1     -10.490  18.412  73.258  1.00  0.00     3.937 C  
ENDBRANCH  51  59
ENDBRANCH  13  14
ENDBRANCH   5  11
ENDBRANCH   2   3
TORSDOF 6
ENDMDL
MODEL       45
REMARK 921   NORMALIZED FREE ENERGY PREDICTED BY IDOCK:   83.92 KCAL/MOL
REMARK 922        TOTAL FREE ENERGY PREDICTED BY IDOCK:  111.76 KCAL/MOL
REMARK 923 INTER-LIGAND FREE ENERGY PREDICTED BY IDOCK:   95.78 KCAL/MOL
REMARK 924 INTRA-LIGAND FREE ENERGY PREDICTED BY IDOCK:   15.98 KCAL/MOL
REMARK 927      BINDING AFFINITY PREDICTED BY RF-SCORE:    0.00 PKD
ROOT
HETATM    1  C   UNL     1     -11.114  16.435  73.259  1.00  0.00     2.036 C  
HETATM    2  O   UNL     1     -11.131  16.855  71.899  1.00  0.00     0.445 OA 
ENDROOT
BRANCH   2   3
HETATM    3  C   UNL     1     -11.727  15.897  71.019  1.00  0.00    -0.432 C  
HETATM    4  C   UNL     1     -11.689  14.484  71.632  1.00  0.00    -0.146 C  
HETATM    5  C   UNL     1     -12.218  13.540  70.578  1.00  0.00    -0.433 C  
HETATM    6  O   UNL     1     -11.486  17.131  68.902  1.00  0.00    -0.060 OA 
HETATM    7  C   UNL     1     -11.160  13.457  69.465  1.00  0.00    -0.100 C  
HETATM    8  C   UNL     1     -11.026  15.977  69.621  1.00  0.00    -0.326 C  
HETATM    9  C   UNL     1     -11.250  14.764  68.700  1.00  0.00    -0.288 C  
HETATM   10  H   UNL     1     -11.061  17.180  68.054  1.00  0.00     0.000 HD 
BRANCH   5  11
HETATM   11  C   UNL     1     -12.698  12.191  71.013  1.00  0.00    -0.322 C  
HETATM   12  C   UNL     1     -11.868  10.783  69.048  1.00  0.00    -0.325 C  
HETATM   13  C   UNL     1     -12.052  11.132  70.472  1.00  0.00    -0.474 C  
BRANCH  13  14
HETATM   14  C   UNL     1     -11.149  10.339  71.394  1.00  0.00     0.427 C  
HETATM   15  C   UNL     1     -10.689   8.034  70.795  1.00  0.00    -0.223 C  
HETATM   16  O   UNL     1     -10.435   9.369  70.561  1.00  0.00    -0.232 OA 
HETATM   17  O   UNL     1     -11.106   7.591  71.866  1.00  0.00    -0.230 OA 
HETATM   18  C   UNL     1     -10.354   7.127  69.550  1.00  0.00    -0.215 C  
HETATM   19  C   UNL     1      -9.877   5.717  70.034  1.00  0.00    -0.235 C  
HETATM   20  C   UNL     1     -11.021   4.717  70.275  1.00  0.00     1.041 C  
HETATM   21  C   UNL     1     -11.885   4.596  69.027  1.00  0.00     7.976 C  
HETATM   22  C   UNL     1     -12.431   5.973  68.685  1.00  0.00     5.660 C  
HETATM   23  N   UNL     1     -11.346   6.927  68.437  1.00  0.00     0.033 N  
HETATM   24  C   UNL     1     -11.086   7.185  67.077  1.00  0.00    -0.089 C  
HETATM   25  C   UNL     1     -10.363   8.447  66.672  1.00  0.00    -0.228 C  
HETATM   26  O   UNL     1     -11.581   6.529  66.162  1.00  0.00     1.198 OA 
HETATM   27  C   UNL     1      -9.197   8.425  65.629  1.00  0.00    -0.052 C  
HETATM   28  O   UNL     1     -10.765   9.498  67.176  1.00  0.00    -0.255 OA 
HETATM   29  O   UNL     1      -7.924   8.375  66.261  1.00  0.00    -0.095 OA 
HETATM   30  O   UNL     1      -9.255   9.737  65.019  1.00  0.00    -0.215 OA 
HETATM   31  C   UNL     1      -7.553   7.136  66.847  1.00  0.00    -0.101 C  
HETATM   32  H   UNL     1      -8.547   9.724  64.386  1.00  0.00     0.000 HD 
HETATM   33  C   UNL     1      -6.274   7.353  67.733  1.00  0.00    -0.044 C  
HETATM   34  C   UNL     1      -7.469   6.062  65.739  1.00  0.00    -0.082 C  
HETATM   35  C   UNL     1     -10.904  11.143  73.788  1.00  0.00    18.699 C  
HETATM   36  H   UNL     1      -9.016  12.447  73.952  1.00  0.00     0.000 HD 
HETATM   37  C   UNL     1      -6.462   8.398  68.901  1.00  0.00    -0.049 C  
HETATM   38  C   UNL     1      -8.765   6.049  64.892  1.00  0.00     0.068 C  
HETATM   39  O   UNL     1      -8.886  13.111  73.284  1.00  0.00    13.921 OA 
HETATM   40  C   UNL     1      -6.519   9.897  68.481  1.00  0.00    -0.050 C  
HETATM   41  C   UNL     1     -10.246  11.302  72.347  1.00  0.00    12.874 C  
HETATM   42  C   UNL     1      -9.124   7.464  64.444  1.00  0.00     1.242 C  
HETATM   43  C   UNL     1      -6.064  10.894  69.563  1.00  0.00    -0.061 C  
HETATM   44  C   UNL     1      -7.916  10.319  68.029  1.00  0.00    -0.101 C  
HETATM   45  C   UNL     1     -10.283   7.571  63.457  1.00  0.00     8.072 C  
HETATM   46  C   UNL     1      -6.253  12.344  69.086  1.00  0.00    -0.090 C  
HETATM   47  C   UNL     1      -6.984  13.150  69.881  1.00  0.00     0.476 C  
HETATM   48  C   UNL     1      -5.803  12.706  67.693  1.00  0.00    -0.140 C  
HETATM   49  C   UNL     1      -7.581  14.518  69.654  1.00  0.00     0.088 C  
HETATM   50  C   UNL     1      -8.363  14.728  70.967  1.00  0.00     2.983 C  
HETATM   51  C   UNL     1      -8.452  14.752  68.391  1.00  0.00    -0.157 C  
HETATM   52  C   UNL     1      -9.942  12.933  72.308  1.00  0.00    15.850 C  
HETATM   53  C   UNL     1      -9.727  14.031  71.201  1.00  0.00     5.083 C  
HETATM   54  O   UNL     1      -7.867  15.397  71.880  1.00  0.00     4.024 OA 
BRANCH  33  55
HETATM   55  O   UNL     1      -5.137   7.822  66.994  1.00  0.00    -0.025 OA 
HETATM   56  C   UNL     1      -5.406   8.754  65.965  1.00  0.00    -0.037 C  
ENDBRANCH  33  55
BRANCH  34  57
HETATM   57  O   UNL     1      -7.223   4.790  66.336  1.00  0.00    -0.074 OA 
HETATM   58  C   UNL     1      -5.864   4.600  66.721  1.00  0.00    -0.026 C  
ENDBRANCH  34  57
BRANCH  51  59
HETATM   59  C   UNL     1      -8.863  16.174  68.043  1.00  0.00    -0.181 C  
HETATM   60  C   UNL     1      -8.498  16.898  66.977  1.00  0.00    -0.228 C  
ENDBRANCH  51  59
ENDBRANCH  13  14
ENDBRANCH   5  11
ENDBRANCH   2   3
TORSDOF 6
ENDMDL
MODEL       46
REMARK 921   NORMALIZED FREE ENERGY PREDICTED BY IDOCK:   95.37 KCAL/MOL
REMARK 922        TOTAL FREE ENERGY PREDICTED BY IDOCK:  127.22 KCAL/MOL
REMARK 923 INTER-LIGAND FREE ENERGY PREDICTED BY IDOCK:   84.93 KCAL/MOL
REMARK 924 INTRA-LIGAND FREE ENERGY PREDICTED BY IDOCK:   42.28 KCAL/MOL
REMARK 927      BINDING AFFINITY PREDICTED BY RF-SCORE:    0.00 PKD
ROOT
HETATM    1  C   UNL     1      -8.499   5.230  69.724  1.00  0.00    -0.098 C  
HETATM    2  O   UNL     1      -9.660   4.926  68.957  1.00  0.00    -0.133 OA 
ENDROOT
BRANCH   2   3
HETATM    3  C   UNL     1      -9.458   5.065  67.547  1.00  0.00    -0.135 C  
HETATM    4  C   UNL     1     -10.150   6.334  67.012  1.00  0.00    -0.225 C  
HETATM    5  C   UNL     1      -9.987   6.314  65.510  1.00  0.00     0.870 C  
HETATM    6  O   UNL     1      -8.965   2.715  67.005  1.00  0.00    -0.133 OA 
HETATM    7  C   UNL     1     -10.878   5.185  64.967  1.00  0.00     0.791 C  
HETATM    8  C   UNL     1      -9.934   3.758  66.828  1.00  0.00     0.141 C  
HETATM    9  C   UNL     1     -10.173   3.887  65.312  1.00  0.00    -0.080 C  
HETATM   10  H   UNL     1      -9.254   1.922  66.569  1.00  0.00     0.000 HD 
BRANCH   5  11
HETATM   11  C   UNL     1     -10.169   7.597  64.762  1.00  0.00     4.720 C  
HETATM   12  C   UNL     1     -10.934   9.109  66.676  1.00  0.00     0.349 C  
HETATM   13  C   UNL     1     -10.116   8.726  65.506  1.00  0.00     0.719 C  
BRANCH  13  14
HETATM   14  C   UNL     1      -8.895   9.605  65.330  1.00  0.00    -0.171 C  
HETATM   15  C   UNL     1      -9.038  11.890  66.132  1.00  0.00    -0.161 C  
HETATM   16  O   UNL     1      -8.888  10.555  66.444  1.00  0.00    -0.147 OA 
HETATM   17  O   UNL     1      -8.757  12.375  65.034  1.00  0.00     0.916 OA 
HETATM   18  C   UNL     1      -9.577  12.739  67.345  1.00  0.00    -0.199 C  
HETATM   19  C   UNL     1      -8.998  14.192  67.274  1.00  0.00    -0.221 C  
HETATM   20  C   UNL     1      -9.831  15.157  66.414  1.00  0.00    -0.300 C  
HETATM   21  C   UNL     1     -11.276  15.174  66.892  1.00  0.00    -0.292 C  
HETATM   22  C   UNL     1     -11.827  13.760  66.809  1.00  0.00    -0.420 C  
HETATM   23  N   UNL     1     -11.049  12.837  67.640  1.00  0.00    -0.247 N  
HETATM   24  C   UNL     1     -11.640  12.515  68.878  1.00  0.00    -0.318 C  
HETATM   25  C   UNL     1     -11.224  11.262  69.610  1.00  0.00    -0.251 C  
HETATM   26  O   UNL     1     -12.627  13.099  69.323  1.00  0.00     0.087 OA 
HETATM   27  C   UNL     1     -10.921  11.273  71.145  1.00  0.00     2.353 C  
HETATM   28  O   UNL     1     -11.174  10.226  68.945  1.00  0.00    -0.236 OA 
HETATM   29  O   UNL     1      -9.530  11.409  71.408  1.00  0.00     6.875 OA 
HETATM   30  O   UNL     1     -11.247   9.928  71.571  1.00  0.00    -0.322 OA 
HETATM   31  C   UNL     1      -8.964  12.693  71.189  1.00  0.00    12.839 C  
HETATM   32  H   UNL     1     -11.064   9.935  72.503  1.00  0.00     0.000 HD 
HETATM   33  C   UNL     1      -7.398  12.576  71.247  1.00  0.00     6.382 C  
HETATM   34  C   UNL     1      -9.631  13.706  72.146  1.00  0.00    11.821 C  
HETATM   35  C   UNL     1      -7.211   8.945  63.550  1.00  0.00    -0.093 C  
HETATM   36  H   UNL     1      -5.522   7.728  64.530  1.00  0.00     0.000 HD 
HETATM   37  C   UNL     1      -6.780  11.590  70.181  1.00  0.00     0.222 C  
HETATM   38  C   UNL     1     -11.174  13.620  72.042  1.00  0.00     3.442 C  
HETATM   39  O   UNL     1      -5.776   7.035  65.128  1.00  0.00    -0.031 OA 
HETATM   40  C   UNL     1      -6.979  10.070  70.452  1.00  0.00    -0.137 C  
HETATM   41  C   UNL     1      -7.541   8.733  65.094  1.00  0.00    -0.096 C  
HETATM   42  C   UNL     1     -11.637  12.169  72.154  1.00  0.00     4.386 C  
HETATM   43  C   UNL     1      -5.902   9.153  69.842  1.00  0.00    -0.035 C  
HETATM   44  C   UNL     1      -8.337   9.568  69.962  1.00  0.00    -0.192 C  
HETATM   45  C   UNL     1     -13.146  11.962  72.243  1.00  0.00    -0.123 C  
HETATM   46  C   UNL     1      -6.244   7.673  70.080  1.00  0.00    -0.033 C  
HETATM   47  C   UNL     1      -6.298   6.883  68.989  1.00  0.00    -0.028 C  
HETATM   48  C   UNL     1      -6.697   7.252  71.455  1.00  0.00    -0.051 C  
HETATM   49  C   UNL     1      -6.821   5.482  68.783  1.00  0.00    -0.059 C  
HETATM   50  C   UNL     1      -6.644   5.313  67.260  1.00  0.00    -0.053 C  
HETATM   51  C   UNL     1      -8.258   5.144  69.262  1.00  0.00    -0.084 C  
HETATM   52  C   UNL     1      -7.215   7.116  65.275  1.00  0.00    -0.073 C  
HETATM   53  C   UNL     1      -7.636   5.967  66.265  1.00  0.00    -0.090 C  
HETATM   54  O   UNL     1      -5.657   4.717  66.816  1.00  0.00    -0.013 OA 
BRANCH  33  55
HETATM   55  O   UNL     1      -6.905  12.113  72.512  1.00  0.00     5.513 OA 
HETATM   56  C   UNL     1      -7.880  11.684  73.442  1.00  0.00    19.129 C  
ENDBRANCH  33  55
BRANCH  34  57
HETATM   57  O   UNL     1      -9.160  15.018  71.843  1.00  0.00     3.481 OA 
HETATM   58  C   UNL     1      -7.768  15.190  72.095  1.00  0.00     5.362 C  
ENDBRANCH  34  57
BRANCH  51  59
HETATM   59  C   UNL     1      -8.702   3.690  69.264  1.00  0.00    -0.130 C  
HETATM   60  C   UNL     1      -8.119   2.653  69.878  1.00  0.00    -0.057 C  
ENDBRANCH  51  59
ENDBRANCH  13  14
ENDBRANCH   5  11
ENDBRANCH   2   3
TORSDOF 6
ENDMDL
MODEL       47
REMARK 921   NORMALIZED FREE ENERGY PREDICTED BY IDOCK:   98.80 KCAL/MOL
REMARK 922        TOTAL FREE ENERGY PREDICTED BY IDOCK:  131.86 KCAL/MOL
REMARK 923 INTER-LIGAND FREE ENERGY PREDICTED BY IDOCK:   84.25 KCAL/MOL
REMARK 924 INTRA-LIGAND FREE ENERGY PREDICTED BY IDOCK:   47.60 KCAL/MOL
REMARK 927      BINDING AFFINITY PREDICTED BY RF-SCORE:    0.00 PKD
ROOT
HETATM    1  C   UNL     1     -14.228  13.752  74.303  1.00  0.00    10.202 C  
HETATM    2  O   UNL     1     -14.159  13.388  72.928  1.00  0.00    -0.570 OA 
ENDROOT
BRANCH   2   3
HETATM    3  C   UNL     1     -12.977  13.863  72.277  1.00  0.00    -0.358 C  
HETATM    4  C   UNL     1     -11.749  13.740  73.201  1.00  0.00     2.262 C  
HETATM    5  C   UNL     1     -10.593  14.383  72.471  1.00  0.00     3.556 C  
HETATM    6  O   UNL     1     -14.034  15.313  70.591  1.00  0.00    -0.736 OA 
HETATM    7  C   UNL     1     -10.852  15.899  72.449  1.00  0.00     1.190 C  
HETATM    8  C   UNL     1     -13.220  15.326  71.773  1.00  0.00    -0.424 C  
HETATM    9  C   UNL     1     -11.949  16.124  71.427  1.00  0.00    -0.451 C  
HETATM   10  H   UNL     1     -14.181  16.200  70.285  1.00  0.00     0.000 HD 
BRANCH   5  11
HETATM   11  C   UNL     1      -9.203  14.046  72.912  1.00  0.00    10.931 C  
HETATM   12  C   UNL     1      -9.299  11.498  72.734  1.00  0.00    20.949 C  
HETATM   13  C   UNL     1      -8.731  12.844  72.508  1.00  0.00    20.331 C  
BRANCH  13  14
HETATM   14  C   UNL     1      -7.647  12.855  71.449  1.00  0.00     7.876 C  
HETATM   15  C   UNL     1      -6.791  10.711  70.706  1.00  0.00     0.606 C  
HETATM   16  O   UNL     1      -7.813  11.635  70.656  1.00  0.00     2.536 OA 
HETATM   17  O   UNL     1      -5.626  10.989  70.993  1.00  0.00    -0.235 OA 
HETATM   18  C   UNL     1      -7.269   9.260  70.320  1.00  0.00    -0.087 C  
HETATM   19  C   UNL     1      -6.101   8.485  69.622  1.00  0.00    -0.032 C  
HETATM   20  C   UNL     1      -5.158   7.761  70.598  1.00  0.00    -0.023 C  
HETATM   21  C   UNL     1      -5.952   6.835  71.507  1.00  0.00    -0.037 C  
HETATM   22  C   UNL     1      -6.979   7.665  72.261  1.00  0.00    -0.066 C  
HETATM   23  N   UNL     1      -7.893   8.344  71.338  1.00  0.00    -0.105 N  
HETATM   24  C   UNL     1      -9.153   7.731  71.196  1.00  0.00    -0.142 C  
HETATM   25  C   UNL     1     -10.328   8.528  70.683  1.00  0.00    -0.199 C  
HETATM   26  O   UNL     1      -9.412   6.616  71.647  1.00  0.00    -0.160 OA 
HETATM   27  C   UNL     1     -11.289   7.958  69.589  1.00  0.00     0.184 C  
HETATM   28  O   UNL     1     -10.511   9.633  71.199  1.00  0.00    -0.307 OA 
HETATM   29  O   UNL     1     -10.930   8.403  68.287  1.00  0.00     0.016 OA 
HETATM   30  O   UNL     1     -12.553   8.610  69.866  1.00  0.00     0.558 OA 
HETATM   31  C   UNL     1      -9.772   7.817  67.711  1.00  0.00    -0.153 C  
HETATM   32  H   UNL     1     -13.137   8.264  69.202  1.00  0.00     0.000 HD 
HETATM   33  C   UNL     1      -9.375   8.628  66.426  1.00  0.00    -0.211 C  
HETATM   34  C   UNL     1     -10.008   6.300  67.542  1.00  0.00    -0.134 C  
HETATM   35  C   UNL     1      -6.280  14.976  71.180  1.00  0.00     0.337 C  
HETATM   36  H   UNL     1      -7.187  16.243  69.489  1.00  0.00     0.000 HD 
HETATM   37  C   UNL     1      -9.061  10.153  66.690  1.00  0.00    -0.164 C  
HETATM   38  C   UNL     1     -10.495   5.672  68.871  1.00  0.00    -0.310 C  
HETATM   39  O   UNL     1      -8.130  16.364  69.493  1.00  0.00    -0.097 OA 
HETATM   40  C   UNL     1     -10.287  11.068  66.982  1.00  0.00    -0.269 C  
HETATM   41  C   UNL     1      -7.598  14.265  70.637  1.00  0.00     1.671 C  
HETATM   42  C   UNL     1     -11.653   6.481  69.451  1.00  0.00    -0.249 C  
HETATM   43  C   UNL     1     -10.097  12.550  66.609  1.00  0.00    -0.241 C  
HETATM   44  C   UNL     1     -10.711  11.016  68.449  1.00  0.00    -0.240 C  
HETATM   45  C   UNL     1     -12.341   5.871  70.669  1.00  0.00     1.381 C  
HETATM   46  C   UNL     1     -11.321  13.382  67.028  1.00  0.00    -0.346 C  
HETATM   47  C   UNL     1     -11.084  14.448  67.817  1.00  0.00    -0.299 C  
HETATM   48  C   UNL     1     -12.695  12.845  66.715  1.00  0.00     0.937 C  
HETATM   49  C   UNL     1     -12.007  15.338  68.614  1.00  0.00    -0.263 C  
HETATM   50  C   UNL     1     -10.998  16.251  69.339  1.00  0.00    -0.337 C  
HETATM   51  C   UNL     1     -13.028  14.681  69.581  1.00  0.00     0.386 C  
HETATM   52  C   UNL     1      -8.652  15.545  70.568  1.00  0.00     1.576 C  
HETATM   53  C   UNL     1     -10.212  15.745  70.575  1.00  0.00     0.194 C  
HETATM   54  O   UNL     1     -10.748  17.375  68.890  1.00  0.00    -0.284 OA 
BRANCH  33  55
HETATM   55  O   UNL     1     -10.390   8.629  65.412  1.00  0.00     1.054 OA 
HETATM   56  C   UNL     1     -10.131   9.425  64.273  1.00  0.00     1.633 C  
ENDBRANCH  33  55
BRANCH  34  57
HETATM   57  O   UNL     1      -8.804   5.686  67.085  1.00  0.00    -0.109 OA 
HETATM   58  C   UNL     1      -7.922   5.316  68.141  1.00  0.00    -0.091 C  
ENDBRANCH  34  57
BRANCH  51  59
HETATM   59  C   UNL     1     -14.104  15.553  70.208  1.00  0.00     1.285 C  
HETATM   60  C   UNL     1     -14.221  15.921  71.489  1.00  0.00     0.331 C  
ENDBRANCH  51  59
ENDBRANCH  13  14
ENDBRANCH   5  11
ENDBRANCH   2   3
TORSDOF 6
ENDMDL
MODEL       48
REMARK 921   NORMALIZED FREE ENERGY PREDICTED BY IDOCK:   99.55 KCAL/MOL
REMARK 922        TOTAL FREE ENERGY PREDICTED BY IDOCK:  132.87 KCAL/MOL
REMARK 923 INTER-LIGAND FREE ENERGY PREDICTED BY IDOCK:  104.63 KCAL/MOL
REMARK 924 INTRA-LIGAND FREE ENERGY PREDICTED BY IDOCK:   28.24 KCAL/MOL
REMARK 927      BINDING AFFINITY PREDICTED BY RF-SCORE:    0.00 PKD
ROOT
HETATM    1  C   UNL     1      -5.693  13.117  66.106  1.00  0.00     4.105 C  
HETATM    2  O   UNL     1      -6.315  13.805  67.187  1.00  0.00    -0.205 OA 
ENDROOT
BRANCH   2   3
HETATM    3  C   UNL     1      -7.521  14.478  66.809  1.00  0.00     0.761 C  
HETATM    4  C   UNL     1      -7.967  14.060  65.394  1.00  0.00     5.517 C  
HETATM    5  C   UNL     1      -9.161  14.918  65.047  1.00  0.00     1.401 C  
HETATM    6  O   UNL     1      -7.371  16.402  68.338  1.00  0.00    -0.155 OA 
HETATM    7  C   UNL     1      -8.649  16.352  64.833  1.00  0.00     4.106 C  
HETATM    8  C   UNL     1      -7.314  16.023  66.955  1.00  0.00    -0.201 C  
HETATM    9  C   UNL     1      -8.340  16.900  66.213  1.00  0.00    -0.331 C  
HETATM   10  H   UNL     1      -7.245  17.339  68.426  1.00  0.00     0.000 HD 
BRANCH   5  11
HETATM   11  C   UNL     1     -10.063  14.461  63.944  1.00  0.00     2.624 C  
HETATM   12  C   UNL     1      -9.424  11.988  63.858  1.00  0.00     0.055 C  
HETATM   13  C   UNL     1     -10.349  13.139  63.924  1.00  0.00    -0.018 C  
BRANCH  13  14
HETATM   14  C   UNL     1     -11.760  12.738  64.303  1.00  0.00    -0.381 C  
HETATM   15  C   UNL     1     -12.195  10.378  64.652  1.00  0.00     5.234 C  
HETATM   16  O   UNL     1     -11.653  11.545  65.146  1.00  0.00    -0.122 OA 
HETATM   17  O   UNL     1     -13.093  10.339  63.809  1.00  0.00     5.288 OA 
HETATM   18  C   UNL     1     -11.564   9.092  65.310  1.00  0.00     7.580 C  
HETATM   19  C   UNL     1     -12.636   7.953  65.383  1.00  0.00    16.316 C  
HETATM   20  C   UNL     1     -12.719   7.089  64.113  1.00  0.00    17.919 C  
HETATM   21  C   UNL     1     -11.348   6.520  63.775  1.00  0.00    12.854 C  
HETATM   22  C   UNL     1     -10.381   7.677  63.580  1.00  0.00     9.114 C  
HETATM   23  N   UNL     1     -10.284   8.495  64.792  1.00  0.00     2.824 N  
HETATM   24  C   UNL     1      -9.138   8.256  65.576  1.00  0.00    -0.006 C  
HETATM   25  C   UNL     1      -8.661   9.301  66.555  1.00  0.00    -0.130 C  
HETATM   26  O   UNL     1      -8.376   7.310  65.381  1.00  0.00    -0.139 OA 
HETATM   27  C   UNL     1      -8.239   8.925  68.014  1.00  0.00    -0.110 C  
HETATM   28  O   UNL     1      -8.583  10.456  66.133  1.00  0.00    -0.136 OA 
HETATM   29  O   UNL     1      -9.303   9.121  68.938  1.00  0.00    -0.145 OA 
HETATM   30  O   UNL     1      -7.259   9.933  68.361  1.00  0.00    -0.072 OA 
HETATM   31  C   UNL     1     -10.362   8.177  68.898  1.00  0.00    -0.211 C  
HETATM   32  H   UNL     1      -7.003   9.705  69.247  1.00  0.00     0.000 HD 
HETATM   33  C   UNL     1     -11.557   8.713  69.765  1.00  0.00     0.371 C  
HETATM   34  C   UNL     1      -9.805   6.780  69.252  1.00  0.00    -0.155 C  
HETATM   35  C   UNL     1     -13.638  14.345  63.732  1.00  0.00     3.744 C  
HETATM   36  H   UNL     1     -14.096  15.649  65.571  1.00  0.00     0.000 HD 
HETATM   37  C   UNL     1     -12.134  10.103  69.290  1.00  0.00     0.209 C  
HETATM   38  C   UNL     1      -8.569   6.449  68.380  1.00  0.00    -0.115 C  
HETATM   39  O   UNL     1     -13.356  16.033  66.027  1.00  0.00     3.696 OA 
HETATM   40  C   UNL     1     -11.255  11.353  69.589  1.00  0.00    -0.301 C  
HETATM   41  C   UNL     1     -12.614  13.990  64.898  1.00  0.00    -0.369 C  
HETATM   42  C   UNL     1      -7.574   7.607  68.402  1.00  0.00    -0.113 C  
HETATM   43  C   UNL     1     -12.030  12.677  69.729  1.00  0.00    -0.365 C  
HETATM   44  C   UNL     1     -10.173  11.567  68.532  1.00  0.00    -0.219 C  
HETATM   45  C   UNL     1      -6.233   7.339  67.725  1.00  0.00    -0.046 C  
HETATM   46  C   UNL     1     -11.066  13.859  69.924  1.00  0.00     0.006 C  
HETATM   47  C   UNL     1     -11.188  14.885  69.058  1.00  0.00    -0.278 C  
HETATM   48  C   UNL     1      -9.934  13.708  70.907  1.00  0.00     4.970 C  
HETATM   49  C   UNL     1     -10.303  16.073  68.772  1.00  0.00    -0.237 C  
HETATM   50  C   UNL     1     -11.045  16.727  67.588  1.00  0.00    -0.089 C  
HETATM   51  C   UNL     1      -8.798  15.831  68.478  1.00  0.00    -0.193 C  
HETATM   52  C   UNL     1     -12.160  15.505  65.403  1.00  0.00     0.534 C  
HETATM   53  C   UNL     1     -10.935  16.140  66.159  1.00  0.00    -0.036 C  
HETATM   54  O   UNL     1     -11.801  17.684  67.786  1.00  0.00     0.993 OA 
BRANCH  33  55
HETATM   55  O   UNL     1     -11.221   8.904  71.148  1.00  0.00    -0.249 OA 
HETATM   56  C   UNL     1     -12.302   9.164  72.021  1.00  0.00    -0.377 C  
ENDBRANCH  33  55
BRANCH  34  57
HETATM   57  O   UNL     1     -10.836   5.808  69.089  1.00  0.00    -0.304 OA 
HETATM   58  C   UNL     1     -10.453   4.713  68.262  1.00  0.00     0.323 C  
ENDBRANCH  34  57
BRANCH  51  59
HETATM   59  C   UNL     1      -7.865  17.029  68.417  1.00  0.00    -0.233 C  
HETATM   60  C   UNL     1      -7.846  18.099  69.221  1.00  0.00     0.132 C  
ENDBRANCH  51  59
ENDBRANCH  13  14
ENDBRANCH   5  11
ENDBRANCH   2   3
TORSDOF 6
ENDMDL
MODEL       49
REMARK 921   NORMALIZED FREE ENERGY PREDICTED BY IDOCK:   99.91 KCAL/MOL
REMARK 922        TOTAL FREE ENERGY PREDICTED BY IDOCK:  133.36 KCAL/MOL
REMARK 923 INTER-LIGAND FREE ENERGY PREDICTED BY IDOCK:  105.78 KCAL/MOL
REMARK 924 INTRA-LIGAND FREE ENERGY PREDICTED BY IDOCK:   27.57 KCAL/MOL
REMARK 927      BINDING AFFINITY PREDICTED BY RF-SCORE:    0.00 PKD
ROOT
HETATM    1  C   UNL     1     -11.815  12.448  64.247  1.00  0.00    -0.398 C  
HETATM    2  O   UNL     1     -11.778  11.026  64.306  1.00  0.00     0.294 OA 
ENDROOT
BRANCH   2   3
HETATM    3  C   UNL     1     -11.713  10.517  65.642  1.00  0.00     2.155 C  
HETATM    4  C   UNL     1     -10.841   9.249  65.709  1.00  0.00     1.551 C  
HETATM    5  C   UNL     1     -10.947   8.726  67.123  1.00  0.00     0.136 C  
HETATM    6  O   UNL     1     -13.766  11.545  66.533  1.00  0.00     8.108 OA 
HETATM    7  C   UNL     1     -12.370   8.171  67.301  1.00  0.00     7.396 C  
HETATM    8  C   UNL     1     -13.168  10.290  66.176  1.00  0.00    13.942 C  
HETATM    9  C   UNL     1     -13.283   9.377  67.411  1.00  0.00    14.987 C  
HETATM   10  H   UNL     1     -14.648  11.407  66.856  1.00  0.00     0.000 HD 
BRANCH   5  11
HETATM   11  C   UNL     1      -9.898   7.775  67.606  1.00  0.00    -0.208 C  
HETATM   12  C   UNL     1      -8.671   7.331  65.408  1.00  0.00     0.009 C  
HETATM   13  C   UNL     1      -8.787   7.683  66.839  1.00  0.00    -0.142 C  
BRANCH  13  14
HETATM   14  C   UNL     1      -7.514   8.283  67.402  1.00  0.00    -0.094 C  
HETATM   15  C   UNL     1      -6.771  10.396  66.473  1.00  0.00    -0.099 C  
HETATM   16  O   UNL     1      -7.650   9.738  67.306  1.00  0.00    -0.088 OA 
HETATM   17  O   UNL     1      -5.665   9.956  66.154  1.00  0.00    -0.054 OA 
HETATM   18  C   UNL     1      -7.319  11.795  65.997  1.00  0.00     0.631 C  
HETATM   19  C   UNL     1      -6.128  12.789  65.791  1.00  0.00     4.848 C  
HETATM   20  C   UNL     1      -5.491  12.723  64.392  1.00  0.00     9.420 C  
HETATM   21  C   UNL     1      -6.554  12.925  63.321  1.00  0.00    11.359 C  
HETATM   22  C   UNL     1      -7.614  11.847  63.486  1.00  0.00     3.000 C  
HETATM   23  N   UNL     1      -8.237  11.915  64.811  1.00  0.00     1.440 N  
HETATM   24  C   UNL     1      -9.502  12.533  64.838  1.00  0.00     0.292 C  
HETATM   25  C   UNL     1     -10.450  12.266  65.982  1.00  0.00    -0.254 C  
HETATM   26  O   UNL     1      -9.971  13.144  63.879  1.00  0.00    -0.270 OA 
HETATM   27  C   UNL     1     -11.225  13.425  66.692  1.00  0.00    -0.309 C  
HETATM   28  O   UNL     1     -10.610  11.086  66.301  1.00  0.00    -0.254 OA 
HETATM   29  O   UNL     1     -10.559  13.861  67.871  1.00  0.00    -0.239 OA 
HETATM   30  O   UNL     1     -12.437  12.789  67.167  1.00  0.00    -0.239 OA 
HETATM   31  C   UNL     1      -9.381  14.631  67.687  1.00  0.00    -0.200 C  
HETATM   32  H   UNL     1     -12.908  13.493  67.598  1.00  0.00     0.000 HD 
HETATM   33  C   UNL     1      -8.640  14.767  69.066  1.00  0.00    -0.137 C  
HETATM   34  C   UNL     1      -9.746  15.940  66.951  1.00  0.00    -0.230 C  
HETATM   35  C   UNL     1      -5.893   6.725  68.577  1.00  0.00    -0.018 C  
HETATM   36  H   UNL     1      -6.286   6.802  70.842  1.00  0.00     0.000 HD 
HETATM   37  C   UNL     1      -8.218  13.392  69.716  1.00  0.00     1.695 C  
HETATM   38  C   UNL     1     -10.562  15.637  65.671  1.00  0.00    -0.393 C  
HETATM   39  O   UNL     1      -7.190   6.741  71.129  1.00  0.00    -0.074 OA 
HETATM   40  C   UNL     1      -9.367  12.539  70.330  1.00  0.00     4.750 C  
HETATM   41  C   UNL     1      -7.142   7.670  68.863  1.00  0.00    -0.079 C  
HETATM   42  C   UNL     1     -11.715  14.687  65.986  1.00  0.00    -0.306 C  
HETATM   43  C   UNL     1      -8.939  11.593  71.468  1.00  0.00    12.854 C  
HETATM   44  C   UNL     1     -10.086  11.694  69.280  1.00  0.00     0.165 C  
HETATM   45  C   UNL     1     -12.702  14.445  64.848  1.00  0.00    -0.191 C  
HETATM   46  C   UNL     1     -10.122  10.729  71.935  1.00  0.00     6.914 C  
HETATM   47  C   UNL     1      -9.934   9.394  71.925  1.00  0.00     0.327 C  
HETATM   48  C   UNL     1     -11.454  11.396  72.164  1.00  0.00     4.416 C  
HETATM   49  C   UNL     1     -10.895   8.239  72.070  1.00  0.00    -0.370 C  
HETATM   50  C   UNL     1      -9.959   7.035  71.838  1.00  0.00    -0.167 C  
HETATM   51  C   UNL     1     -12.159   8.201  71.170  1.00  0.00    -0.281 C  
HETATM   52  C   UNL     1      -8.009   6.744  69.934  1.00  0.00    -0.120 C  
HETATM   53  C   UNL     1      -9.505   6.643  70.409  1.00  0.00    -0.170 C  
HETATM   54  O   UNL     1      -9.498   6.416  72.803  1.00  0.00    -0.145 OA 
BRANCH  33  55
HETATM   55  O   UNL     1      -9.419  15.430  70.072  1.00  0.00    -0.180 OA 
HETATM   56  C   UNL     1     -10.305  14.612  70.812  1.00  0.00     0.913 C  
ENDBRANCH  33  55
BRANCH  34  57
HETATM   57  O   UNL     1      -8.550  16.659  66.651  1.00  0.00    -0.210 OA 
HETATM   58  C   UNL     1      -8.763  18.054  66.459  1.00  0.00    -0.260 C  
ENDBRANCH  34  57
BRANCH  51  59
HETATM   59  C   UNL     1     -13.236   7.171  71.469  1.00  0.00    -0.419 C  
HETATM   60  C   UNL     1     -13.444   6.507  72.613  1.00  0.00     0.779 C  
ENDBRANCH  51  59
ENDBRANCH  13  14
ENDBRANCH   5  11
ENDBRANCH   2   3
TORSDOF 6
ENDMDL
MODEL       50
REMARK 921   NORMALIZED FREE ENERGY PREDICTED BY IDOCK:  103.88 KCAL/MOL
REMARK 922        TOTAL FREE ENERGY PREDICTED BY IDOCK:  138.72 KCAL/MOL
REMARK 923 INTER-LIGAND FREE ENERGY PREDICTED BY IDOCK:  123.88 KCAL/MOL
REMARK 924 INTRA-LIGAND FREE ENERGY PREDICTED BY IDOCK:   14.83 KCAL/MOL
REMARK 927      BINDING AFFINITY PREDICTED BY RF-SCORE:    0.00 PKD
ROOT
HETATM    1  C   UNL     1      -7.378  10.850  74.007  1.00  0.00     7.497 C  
HETATM    2  O   UNL     1      -8.615  11.517  73.775  1.00  0.00    15.647 OA 
ENDROOT
BRANCH   2   3
HETATM    3  C   UNL     1      -8.641  12.245  72.543  1.00  0.00    22.947 C  
HETATM    4  C   UNL     1      -8.391  11.311  71.343  1.00  0.00     8.668 C  
HETATM    5  C   UNL     1      -8.309  12.193  70.119  1.00  0.00     3.543 C  
HETATM    6  O   UNL     1      -8.151  14.491  73.425  1.00  0.00     4.728 OA 
HETATM    7  C   UNL     1      -6.995  12.987  70.213  1.00  0.00     1.086 C  
HETATM    8  C   UNL     1      -7.617  13.428  72.624  1.00  0.00     9.599 C  
HETATM    9  C   UNL     1      -7.219  14.049  71.272  1.00  0.00     2.654 C  
HETATM   10  H   UNL     1      -7.530  15.208  73.474  1.00  0.00     0.000 HD 
BRANCH   5  11
HETATM   11  C   UNL     1      -8.500  11.560  68.777  1.00  0.00    -0.057 C  
HETATM   12  C   UNL     1      -6.743  12.845  67.438  1.00  0.00    -0.131 C  
HETATM   13  C   UNL     1      -7.449  11.643  67.930  1.00  0.00    -0.105 C  
BRANCH  13  14
HETATM   14  C   UNL     1      -6.689  10.361  67.653  1.00  0.00    -0.074 C  
HETATM   15  C   UNL     1      -6.370   8.831  69.508  1.00  0.00    -0.043 C  
HETATM   16  O   UNL     1      -7.228   9.343  68.558  1.00  0.00    -0.070 OA 
HETATM   17  O   UNL     1      -5.143   8.830  69.397  1.00  0.00    -0.034 OA 
HETATM   18  C   UNL     1      -7.131   8.212  70.741  1.00  0.00    -0.049 C  
HETATM   19  C   UNL     1      -6.309   7.016  71.327  1.00  0.00    -0.041 C  
HETATM   20  C   UNL     1      -5.254   7.430  72.367  1.00  0.00    -0.037 C  
HETATM   21  C   UNL     1      -5.905   8.235  73.483  1.00  0.00    -0.078 C  
HETATM   22  C   UNL     1      -6.570   9.457  72.870  1.00  0.00     0.685 C  
HETATM   23  N   UNL     1      -7.589   9.070  71.890  1.00  0.00     0.086 N  
HETATM   24  C   UNL     1      -8.916   9.138  72.358  1.00  0.00     0.817 C  
HETATM   25  C   UNL     1     -10.059   9.235  71.378  1.00  0.00    -0.278 C  
HETATM   26  O   UNL     1      -9.202   9.314  73.542  1.00  0.00     1.230 OA 
HETATM   27  C   UNL     1     -11.345   8.356  71.528  1.00  0.00    -0.276 C  
HETATM   28  O   UNL     1      -9.944  10.069  70.477  1.00  0.00    -0.186 OA 
HETATM   29  O   UNL     1     -11.281   7.185  70.725  1.00  0.00    -0.259 OA 
HETATM   30  O   UNL     1     -12.386   9.162  70.924  1.00  0.00    -0.437 OA 
HETATM   31  C   UNL     1     -10.409   6.156  71.168  1.00  0.00    -0.208 C  
HETATM   32  H   UNL     1     -13.167   8.628  71.016  1.00  0.00     0.000 HD 
HETATM   33  C   UNL     1     -10.252   5.091  70.024  1.00  0.00    -0.269 C  
HETATM   34  C   UNL     1     -10.892   5.646  72.544  1.00  0.00    -0.251 C  
HETATM   35  C   UNL     1      -5.156  10.308  65.633  1.00  0.00    -0.060 C  
HETATM   36  H   UNL     1      -6.287   9.380  63.857  1.00  0.00     0.000 HD 
HETATM   37  C   UNL     1      -9.669   5.667  68.675  1.00  0.00    -0.175 C  
HETATM   38  C   UNL     1     -11.097   6.828  73.523  1.00  0.00     0.006 C  
HETATM   39  O   UNL     1      -7.169   9.694  63.691  1.00  0.00    -0.104 OA 
HETATM   40  C   UNL     1     -10.633   6.548  67.828  1.00  0.00    -0.321 C  
HETATM   41  C   UNL     1      -6.657   9.997  66.067  1.00  0.00    -0.095 C  
HETATM   42  C   UNL     1     -11.936   7.924  72.869  1.00  0.00    -0.096 C  
HETATM   43  C   UNL     1     -10.341   6.566  66.316  1.00  0.00     0.120 C  
HETATM   44  C   UNL     1     -10.661   7.999  68.305  1.00  0.00    -0.081 C  
HETATM   45  C   UNL     1     -12.359   9.068  73.785  1.00  0.00     4.708 C  
HETATM   46  C   UNL     1     -11.282   7.539  65.587  1.00  0.00     5.296 C  
HETATM   47  C   UNL     1     -10.699   8.490  64.830  1.00  0.00     5.855 C  
HETATM   48  C   UNL     1     -12.751   7.505  65.924  1.00  0.00    13.070 C  
HETATM   49  C   UNL     1     -11.246   9.737  64.179  1.00  0.00     5.269 C  
HETATM   50  C   UNL     1      -9.963  10.360  63.592  1.00  0.00    -0.136 C  
HETATM   51  C   UNL     1     -12.058  10.737  65.045  1.00  0.00     2.715 C  
HETATM   52  C   UNL     1      -7.500  10.601  64.771  1.00  0.00     0.132 C  
HETATM   53  C   UNL     1      -8.960  11.119  64.497  1.00  0.00     0.004 C  
HETATM   54  O   UNL     1      -9.684  10.190  62.400  1.00  0.00    -0.222 OA 
BRANCH  33  55
HETATM   55  O   UNL     1     -11.487   4.461  69.655  1.00  0.00     3.872 OA 
HETATM   56  C   UNL     1     -11.387   3.373  68.757  1.00  0.00     8.736 C  
ENDBRANCH  33  55
BRANCH  34  57
HETATM   57  O   UNL     1      -9.949   4.704  73.054  1.00  0.00    -0.142 OA 
HETATM   58  C   UNL     1     -10.205   4.322  74.402  1.00  0.00    -0.228 C  
ENDBRANCH  34  57
BRANCH  51  59
HETATM   59  C   UNL     1     -12.799  11.868  64.350  1.00  0.00     0.037 C  
HETATM   60  C   UNL     1     -12.277  12.902  63.678  1.00  0.00    -0.581 C  
ENDBRANCH  51  59
ENDBRANCH  13  14
ENDBRANCH   5  11
ENDBRANCH   2   3
TORSDOF 6
ENDMDL
MODEL       51
REMARK 921   NORMALIZED FREE ENERGY PREDICTED BY IDOCK:  138.58 KCAL/MOL
REMARK 922        TOTAL FREE ENERGY PREDICTED BY IDOCK:  185.59 KCAL/MOL
REMARK 923 INTER-LIGAND FREE ENERGY PREDICTED BY IDOCK:  174.12 KCAL/MOL
REMARK 924 INTRA-LIGAND FREE ENERGY PREDICTED BY IDOCK:   11.46 KCAL/MOL
REMARK 927      BINDING AFFINITY PREDICTED BY RF-SCORE:    0.00 PKD
ROOT
HETATM    1  C   UNL     1      -6.011   7.871  71.739  1.00  0.00    -0.035 C  
HETATM    2  O   UNL     1      -7.310   7.635  71.205  1.00  0.00    -0.071 OA 
ENDROOT
BRANCH   2   3
HETATM    3  C   UNL     1      -8.010   8.839  70.873  1.00  0.00    -0.135 C  
HETATM    4  C   UNL     1      -7.271   9.622  69.770  1.00  0.00    -0.094 C  
HETATM    5  C   UNL     1      -8.016  10.923  69.591  1.00  0.00     0.159 C  
HETATM    6  O   UNL     1      -9.298   9.110  72.953  1.00  0.00     0.225 OA 
HETATM    7  C   UNL     1      -7.759  11.776  70.845  1.00  0.00     5.454 C  
HETATM    8  C   UNL     1      -8.235   9.679  72.175  1.00  0.00     2.138 C  
HETATM    9  C   UNL     1      -8.593  11.160  71.951  1.00  0.00    11.845 C  
HETATM   10  H   UNL     1      -9.435   9.619  73.743  1.00  0.00     0.000 HD 
BRANCH   5  11
HETATM   11  C   UNL     1      -7.805  11.691  68.323  1.00  0.00    -0.136 C  
HETATM   12  C   UNL     1      -5.251  11.680  68.233  1.00  0.00    -0.043 C  
HETATM   13  C   UNL     1      -6.618  11.492  67.705  1.00  0.00    -0.078 C  
BRANCH  13  14
HETATM   14  C   UNL     1      -6.646  10.710  66.407  1.00  0.00    -0.120 C  
HETATM   15  C   UNL     1      -7.385   8.402  66.511  1.00  0.00    -0.081 C  
HETATM   16  O   UNL     1      -7.734   9.736  66.519  1.00  0.00    -0.103 OA 
HETATM   17  O   UNL     1      -6.347   7.966  66.010  1.00  0.00    -0.044 OA 
HETATM   18  C   UNL     1      -8.477   7.486  67.183  1.00  0.00    -0.121 C  
HETATM   19  C   UNL     1      -8.491   6.082  66.492  1.00  0.00    -0.115 C  
HETATM   20  C   UNL     1      -7.488   5.080  67.088  1.00  0.00    -0.087 C  
HETATM   21  C   UNL     1      -7.709   4.945  68.588  1.00  0.00    -0.077 C  
HETATM   22  C   UNL     1      -7.548   6.317  69.224  1.00  0.00    -0.099 C  
HETATM   23  N   UNL     1      -8.512   7.274  68.672  1.00  0.00    -0.129 N  
HETATM   24  C   UNL     1      -9.632   7.521  69.490  1.00  0.00    -0.156 C  
HETATM   25  C   UNL     1     -10.440   8.782  69.302  1.00  0.00    -0.219 C  
HETATM   26  O   UNL     1      -9.893   6.855  70.491  1.00  0.00    -0.179 OA 
HETATM   27  C   UNL     1     -12.004   8.756  69.267  1.00  0.00     1.542 C  
HETATM   28  O   UNL     1      -9.805   9.836  69.219  1.00  0.00    -0.179 OA 
HETATM   29  O   UNL     1     -12.502   8.716  67.936  1.00  0.00     5.044 OA 
HETATM   30  O   UNL     1     -12.382  10.063  69.764  1.00  0.00    -0.488 OA 
HETATM   31  C   UNL     1     -12.369   7.484  67.244  1.00  0.00     6.276 C  
HETATM   32  H   UNL     1     -13.332  10.047  69.743  1.00  0.00     0.000 HD 
HETATM   33  C   UNL     1     -12.698   7.713  65.725  1.00  0.00    14.206 C  
HETATM   34  C   UNL     1     -13.184   6.401  67.986  1.00  0.00    13.074 C  
HETATM   35  C   UNL     1      -5.192  11.535  64.499  1.00  0.00     1.462 C  
HETATM   36  H   UNL     1      -6.462  12.848  63.101  1.00  0.00     0.000 HD 
HETATM   37  C   UNL     1     -11.767   8.767  65.010  1.00  0.00    11.261 C  
HETATM   38  C   UNL     1     -12.816   6.376  69.490  1.00  0.00     3.894 C  
HETATM   39  O   UNL     1      -7.015  13.506  63.506  1.00  0.00    14.173 OA 
HETATM   40  C   UNL     1     -12.016  10.262  65.369  1.00  0.00     4.340 C  
HETATM   41  C   UNL     1      -6.657  11.685  65.103  1.00  0.00     2.076 C  
HETATM   42  C   UNL     1     -12.864   7.786  70.075  1.00  0.00     1.605 C  
HETATM   43  C   UNL     1     -11.612  11.270  64.276  1.00  0.00     0.088 C  
HETATM   44  C   UNL     1     -11.305  10.675  66.656  1.00  0.00     0.261 C  
HETATM   45  C   UNL     1     -12.693   7.880  71.588  1.00  0.00    -0.352 C  
HETATM   46  C   UNL     1     -11.805  12.715  64.766  1.00  0.00    -0.434 C  
HETATM   47  C   UNL     1     -10.730  13.525  64.692  1.00  0.00    -0.429 C  
HETATM   48  C   UNL     1     -13.085  13.067  65.479  1.00  0.00     0.380 C  
HETATM   49  C   UNL     1     -10.452  14.888  65.278  1.00  0.00    -0.427 C  
HETATM   50  C   UNL     1      -8.985  15.107  64.855  1.00  0.00     2.905 C  
HETATM   51  C   UNL     1     -10.679  15.109  66.797  1.00  0.00    -0.311 C  
HETATM   52  C   UNL     1      -6.911  13.317  64.938  1.00  0.00    12.459 C  
HETATM   53  C   UNL     1      -7.827  14.406  65.609  1.00  0.00     4.676 C  
HETATM   54  O   UNL     1      -8.725  15.785  63.855  1.00  0.00     8.053 OA 
BRANCH  33  55
HETATM   55  O   UNL     1     -14.035   8.180  65.493  1.00  0.00    17.178 OA 
HETATM   56  C   UNL     1     -14.245   8.888  64.287  1.00  0.00    17.582 C  
ENDBRANCH  33  55
BRANCH  34  57
HETATM   57  O   UNL     1     -12.953   5.134  67.371  1.00  0.00    11.604 OA 
HETATM   58  C   UNL     1     -12.469   5.236  66.035  1.00  0.00     5.475 C  
ENDBRANCH  34  57
BRANCH  51  59
HETATM   59  C   UNL     1     -10.621  16.526  67.344  1.00  0.00    -0.300 C  
HETATM   60  C   UNL     1      -9.717  17.048  68.182  1.00  0.00    -0.268 C  
ENDBRANCH  51  59
ENDBRANCH  13  14
ENDBRANCH   5  11
ENDBRANCH   2   3
TORSDOF 6
ENDMDL
