MODEL        1
REMARK 921   NORMALIZED FREE ENERGY PREDICTED BY IDOCK:   -9.58 KCAL/MOL
REMARK 922        TOTAL FREE ENERGY PREDICTED BY IDOCK:  -10.18 KCAL/MOL
REMARK 923 INTER-LIGAND FREE ENERGY PREDICTED BY IDOCK:  -10.14 KCAL/MOL
REMARK 924 INTRA-LIGAND FREE ENERGY PREDICTED BY IDOCK:   -0.05 KCAL/MOL
REMARK 927      BINDING AFFINITY PREDICTED BY RF-SCORE:    0.00 PKD
ROOT
HETATM    1  C   UNL     1     -12.022  14.679  66.731  1.00  0.00    -0.276 C  
HETATM    2  C   UNL     1     -12.149  13.892  68.058  1.00  0.00    -0.318 C  
HETATM    3  C   UNL     1     -11.946  14.820  69.205  1.00  0.00    -0.317 A  
HETATM    4  C   UNL     1     -11.334  16.047  69.040  1.00  0.00    -0.363 A  
HETATM    5  N   UNL     1     -11.347  16.684  70.255  1.00  0.00    -0.421 NA 
HETATM    6  C   UNL     1     -10.796  16.631  67.748  1.00  0.00    -0.292 C  
HETATM    7  N   UNL     1     -10.816  15.547  66.717  1.00  0.00    -0.310 N  
HETATM    8  O   UNL     1     -13.272  13.023  65.509  1.00  0.00    -0.409 OA 
HETATM    9  C   UNL     1     -11.883  15.851  71.217  1.00  0.00    -0.449 A  
HETATM   10  H   UNL     1     -11.011  17.632  70.423  1.00  0.00     0.000 HD 
HETATM   11  C   UNL     1      -9.726  15.215  65.932  1.00  0.00    -0.350 C  
HETATM   12  C   UNL     1     -12.044  16.056  72.592  1.00  0.00    -0.640 A  
HETATM   13  C   UNL     1     -12.281  14.677  70.577  1.00  0.00    -0.389 A  
HETATM   14  C   UNL     1     -12.631  15.025  73.335  1.00  0.00    -0.641 A  
HETATM   15  O   UNL     1      -8.606  15.717  66.017  1.00  0.00    -0.242 OA 
HETATM   16  C   UNL     1     -11.360  12.575  63.610  1.00  0.00    -0.485 C  
HETATM   17  C   UNL     1      -9.927  14.151  64.861  1.00  0.00    -0.116 C  
HETATM   18  C   UNL     1     -12.242  13.697  65.575  1.00  0.00    -0.443 C  
HETATM   19  C   UNL     1     -13.046  13.846  72.722  1.00  0.00    -0.484 A  
HETATM   20  N   UNL     1     -11.245  13.599  64.631  1.00  0.00    -0.358 N  
HETATM   21  C   UNL     1     -12.882  13.660  71.345  1.00  0.00    -0.442 A  
ENDROOT
BRANCH   6  22
HETATM   22  C   UNL     1      -9.497  17.409  67.907  1.00  0.00    -0.265 A  
HETATM   23  C   UNL     1      -8.187  19.476  67.673  1.00  0.00    -0.332 A  
HETATM   24  C   UNL     1      -7.219  18.896  68.461  1.00  0.00    -0.290 A  
HETATM   25  C   UNL     1      -7.351  17.618  68.947  1.00  0.00    -0.239 A  
HETATM   26  C   UNL     1      -5.540  18.475  69.749  1.00  0.00    -0.230 C  
HETATM   27  C   UNL     1      -8.458  16.844  68.674  1.00  0.00    -0.260 A  
HETATM   28  O   UNL     1      -6.069  19.493  68.875  1.00  0.00    -0.230 OA 
HETATM   29  C   UNL     1      -9.342  18.731  67.409  1.00  0.00    -0.308 A  
HETATM   30  O   UNL     1      -6.303  17.251  69.734  1.00  0.00    -0.235 OA 
ENDBRANCH   6  22
TORSDOF 1
ENDMDL
MODEL        2
REMARK 921   NORMALIZED FREE ENERGY PREDICTED BY IDOCK:   -9.01 KCAL/MOL
REMARK 922        TOTAL FREE ENERGY PREDICTED BY IDOCK:   -9.58 KCAL/MOL
REMARK 923 INTER-LIGAND FREE ENERGY PREDICTED BY IDOCK:   -9.63 KCAL/MOL
REMARK 924 INTRA-LIGAND FREE ENERGY PREDICTED BY IDOCK:    0.05 KCAL/MOL
REMARK 927      BINDING AFFINITY PREDICTED BY RF-SCORE:    0.00 PKD
ROOT
HETATM    1  C   UNL     1      -9.354  17.139  68.599  1.00  0.00    -0.269 C  
HETATM    2  C   UNL     1     -10.486  17.309  69.641  1.00  0.00     0.047 C  
HETATM    3  C   UNL     1     -11.056  15.975  69.975  1.00  0.00    -0.362 A  
HETATM    4  C   UNL     1     -10.862  14.881  69.153  1.00  0.00    -0.250 A  
HETATM    5  N   UNL     1     -11.454  13.800  69.756  1.00  0.00    -0.414 NA 
HETATM    6  C   UNL     1     -10.085  14.846  67.853  1.00  0.00    -0.227 C  
HETATM    7  N   UNL     1      -9.767  16.258  67.475  1.00  0.00    -0.232 N  
HETATM    8  O   UNL     1      -8.358  19.251  69.183  1.00  0.00    -0.283 OA 
HETATM    9  C   UNL     1     -12.097  14.198  70.910  1.00  0.00    -0.344 A  
HETATM   10  H   UNL     1     -11.422  12.843  69.403  1.00  0.00     0.000 HD 
HETATM   11  C   UNL     1     -10.025  16.795  66.226  1.00  0.00    -0.320 C  
HETATM   12  C   UNL     1     -12.870  13.454  71.809  1.00  0.00    -0.385 A  
HETATM   13  C   UNL     1     -11.850  15.561  71.077  1.00  0.00    -0.427 A  
HETATM   14  C   UNL     1     -13.406  14.126  72.912  1.00  0.00    -0.532 A  
HETATM   15  O   UNL     1     -10.588  16.212  65.301  1.00  0.00    -0.459 OA 
HETATM   16  C   UNL     1      -8.399  20.288  66.656  1.00  0.00    -0.235 C  
HETATM   17  C   UNL     1      -9.559  18.221  65.962  1.00  0.00    -0.058 C  
HETATM   18  C   UNL     1      -8.788  18.527  68.283  1.00  0.00    -0.310 C  
HETATM   19  C   UNL     1     -13.168  15.483  73.110  1.00  0.00    -0.657 A  
HETATM   20  N   UNL     1      -8.791  18.926  66.965  1.00  0.00    -0.287 N  
HETATM   21  C   UNL     1     -12.389  16.211  72.204  1.00  0.00    -0.503 A  
ENDROOT
BRANCH   6  22
HETATM   22  C   UNL     1     -10.707  13.967  66.776  1.00  0.00    -0.285 A  
HETATM   23  C   UNL     1     -12.616  13.316  65.371  1.00  0.00    -0.526 A  
HETATM   24  C   UNL     1     -11.745  12.558  64.620  1.00  0.00    -0.359 A  
HETATM   25  C   UNL     1     -10.409  12.474  64.928  1.00  0.00    -0.300 A  
HETATM   26  C   UNL     1     -10.763  11.385  63.099  1.00  0.00    -0.155 C  
HETATM   27  C   UNL     1      -9.864  13.143  66.003  1.00  0.00    -0.266 A  
HETATM   28  O   UNL     1     -12.067  11.848  63.505  1.00  0.00    -0.504 OA 
HETATM   29  C   UNL     1     -12.087  14.039  66.445  1.00  0.00    -0.483 A  
HETATM   30  O   UNL     1      -9.720  11.705  64.042  1.00  0.00    -0.244 OA 
ENDBRANCH   6  22
TORSDOF 1
ENDMDL
MODEL        3
REMARK 921   NORMALIZED FREE ENERGY PREDICTED BY IDOCK:   -8.73 KCAL/MOL
REMARK 922        TOTAL FREE ENERGY PREDICTED BY IDOCK:   -9.29 KCAL/MOL
REMARK 923 INTER-LIGAND FREE ENERGY PREDICTED BY IDOCK:   -9.36 KCAL/MOL
REMARK 924 INTRA-LIGAND FREE ENERGY PREDICTED BY IDOCK:    0.07 KCAL/MOL
REMARK 927      BINDING AFFINITY PREDICTED BY RF-SCORE:    0.00 PKD
ROOT
HETATM    1  C   UNL     1      -9.566  16.994  68.530  1.00  0.00    -0.273 C  
HETATM    2  C   UNL     1     -10.771  17.090  69.498  1.00  0.00    -0.124 C  
HETATM    3  C   UNL     1     -11.265  15.721  69.811  1.00  0.00    -0.330 A  
HETATM    4  C   UNL     1     -10.943  14.638  69.015  1.00  0.00    -0.258 A  
HETATM    5  N   UNL     1     -11.493  13.522  69.591  1.00  0.00    -0.419 NA 
HETATM    6  C   UNL     1     -10.085  14.650  67.766  1.00  0.00    -0.228 C  
HETATM    7  N   UNL     1      -9.845  16.079  67.393  1.00  0.00    -0.234 N  
HETATM    8  O   UNL     1      -8.760  19.176  69.152  1.00  0.00    -0.252 OA 
HETATM    9  C   UNL     1     -12.235  13.881  70.699  1.00  0.00    -0.373 A  
HETATM   10  H   UNL     1     -11.372  12.568  69.252  1.00  0.00     0.000 HD 
HETATM   11  C   UNL     1     -10.060  16.588  66.124  1.00  0.00    -0.348 C  
HETATM   12  C   UNL     1     -13.008  13.089  71.556  1.00  0.00    -0.398 A  
HETATM   13  C   UNL     1     -12.095  15.259  70.866  1.00  0.00    -0.396 A  
HETATM   14  C   UNL     1     -13.658  13.729  72.616  1.00  0.00    -0.617 A  
HETATM   15  O   UNL     1     -10.522  15.960  65.172  1.00  0.00    -0.462 OA 
HETATM   16  C   UNL     1      -8.716  20.191  66.616  1.00  0.00    -0.286 C  
HETATM   17  C   UNL     1      -9.681  18.041  65.874  1.00  0.00     0.018 C  
HETATM   18  C   UNL     1      -9.081  18.417  68.235  1.00  0.00    -0.312 C  
HETATM   19  C   UNL     1     -13.529  15.101  72.814  1.00  0.00    -0.603 A  
HETATM   20  N   UNL     1      -9.030  18.806  66.915  1.00  0.00    -0.288 N  
HETATM   21  C   UNL     1     -12.748  15.877  71.950  1.00  0.00    -0.482 A  
ENDROOT
BRANCH   6  22
HETATM   22  C   UNL     1     -10.574  13.722  66.662  1.00  0.00    -0.274 A  
HETATM   23  C   UNL     1     -12.330  12.952  65.123  1.00  0.00    -0.547 A  
HETATM   24  C   UNL     1     -11.365  12.225  64.462  1.00  0.00    -0.329 A  
HETATM   25  C   UNL     1     -10.056  12.213  64.877  1.00  0.00    -0.254 A  
HETATM   26  C   UNL     1     -10.207  11.075  63.050  1.00  0.00    -0.178 C  
HETATM   27  C   UNL     1      -9.633  12.928  65.977  1.00  0.00    -0.172 A  
HETATM   28  O   UNL     1     -11.561  11.480  63.341  1.00  0.00    -0.363 OA 
HETATM   29  C   UNL     1     -11.925  13.719  66.220  1.00  0.00    -0.462 A  
HETATM   30  O   UNL     1      -9.260  11.464  64.066  1.00  0.00    -0.114 OA 
ENDBRANCH   6  22
TORSDOF 1
ENDMDL
MODEL        4
REMARK 921   NORMALIZED FREE ENERGY PREDICTED BY IDOCK:   -8.50 KCAL/MOL
REMARK 922        TOTAL FREE ENERGY PREDICTED BY IDOCK:   -9.04 KCAL/MOL
REMARK 923 INTER-LIGAND FREE ENERGY PREDICTED BY IDOCK:   -8.98 KCAL/MOL
REMARK 924 INTRA-LIGAND FREE ENERGY PREDICTED BY IDOCK:   -0.06 KCAL/MOL
REMARK 927      BINDING AFFINITY PREDICTED BY RF-SCORE:    0.00 PKD
ROOT
HETATM    1  C   UNL     1     -11.757  15.583  69.654  1.00  0.00    -0.357 C  
HETATM    2  C   UNL     1     -10.288  16.044  69.815  1.00  0.00    -0.265 C  
HETATM    3  C   UNL     1      -9.692  16.275  68.470  1.00  0.00    -0.224 A  
HETATM    4  C   UNL     1     -10.259  15.743  67.328  1.00  0.00    -0.268 A  
HETATM    5  N   UNL     1      -9.520  16.178  66.257  1.00  0.00    -0.291 NA 
HETATM    6  C   UNL     1     -11.507  14.887  67.246  1.00  0.00    -0.340 C  
HETATM    7  N   UNL     1     -11.889  14.504  68.640  1.00  0.00    -0.327 N  
HETATM    8  O   UNL     1     -12.324  16.263  71.893  1.00  0.00    -0.423 OA 
HETATM    9  C   UNL     1      -8.438  16.912  66.699  1.00  0.00    -0.250 A  
HETATM   10  H   UNL     1      -9.739  15.987  65.279  1.00  0.00     0.000 HD 
HETATM   11  C   UNL     1     -12.149  13.204  69.035  1.00  0.00    -0.198 C  
HETATM   12  C   UNL     1      -7.396  17.500  65.972  1.00  0.00    -0.288 A  
HETATM   13  C   UNL     1      -8.532  16.999  68.088  1.00  0.00    -0.227 A  
HETATM   14  C   UNL     1      -6.421  18.199  66.691  1.00  0.00    -0.223 A  
HETATM   15  O   UNL     1     -12.048  12.207  68.321  1.00  0.00    -0.407 OA 
HETATM   16  C   UNL     1     -13.290  13.834  72.686  1.00  0.00    -0.514 C  
HETATM   17  C   UNL     1     -12.618  12.982  70.467  1.00  0.00    -0.147 C  
HETATM   18  C   UNL     1     -12.339  15.361  71.053  1.00  0.00    -0.392 C  
HETATM   19  C   UNL     1      -6.493  18.312  68.077  1.00  0.00    -0.193 A  
HETATM   20  N   UNL     1     -12.866  14.118  71.329  1.00  0.00    -0.340 N  
HETATM   21  C   UNL     1      -7.545  17.721  68.787  1.00  0.00    -0.260 A  
ENDROOT
BRANCH   6  22
HETATM   22  C   UNL     1     -11.429  13.765  66.219  1.00  0.00    -0.349 A  
HETATM   23  C   UNL     1     -12.290  12.610  64.227  1.00  0.00    -0.517 A  
HETATM   24  C   UNL     1     -11.115  11.894  64.192  1.00  0.00    -0.375 A  
HETATM   25  C   UNL     1     -10.130  12.072  65.133  1.00  0.00    -0.266 A  
HETATM   26  C   UNL     1      -9.420  10.672  63.653  1.00  0.00    -0.299 C  
HETATM   27  C   UNL     1     -10.262  12.977  66.164  1.00  0.00    -0.288 A  
HETATM   28  O   UNL     1     -10.770  10.979  63.246  1.00  0.00    -0.271 OA 
HETATM   29  C   UNL     1     -12.438  13.565  65.239  1.00  0.00    -0.525 A  
HETATM   30  O   UNL     1      -9.038  11.295  64.895  1.00  0.00    -0.159 OA 
ENDBRANCH   6  22
TORSDOF 1
ENDMDL
MODEL        5
REMARK 921   NORMALIZED FREE ENERGY PREDICTED BY IDOCK:   -8.24 KCAL/MOL
REMARK 922        TOTAL FREE ENERGY PREDICTED BY IDOCK:   -8.76 KCAL/MOL
REMARK 923 INTER-LIGAND FREE ENERGY PREDICTED BY IDOCK:   -8.81 KCAL/MOL
REMARK 924 INTRA-LIGAND FREE ENERGY PREDICTED BY IDOCK:    0.04 KCAL/MOL
REMARK 927      BINDING AFFINITY PREDICTED BY RF-SCORE:    0.00 PKD
ROOT
HETATM    1  C   UNL     1      -9.816  16.681  68.491  1.00  0.00    -0.252 C  
HETATM    2  C   UNL     1     -11.154  16.709  69.269  1.00  0.00    -0.199 C  
HETATM    3  C   UNL     1     -11.502  15.328  69.705  1.00  0.00    -0.332 A  
HETATM    4  C   UNL     1     -10.923  14.219  69.120  1.00  0.00    -0.261 A  
HETATM    5  N   UNL     1     -11.399  13.110  69.771  1.00  0.00    -0.491 NA 
HETATM    6  C   UNL     1      -9.896  14.210  68.005  1.00  0.00    -0.223 C  
HETATM    7  N   UNL     1      -9.795  15.603  67.468  1.00  0.00    -0.227 N  
HETATM    8  O   UNL     1      -9.411  19.019  68.899  1.00  0.00    -0.367 OA 
HETATM    9  C   UNL     1     -12.340  13.483  70.710  1.00  0.00    -0.363 A  
HETATM   10  H   UNL     1     -11.102  12.151  69.589  1.00  0.00     0.000 HD 
HETATM   11  C   UNL     1      -9.884  15.915  66.123  1.00  0.00    -0.317 C  
HETATM   12  C   UNL     1     -13.121  12.693  71.561  1.00  0.00    -0.373 A  
HETATM   13  C   UNL     1     -12.413  14.876  70.697  1.00  0.00    -0.411 A  
HETATM   14  C   UNL     1     -14.003  13.350  72.426  1.00  0.00    -0.605 A  
HETATM   15  O   UNL     1     -10.109  15.114  65.218  1.00  0.00    -0.348 OA 
HETATM   16  C   UNL     1      -9.121  19.714  66.273  1.00  0.00    -0.376 C  
HETATM   17  C   UNL     1      -9.668  17.369  65.722  1.00  0.00     0.049 C  
HETATM   18  C   UNL     1      -9.487  18.115  68.064  1.00  0.00    -0.285 C  
HETATM   19  C   UNL     1     -14.089  14.739  72.442  1.00  0.00    -0.548 A  
HETATM   20  N   UNL     1      -9.289  18.344  66.721  1.00  0.00    -0.287 N  
HETATM   21  C   UNL     1     -13.298  15.515  71.587  1.00  0.00    -0.585 A  
ENDROOT
BRANCH   6  22
HETATM   22  C   UNL     1     -10.086  13.092  66.989  1.00  0.00    -0.243 A  
HETATM   23  C   UNL     1     -11.484  11.856  65.389  1.00  0.00    -0.310 A  
HETATM   24  C   UNL     1     -10.339  11.239  64.937  1.00  0.00    -0.304 A  
HETATM   25  C   UNL     1      -9.108  11.504  65.487  1.00  0.00    -0.090 A  
HETATM   26  C   UNL     1      -8.841  10.158  63.822  1.00  0.00    -0.229 C  
HETATM   27  C   UNL     1      -8.949  12.402  66.520  1.00  0.00    -0.145 A  
HETATM   28  O   UNL     1     -10.268  10.349  63.910  1.00  0.00    -0.243 OA 
HETATM   29  C   UNL     1     -11.351  12.801  66.411  1.00  0.00    -0.369 A  
HETATM   30  O   UNL     1      -8.106  10.819  64.871  1.00  0.00    -0.075 OA 
ENDBRANCH   6  22
TORSDOF 1
ENDMDL
MODEL        6
REMARK 921   NORMALIZED FREE ENERGY PREDICTED BY IDOCK:   -8.05 KCAL/MOL
REMARK 922        TOTAL FREE ENERGY PREDICTED BY IDOCK:   -8.57 KCAL/MOL
REMARK 923 INTER-LIGAND FREE ENERGY PREDICTED BY IDOCK:   -8.49 KCAL/MOL
REMARK 924 INTRA-LIGAND FREE ENERGY PREDICTED BY IDOCK:   -0.08 KCAL/MOL
REMARK 927      BINDING AFFINITY PREDICTED BY RF-SCORE:    0.00 PKD
ROOT
HETATM    1  C   UNL     1      -9.338  16.619  66.804  1.00  0.00    -0.244 C  
HETATM    2  C   UNL     1      -9.204  15.416  65.840  1.00  0.00    -0.274 C  
HETATM    3  C   UNL     1     -10.479  14.645  65.829  1.00  0.00    -0.338 A  
HETATM    4  C   UNL     1     -11.412  14.781  66.839  1.00  0.00    -0.347 A  
HETATM    5  N   UNL     1     -12.488  13.995  66.517  1.00  0.00    -0.512 NA 
HETATM    6  C   UNL     1     -11.312  15.680  68.055  1.00  0.00    -0.324 C  
HETATM    7  N   UNL     1      -9.917  16.216  68.112  1.00  0.00    -0.227 N  
HETATM    8  O   UNL     1      -7.547  17.814  65.726  1.00  0.00    -0.536 OA 
HETATM    9  C   UNL     1     -12.227  13.290  65.359  1.00  0.00    -0.456 A  
HETATM   10  H   UNL     1     -13.354  13.939  67.054  1.00  0.00     0.000 HD 
HETATM   11  C   UNL     1      -9.120  16.164  69.242  1.00  0.00    -0.213 C  
HETATM   12  C   UNL     1     -13.006  12.337  64.694  1.00  0.00     0.015 A  
HETATM   13  C   UNL     1     -10.973  13.693  64.899  1.00  0.00    -0.372 A  
HETATM   14  C   UNL     1     -12.485  11.780  63.521  1.00  0.00    -0.504 A  
HETATM   15  O   UNL     1      -9.426  15.629  70.307  1.00  0.00     0.092 OA 
HETATM   16  C   UNL     1      -6.053  18.174  67.984  1.00  0.00    -0.172 C  
HETATM   17  C   UNL     1      -7.755  16.835  69.173  1.00  0.00    -0.165 C  
HETATM   18  C   UNL     1      -8.014  17.390  66.785  1.00  0.00    -0.244 C  
HETATM   19  C   UNL     1     -11.241  12.170  63.033  1.00  0.00    -0.045 A  
HETATM   20  N   UNL     1      -7.375  17.578  67.990  1.00  0.00    -0.203 N  
HETATM   21  C   UNL     1     -10.477  13.128  63.709  1.00  0.00     0.051 A  
ENDROOT
BRANCH   6  22
HETATM   22  C   UNL     1     -11.868  15.066  69.333  1.00  0.00    -0.358 A  
HETATM   23  C   UNL     1     -13.176  15.236  71.408  1.00  0.00    -0.555 A  
HETATM   24  C   UNL     1     -13.109  13.864  71.507  1.00  0.00    -0.365 A  
HETATM   25  C   UNL     1     -12.436  13.104  70.581  1.00  0.00    -0.286 A  
HETATM   26  C   UNL     1     -13.396  11.781  71.991  1.00  0.00    -0.312 C  
HETATM   27  C   UNL     1     -11.792  13.669  69.503  1.00  0.00    -0.394 A  
HETATM   28  O   UNL     1     -13.700  13.107  72.470  1.00  0.00    -0.610 OA 
HETATM   29  C   UNL     1     -12.565  15.837  70.302  1.00  0.00    -0.226 A  
HETATM   30  O   UNL     1     -12.524  11.771  70.843  1.00  0.00    -0.372 OA 
ENDBRANCH   6  22
TORSDOF 1
ENDMDL
MODEL        7
REMARK 921   NORMALIZED FREE ENERGY PREDICTED BY IDOCK:   -7.90 KCAL/MOL
REMARK 922        TOTAL FREE ENERGY PREDICTED BY IDOCK:   -8.41 KCAL/MOL
REMARK 923 INTER-LIGAND FREE ENERGY PREDICTED BY IDOCK:   -8.43 KCAL/MOL
REMARK 924 INTRA-LIGAND FREE ENERGY PREDICTED BY IDOCK:    0.02 KCAL/MOL
REMARK 927      BINDING AFFINITY PREDICTED BY RF-SCORE:    0.00 PKD
ROOT
HETATM    1  C   UNL     1     -10.482  12.028  67.486  1.00  0.00    -0.212 C  
HETATM    2  C   UNL     1     -11.028  11.883  68.927  1.00  0.00    -0.285 C  
HETATM    3  C   UNL     1     -11.536  13.202  69.398  1.00  0.00    -0.360 A  
HETATM    4  C   UNL     1     -11.163  14.380  68.781  1.00  0.00    -0.260 A  
HETATM    5  N   UNL     1     -11.835  15.403  69.401  1.00  0.00    -0.348 NA 
HETATM    6  C   UNL     1     -10.233  14.532  67.594  1.00  0.00    -0.225 C  
HETATM    7  N   UNL     1      -9.586  13.206  67.351  1.00  0.00    -0.213 N  
HETATM    8  O   UNL     1     -10.717   9.671  67.051  1.00  0.00    -0.230 OA 
HETATM    9  C   UNL     1     -12.570  14.910  70.460  1.00  0.00    -0.360 A  
HETATM   10  H   UNL     1     -11.798  16.383  69.120  1.00  0.00     0.000 HD 
HETATM   11  C   UNL     1      -8.220  13.032  67.214  1.00  0.00    -0.172 C  
HETATM   12  C   UNL     1     -13.358  15.587  71.398  1.00  0.00    -0.592 A  
HETATM   13  C   UNL     1     -12.409  13.524  70.471  1.00  0.00    -0.412 A  
HETATM   14  C   UNL     1     -14.002  14.821  72.375  1.00  0.00    -0.575 A  
HETATM   15  O   UNL     1      -7.373  13.917  67.329  1.00  0.00    -0.146 OA 
HETATM   16  C   UNL     1      -8.116   9.260  66.324  1.00  0.00    -0.107 C  
HETATM   17  C   UNL     1      -7.717  11.634  66.877  1.00  0.00    -0.147 C  
HETATM   18  C   UNL     1      -9.974  10.655  67.033  1.00  0.00    -0.202 C  
HETATM   19  C   UNL     1     -13.868  13.436  72.404  1.00  0.00    -0.665 A  
HETATM   20  N   UNL     1      -8.664  10.571  66.618  1.00  0.00    -0.132 N  
HETATM   21  C   UNL     1     -13.079  12.774  71.456  1.00  0.00    -0.380 A  
ENDROOT
BRANCH   6  22
HETATM   22  C   UNL     1      -9.315  15.744  67.669  1.00  0.00    -0.216 A  
HETATM   23  C   UNL     1      -7.691  17.139  68.879  1.00  0.00    -0.230 A  
HETATM   24  C   UNL     1      -7.435  17.788  67.692  1.00  0.00    -0.201 A  
HETATM   25  C   UNL     1      -8.095  17.462  66.531  1.00  0.00    -0.277 A  
HETATM   26  C   UNL     1      -6.610  18.960  66.080  1.00  0.00    -0.232 C  
HETATM   27  C   UNL     1      -9.049  16.468  66.489  1.00  0.00    -0.307 A  
HETATM   28  O   UNL     1      -6.514  18.772  67.506  1.00  0.00    -0.195 OA 
HETATM   29  C   UNL     1      -8.626  16.098  68.861  1.00  0.00    -0.245 A  
HETATM   30  O   UNL     1      -7.668  18.196  65.468  1.00  0.00    -0.507 OA 
ENDBRANCH   6  22
TORSDOF 1
ENDMDL
MODEL        8
REMARK 921   NORMALIZED FREE ENERGY PREDICTED BY IDOCK:   -7.74 KCAL/MOL
REMARK 922        TOTAL FREE ENERGY PREDICTED BY IDOCK:   -8.24 KCAL/MOL
REMARK 923 INTER-LIGAND FREE ENERGY PREDICTED BY IDOCK:   -8.31 KCAL/MOL
REMARK 924 INTRA-LIGAND FREE ENERGY PREDICTED BY IDOCK:    0.07 KCAL/MOL
REMARK 927      BINDING AFFINITY PREDICTED BY RF-SCORE:    0.00 PKD
ROOT
HETATM    1  C   UNL     1     -10.812  11.993  67.518  1.00  0.00    -0.241 C  
HETATM    2  C   UNL     1     -11.145  11.950  69.029  1.00  0.00    -0.300 C  
HETATM    3  C   UNL     1     -11.771  13.239  69.434  1.00  0.00    -0.383 A  
HETATM    4  C   UNL     1     -11.652  14.375  68.658  1.00  0.00    -0.314 A  
HETATM    5  N   UNL     1     -12.379  15.369  69.262  1.00  0.00    -0.606 NA 
HETATM    6  C   UNL     1     -10.911  14.504  67.341  1.00  0.00    -0.303 C  
HETATM    7  N   UNL     1     -10.117  13.252  67.142  1.00  0.00    -0.237 N  
HETATM    8  O   UNL     1     -10.762   9.591  67.356  1.00  0.00    -0.279 OA 
HETATM    9  C   UNL     1     -12.895  14.914  70.459  1.00  0.00    -0.326 A  
HETATM   10  H   UNL     1     -12.517  16.306  68.883  1.00  0.00     0.000 HD 
HETATM   11  C   UNL     1      -8.769  13.240  66.830  1.00  0.00    -0.142 C  
HETATM   12  C   UNL     1     -13.646  15.590  71.427  1.00  0.00    -0.561 A  
HETATM   13  C   UNL     1     -12.538  13.571  70.583  1.00  0.00    -0.345 A  
HETATM   14  C   UNL     1     -14.045  14.867  72.557  1.00  0.00    -0.478 A  
HETATM   15  O   UNL     1      -8.049  14.233  66.736  1.00  0.00    -0.020 OA 
HETATM   16  C   UNL     1      -8.242   9.434  66.312  1.00  0.00    -0.111 C  
HETATM   17  C   UNL     1      -8.119  11.888  66.565  1.00  0.00     0.006 C  
HETATM   18  C   UNL     1     -10.175  10.653  67.136  1.00  0.00    -0.216 C  
HETATM   19  C   UNL     1     -13.712  13.524  72.703  1.00  0.00    -0.533 A  
HETATM   20  N   UNL     1      -8.930  10.689  66.549  1.00  0.00    -0.153 N  
HETATM   21  C   UNL     1     -12.963  12.862  71.723  1.00  0.00    -0.416 A  
ENDROOT
BRANCH   6  22
HETATM   22  C   UNL     1     -10.173  15.825  67.166  1.00  0.00    -0.279 A  
HETATM   23  C   UNL     1      -9.828  17.954  65.987  1.00  0.00    -0.180 A  
HETATM   24  C   UNL     1      -9.019  18.346  67.030  1.00  0.00    -0.275 A  
HETATM   25  C   UNL     1      -8.765  17.521  68.099  1.00  0.00    -0.262 A  
HETATM   26  C   UNL     1      -7.831  19.431  68.467  1.00  0.00    -0.354 C  
HETATM   27  C   UNL     1      -9.304  16.256  68.188  1.00  0.00    -0.210 A  
HETATM   28  O   UNL     1      -8.417  19.559  67.156  1.00  0.00    -0.279 OA 
HETATM   29  C   UNL     1     -10.422  16.690  66.066  1.00  0.00    -0.306 A  
HETATM   30  O   UNL     1      -7.974  18.113  69.035  1.00  0.00    -0.205 OA 
ENDBRANCH   6  22
TORSDOF 1
ENDMDL
MODEL        9
REMARK 921   NORMALIZED FREE ENERGY PREDICTED BY IDOCK:   -7.72 KCAL/MOL
REMARK 922        TOTAL FREE ENERGY PREDICTED BY IDOCK:   -8.22 KCAL/MOL
REMARK 923 INTER-LIGAND FREE ENERGY PREDICTED BY IDOCK:   -8.33 KCAL/MOL
REMARK 924 INTRA-LIGAND FREE ENERGY PREDICTED BY IDOCK:    0.11 KCAL/MOL
REMARK 927      BINDING AFFINITY PREDICTED BY RF-SCORE:    0.00 PKD
ROOT
HETATM    1  C   UNL     1     -10.876  10.517  69.196  1.00  0.00    -0.237 C  
HETATM    2  C   UNL     1     -11.532  10.603  67.797  1.00  0.00    -0.219 C  
HETATM    3  C   UNL     1     -11.633  12.031  67.385  1.00  0.00    -0.388 A  
HETATM    4  C   UNL     1     -11.539  13.056  68.307  1.00  0.00    -0.340 A  
HETATM    5  N   UNL     1     -11.610  14.240  67.619  1.00  0.00    -0.348 NA 
HETATM    6  C   UNL     1     -11.329  12.919  69.802  1.00  0.00    -0.037 C  
HETATM    7  N   UNL     1     -11.489  11.474  70.153  1.00  0.00    -0.232 N  
HETATM    8  O   UNL     1     -10.206   8.229  68.854  1.00  0.00    -0.202 OA 
HETATM    9  C   UNL     1     -11.833  13.993  66.279  1.00  0.00    -0.411 A  
HETATM   10  H   UNL     1     -11.513  15.166  68.035  1.00  0.00     0.000 HD 
HETATM   11  C   UNL     1     -12.312  11.017  71.168  1.00  0.00    -0.359 C  
HETATM   12  C   UNL     1     -12.027  14.890  65.222  1.00  0.00    -0.168 A  
HETATM   13  C   UNL     1     -11.837  12.609  66.105  1.00  0.00    -0.477 A  
HETATM   14  C   UNL     1     -12.230  14.352  63.947  1.00  0.00    -0.178 A  
HETATM   15  O   UNL     1     -13.048  11.718  71.860  1.00  0.00    -0.468 OA 
HETATM   16  C   UNL     1     -11.429   7.243  71.089  1.00  0.00    -0.283 C  
HETATM   17  C   UNL     1     -12.297   9.524  71.468  1.00  0.00    -0.380 C  
HETATM   18  C   UNL     1     -10.783   9.037  69.584  1.00  0.00    -0.219 C  
HETATM   19  C   UNL     1     -12.229  12.975  63.740  1.00  0.00    -0.536 A  
HETATM   20  N   UNL     1     -11.374   8.656  70.769  1.00  0.00    -0.263 N  
HETATM   21  C   UNL     1     -12.030  12.093  64.809  1.00  0.00    -0.377 A  
ENDROOT
BRANCH   6  22
HETATM   22  C   UNL     1     -12.113  13.923  70.637  1.00  0.00    -0.417 A  
HETATM   23  C   UNL     1     -14.236  14.946  71.334  1.00  0.00    -0.558 A  
HETATM   24  C   UNL     1     -13.553  15.550  72.366  1.00  0.00    -0.538 A  
HETATM   25  C   UNL     1     -12.200  15.380  72.535  1.00  0.00    -0.404 A  
HETATM   26  C   UNL     1     -12.955  16.559  74.177  1.00  0.00     0.122 C  
HETATM   27  C   UNL     1     -11.451  14.597  71.684  1.00  0.00    -0.015 A  
HETATM   28  O   UNL     1     -14.103  16.333  73.333  1.00  0.00    -0.404 OA 
HETATM   29  C   UNL     1     -13.512  14.113  70.475  1.00  0.00     0.249 A  
HETATM   30  O   UNL     1     -11.729  16.030  73.634  1.00  0.00    -0.245 OA 
ENDBRANCH   6  22
TORSDOF 1
ENDMDL
MODEL       10
REMARK 921   NORMALIZED FREE ENERGY PREDICTED BY IDOCK:   -7.54 KCAL/MOL
REMARK 922        TOTAL FREE ENERGY PREDICTED BY IDOCK:   -8.03 KCAL/MOL
REMARK 923 INTER-LIGAND FREE ENERGY PREDICTED BY IDOCK:   -7.94 KCAL/MOL
REMARK 924 INTRA-LIGAND FREE ENERGY PREDICTED BY IDOCK:   -0.09 KCAL/MOL
REMARK 927      BINDING AFFINITY PREDICTED BY RF-SCORE:    0.00 PKD
ROOT
HETATM    1  C   UNL     1     -10.710  13.767  67.140  1.00  0.00    -0.281 C  
HETATM    2  C   UNL     1      -9.352  13.061  67.364  1.00  0.00    -0.209 C  
HETATM    3  C   UNL     1      -8.523  13.868  68.303  1.00  0.00    -0.169 A  
HETATM    4  C   UNL     1      -8.800  15.199  68.547  1.00  0.00    -0.185 A  
HETATM    5  N   UNL     1      -7.906  15.642  69.488  1.00  0.00    -0.217 NA 
HETATM    6  C   UNL     1      -9.923  16.020  67.946  1.00  0.00    -0.233 C  
HETATM    7  N   UNL     1     -10.538  15.214  66.846  1.00  0.00    -0.291 N  
HETATM    8  O   UNL     1     -11.772  11.726  66.430  1.00  0.00    -0.511 OA 
HETATM    9  C   UNL     1      -7.006  14.641  69.791  1.00  0.00    -0.130 A  
HETATM   10  H   UNL     1      -7.907  16.574  69.903  1.00  0.00     0.000 HD 
HETATM   11  C   UNL     1     -10.751  15.697  65.567  1.00  0.00    -0.389 C  
HETATM   12  C   UNL     1      -5.899  14.658  70.647  1.00  0.00    -0.167 A  
HETATM   13  C   UNL     1      -7.382  13.509  69.067  1.00  0.00     0.004 A  
HETATM   14  C   UNL     1      -5.154  13.480  70.765  1.00  0.00    -0.115 A  
HETATM   15  O   UNL     1     -10.419  16.809  65.159  1.00  0.00    -0.658 OA 
HETATM   16  C   UNL     1     -12.649  12.686  64.028  1.00  0.00    -0.338 C  
HETATM   17  C   UNL     1     -11.473  14.787  64.581  1.00  0.00    -0.381 C  
HETATM   18  C   UNL     1     -11.536  12.909  66.176  1.00  0.00    -0.372 C  
HETATM   19  C   UNL     1      -5.511  12.332  70.063  1.00  0.00    -0.111 A  
HETATM   20  N   UNL     1     -11.991  13.511  65.024  1.00  0.00    -0.354 N  
HETATM   21  C   UNL     1      -6.624  12.331  69.215  1.00  0.00    -0.099 A  
ENDROOT
BRANCH   6  22
HETATM   22  C   UNL     1      -9.539  17.457  67.616  1.00  0.00    -0.261 A  
HETATM   23  C   UNL     1     -10.029  19.866  67.613  1.00  0.00    -0.553 A  
HETATM   24  C   UNL     1      -8.713  20.085  67.275  1.00  0.00    -0.343 A  
HETATM   25  C   UNL     1      -7.831  19.048  67.088  1.00  0.00    -0.246 A  
HETATM   26  C   UNL     1      -6.753  20.909  66.904  1.00  0.00    -0.316 C  
HETATM   27  C   UNL     1      -8.212  17.732  67.229  1.00  0.00    -0.226 A  
HETATM   28  O   UNL     1      -8.124  21.302  67.120  1.00  0.00    -0.156 OA 
HETATM   29  C   UNL     1     -10.439  18.541  67.801  1.00  0.00    -0.443 A  
HETATM   30  O   UNL     1      -6.574  19.482  66.798  1.00  0.00    -0.193 OA 
ENDBRANCH   6  22
TORSDOF 1
ENDMDL
MODEL       11
REMARK 921   NORMALIZED FREE ENERGY PREDICTED BY IDOCK:   -7.36 KCAL/MOL
REMARK 922        TOTAL FREE ENERGY PREDICTED BY IDOCK:   -7.84 KCAL/MOL
REMARK 923 INTER-LIGAND FREE ENERGY PREDICTED BY IDOCK:   -7.78 KCAL/MOL
REMARK 924 INTRA-LIGAND FREE ENERGY PREDICTED BY IDOCK:   -0.06 KCAL/MOL
REMARK 927      BINDING AFFINITY PREDICTED BY RF-SCORE:    0.00 PKD
ROOT
HETATM    1  C   UNL     1     -10.702  12.643  67.469  1.00  0.00    -0.225 C  
HETATM    2  C   UNL     1     -11.868  12.246  68.406  1.00  0.00    -0.358 C  
HETATM    3  C   UNL     1     -11.496  11.022  69.169  1.00  0.00    -0.370 A  
HETATM    4  C   UNL     1     -10.467  10.200  68.754  1.00  0.00    -0.204 A  
HETATM    5  N   UNL     1     -10.332   9.202  69.686  1.00  0.00    -0.211 NA 
HETATM    6  C   UNL     1      -9.590  10.384  67.531  1.00  0.00    -0.156 C  
HETATM    7  N   UNL     1     -10.188  11.478  66.704  1.00  0.00    -0.213 N  
HETATM    8  O   UNL     1     -11.468  14.921  67.312  1.00  0.00    -0.346 OA 
HETATM    9  C   UNL     1     -11.314   9.322  70.649  1.00  0.00    -0.275 A  
HETATM   10  H   UNL     1      -9.614   8.478  69.669  1.00  0.00     0.000 HD 
HETATM   11  C   UNL     1     -10.448  11.361  65.350  1.00  0.00    -0.280 C  
HETATM   12  C   UNL     1     -11.595   8.505  71.750  1.00  0.00    -0.380 A  
HETATM   13  C   UNL     1     -12.051  10.469  70.353  1.00  0.00    -0.418 A  
HETATM   14  C   UNL     1     -12.664   8.876  72.574  1.00  0.00    -0.382 A  
HETATM   15  O   UNL     1     -10.280  10.346  64.676  1.00  0.00    -0.346 OA 
HETATM   16  C   UNL     1     -11.613  14.979  64.585  1.00  0.00    -0.386 C  
HETATM   17  C   UNL     1     -10.971  12.594  64.625  1.00  0.00    -0.313 C  
HETATM   18  C   UNL     1     -11.117  13.906  66.707  1.00  0.00    -0.303 C  
HETATM   19  C   UNL     1     -13.410  10.020  72.309  1.00  0.00    -0.387 A  
HETATM   20  N   UNL     1     -11.087  13.852  65.331  1.00  0.00    -0.302 N  
HETATM   21  C   UNL     1     -13.112  10.828  71.206  1.00  0.00    -0.427 A  
ENDROOT
BRANCH   6  22
HETATM   22  C   UNL     1      -9.240   9.088  66.812  1.00  0.00    -0.198 A  
HETATM   23  C   UNL     1      -7.626   7.643  65.650  1.00  0.00    -0.090 A  
HETATM   24  C   UNL     1      -8.537   6.616  65.761  1.00  0.00    -0.140 A  
HETATM   25  C   UNL     1      -9.765   6.798  66.349  1.00  0.00    -0.064 A  
HETATM   26  C   UNL     1      -9.553   4.714  65.833  1.00  0.00    -0.185 C  
HETATM   27  C   UNL     1     -10.155   8.017  66.862  1.00  0.00    -0.362 A  
HETATM   28  O   UNL     1      -8.343   5.334  65.352  1.00  0.00    -0.123 OA 
HETATM   29  C   UNL     1      -7.976   8.882  66.197  1.00  0.00    -0.106 A  
HETATM   30  O   UNL     1     -10.497   5.651  66.390  1.00  0.00    -0.229 OA 
ENDBRANCH   6  22
TORSDOF 1
ENDMDL
MODEL       12
REMARK 921   NORMALIZED FREE ENERGY PREDICTED BY IDOCK:   -7.35 KCAL/MOL
REMARK 922        TOTAL FREE ENERGY PREDICTED BY IDOCK:   -7.83 KCAL/MOL
REMARK 923 INTER-LIGAND FREE ENERGY PREDICTED BY IDOCK:   -7.71 KCAL/MOL
REMARK 924 INTRA-LIGAND FREE ENERGY PREDICTED BY IDOCK:   -0.12 KCAL/MOL
REMARK 927      BINDING AFFINITY PREDICTED BY RF-SCORE:    0.00 PKD
ROOT
HETATM    1  C   UNL     1     -10.919  12.558  67.290  1.00  0.00    -0.261 C  
HETATM    2  C   UNL     1     -12.007  11.995  68.235  1.00  0.00    -0.244 C  
HETATM    3  C   UNL     1     -11.445  10.855  69.013  1.00  0.00    -0.371 A  
HETATM    4  C   UNL     1     -10.299  10.200  68.606  1.00  0.00    -0.188 A  
HETATM    5  N   UNL     1     -10.008   9.249  69.550  1.00  0.00    -0.179 NA 
HETATM    6  C   UNL     1      -9.464  10.504  67.378  1.00  0.00    -0.153 C  
HETATM    7  N   UNL     1     -10.227  11.479  66.539  1.00  0.00    -0.212 N  
HETATM    8  O   UNL     1     -12.036  14.684  67.105  1.00  0.00    -0.391 OA 
HETATM    9  C   UNL     1     -10.996   9.225  70.515  1.00  0.00    -0.265 A  
HETATM   10  H   UNL     1      -9.184   8.648  69.541  1.00  0.00     0.000 HD 
HETATM   11  C   UNL     1     -10.467  11.304  65.187  1.00  0.00    -0.291 C  
HETATM   12  C   UNL     1     -11.143   8.389  71.627  1.00  0.00    -0.344 A  
HETATM   13  C   UNL     1     -11.905  10.237  70.206  1.00  0.00    -0.372 A  
HETATM   14  C   UNL     1     -12.256   8.597  72.449  1.00  0.00    -0.419 A  
HETATM   15  O   UNL     1     -10.141  10.320  64.525  1.00  0.00    -0.338 OA 
HETATM   16  C   UNL     1     -12.190  14.682  64.377  1.00  0.00    -0.452 C  
HETATM   17  C   UNL     1     -11.179  12.429  64.447  1.00  0.00    -0.332 C  
HETATM   18  C   UNL     1     -11.529  13.729  66.512  1.00  0.00    -0.348 C  
HETATM   19  C   UNL     1     -13.175   9.605  72.172  1.00  0.00    -0.535 A  
HETATM   20  N   UNL     1     -11.492  13.662  65.137  1.00  0.00    -0.309 N  
HETATM   21  C   UNL     1     -13.009  10.435  71.057  1.00  0.00    -0.490 A  
ENDROOT
BRANCH   6  22
HETATM   22  C   UNL     1      -8.914   9.271  66.675  1.00  0.00    -0.165 A  
HETATM   23  C   UNL     1      -7.057   8.033  65.643  1.00  0.00    -0.063 A  
HETATM   24  C   UNL     1      -7.858   6.913  65.657  1.00  0.00    -0.109 A  
HETATM   25  C   UNL     1      -9.145   6.950  66.134  1.00  0.00    -0.113 A  
HETATM   26  C   UNL     1      -8.664   4.912  65.610  1.00  0.00    -0.135 C  
HETATM   27  C   UNL     1      -9.708   8.107  66.628  1.00  0.00    -0.318 A  
HETATM   28  O   UNL     1      -7.490   5.669  65.249  1.00  0.00    -0.070 OA 
HETATM   29  C   UNL     1      -7.585   9.215  66.173  1.00  0.00    -0.095 A  
HETATM   30  O   UNL     1      -9.749   5.731  66.093  1.00  0.00    -0.146 OA 
ENDBRANCH   6  22
TORSDOF 1
ENDMDL
MODEL       13
REMARK 921   NORMALIZED FREE ENERGY PREDICTED BY IDOCK:   -7.33 KCAL/MOL
REMARK 922        TOTAL FREE ENERGY PREDICTED BY IDOCK:   -7.80 KCAL/MOL
REMARK 923 INTER-LIGAND FREE ENERGY PREDICTED BY IDOCK:   -7.93 KCAL/MOL
REMARK 924 INTRA-LIGAND FREE ENERGY PREDICTED BY IDOCK:    0.13 KCAL/MOL
REMARK 927      BINDING AFFINITY PREDICTED BY RF-SCORE:    0.00 PKD
ROOT
HETATM    1  C   UNL     1     -12.376  15.133  69.357  1.00  0.00    -0.130 C  
HETATM    2  C   UNL     1     -11.406  16.290  69.695  1.00  0.00    -0.266 C  
HETATM    3  C   UNL     1     -10.593  16.622  68.492  1.00  0.00    -0.338 A  
HETATM    4  C   UNL     1     -10.471  15.737  67.438  1.00  0.00    -0.297 A  
HETATM    5  N   UNL     1      -9.716  16.348  66.469  1.00  0.00    -0.254 NA 
HETATM    6  C   UNL     1     -11.103  14.364  67.324  1.00  0.00    -0.311 C  
HETATM    7  N   UNL     1     -11.683  14.019  68.659  1.00  0.00    -0.332 N  
HETATM    8  O   UNL     1     -13.854  15.706  71.169  1.00  0.00    -0.583 OA 
HETATM    9  C   UNL     1      -9.279  17.578  66.919  1.00  0.00    -0.265 A  
HETATM   10  H   UNL     1      -9.507  15.952  65.553  1.00  0.00     0.000 HD 
HETATM   11  C   UNL     1     -11.437  12.827  69.317  1.00  0.00    -0.289 C  
HETATM   12  C   UNL     1      -8.447  18.517  66.298  1.00  0.00    -0.227 A  
HETATM   13  C   UNL     1      -9.830  17.779  68.185  1.00  0.00    -0.326 A  
HETATM   14  C   UNL     1      -8.171  19.698  66.995  1.00  0.00    -0.319 A  
HETATM   15  O   UNL     1     -10.680  11.939  68.928  1.00  0.00    -0.221 OA 
HETATM   16  C   UNL     1     -13.813  13.244  72.353  1.00  0.00    -0.529 C  
HETATM   17  C   UNL     1     -12.175  12.580  70.627  1.00  0.00    -0.276 C  
HETATM   18  C   UNL     1     -13.198  14.823  70.612  1.00  0.00    -0.244 C  
HETATM   19  C   UNL     1      -8.714  19.930  68.256  1.00  0.00    -0.263 A  
HETATM   20  N   UNL     1     -13.164  13.531  71.088  1.00  0.00    -0.207 N  
HETATM   21  C   UNL     1      -9.548  18.983  68.860  1.00  0.00    -0.417 A  
ENDROOT
BRANCH   6  22
HETATM   22  C   UNL     1     -10.211  13.318  66.668  1.00  0.00    -0.265 A  
HETATM   23  C   UNL     1      -8.126  12.018  66.585  1.00  0.00    -0.023 A  
HETATM   24  C   UNL     1      -8.720  11.215  65.636  1.00  0.00    -0.122 A  
HETATM   25  C   UNL     1      -9.998  11.447  65.190  1.00  0.00    -0.264 A  
HETATM   26  C   UNL     1      -9.269   9.634  64.275  1.00  0.00    -0.178 C  
HETATM   27  C   UNL     1     -10.759  12.494  65.665  1.00  0.00    -0.297 A  
HETATM   28  O   UNL     1      -8.161  10.116  65.063  1.00  0.00    -0.141 OA 
HETATM   29  C   UNL     1      -8.886  13.066  67.115  1.00  0.00    -0.218 A  
HETATM   30  O   UNL     1     -10.408  10.518  64.283  1.00  0.00    -0.332 OA 
ENDBRANCH   6  22
TORSDOF 1
ENDMDL
MODEL       14
REMARK 921   NORMALIZED FREE ENERGY PREDICTED BY IDOCK:   -7.24 KCAL/MOL
REMARK 922        TOTAL FREE ENERGY PREDICTED BY IDOCK:   -7.72 KCAL/MOL
REMARK 923 INTER-LIGAND FREE ENERGY PREDICTED BY IDOCK:   -7.59 KCAL/MOL
REMARK 924 INTRA-LIGAND FREE ENERGY PREDICTED BY IDOCK:   -0.12 KCAL/MOL
REMARK 927      BINDING AFFINITY PREDICTED BY RF-SCORE:    0.00 PKD
ROOT
HETATM    1  C   UNL     1     -12.157   8.998  70.592  1.00  0.00    -0.036 C  
HETATM    2  C   UNL     1     -12.455  10.179  71.547  1.00  0.00    -0.526 C  
HETATM    3  C   UNL     1     -12.248  11.464  70.824  1.00  0.00    -0.475 A  
HETATM    4  C   UNL     1     -11.511  11.525  69.657  1.00  0.00    -0.301 A  
HETATM    5  N   UNL     1     -11.553  12.820  69.207  1.00  0.00    -0.300 NA 
HETATM    6  C   UNL     1     -10.828  10.371  68.951  1.00  0.00    -0.236 C  
HETATM    7  N   UNL     1     -10.875   9.187  69.864  1.00  0.00    -0.232 N  
HETATM    8  O   UNL     1     -13.466   7.467  71.912  1.00  0.00    -0.308 OA 
HETATM    9  C   UNL     1     -12.235  13.610  70.110  1.00  0.00    -0.342 A  
HETATM   10  H   UNL     1     -11.141  13.150  68.334  1.00  0.00     0.000 HD 
HETATM   11  C   UNL     1      -9.767   8.425  70.191  1.00  0.00    -0.173 C  
HETATM   12  C   UNL     1     -12.475  14.989  70.094  1.00  0.00    -0.356 A  
HETATM   13  C   UNL     1     -12.694  12.777  71.130  1.00  0.00    -0.355 A  
HETATM   14  C   UNL     1     -13.210  15.531  71.154  1.00  0.00    -0.576 A  
HETATM   15  O   UNL     1      -8.614   8.650  69.827  1.00  0.00    -0.125 OA 
HETATM   16  C   UNL     1     -11.472   5.636  72.276  1.00  0.00    -0.217 C  
HETATM   17  C   UNL     1      -9.990   7.194  71.059  1.00  0.00    -0.188 C  
HETATM   18  C   UNL     1     -12.384   7.695  71.366  1.00  0.00    -0.333 C  
HETATM   19  C   UNL     1     -13.690  14.722  72.181  1.00  0.00    -0.543 A  
HETATM   20  N   UNL     1     -11.334   6.806  71.430  1.00  0.00    -0.266 N  
HETATM   21  C   UNL     1     -13.444  13.344  72.179  1.00  0.00    -0.646 A  
ENDROOT
BRANCH   6  22
HETATM   22  C   UNL     1      -9.475  10.721  68.345  1.00  0.00    -0.174 A  
HETATM   23  C   UNL     1      -7.909  10.742  66.451  1.00  0.00    -0.148 A  
HETATM   24  C   UNL     1      -7.124  11.616  67.170  1.00  0.00    -0.143 A  
HETATM   25  C   UNL     1      -7.468  12.024  68.436  1.00  0.00    -0.110 A  
HETATM   26  C   UNL     1      -5.684  13.078  67.835  1.00  0.00    -0.126 C  
HETATM   27  C   UNL     1      -8.617  11.584  69.057  1.00  0.00     0.120 A  
HETATM   28  O   UNL     1      -5.973  12.193  66.733  1.00  0.00    -0.241 OA 
HETATM   29  C   UNL     1      -9.101  10.307  67.038  1.00  0.00    -0.154 A  
HETATM   30  O   UNL     1      -6.579  12.915  68.953  1.00  0.00    -0.084 OA 
ENDBRANCH   6  22
TORSDOF 1
ENDMDL
MODEL       15
REMARK 921   NORMALIZED FREE ENERGY PREDICTED BY IDOCK:   -7.19 KCAL/MOL
REMARK 922        TOTAL FREE ENERGY PREDICTED BY IDOCK:   -7.65 KCAL/MOL
REMARK 923 INTER-LIGAND FREE ENERGY PREDICTED BY IDOCK:   -7.68 KCAL/MOL
REMARK 924 INTRA-LIGAND FREE ENERGY PREDICTED BY IDOCK:    0.02 KCAL/MOL
REMARK 927      BINDING AFFINITY PREDICTED BY RF-SCORE:    0.00 PKD
ROOT
HETATM    1  C   UNL     1     -12.250   8.997  70.597  1.00  0.00     0.021 C  
HETATM    2  C   UNL     1     -12.435  10.166  71.595  1.00  0.00    -0.506 C  
HETATM    3  C   UNL     1     -12.313  11.461  70.868  1.00  0.00    -0.483 A  
HETATM    4  C   UNL     1     -11.715  11.536  69.625  1.00  0.00    -0.351 A  
HETATM    5  N   UNL     1     -11.807  12.837  69.199  1.00  0.00    -0.309 NA 
HETATM    6  C   UNL     1     -11.118  10.391  68.831  1.00  0.00    -0.247 C  
HETATM    7  N   UNL     1     -11.061   9.196  69.729  1.00  0.00    -0.179 N  
HETATM    8  O   UNL     1     -13.399   7.449  72.040  1.00  0.00    -0.239 OA 
HETATM    9  C   UNL     1     -12.380  13.615  70.184  1.00  0.00    -0.304 A  
HETATM   10  H   UNL     1     -11.499  13.178  68.288  1.00  0.00     0.000 HD 
HETATM   11  C   UNL     1      -9.923   8.431  69.916  1.00  0.00    -0.190 C  
HETATM   12  C   UNL     1     -12.620  14.994  70.212  1.00  0.00    -0.363 A  
HETATM   13  C   UNL     1     -12.720  12.769  71.240  1.00  0.00    -0.364 A  
HETATM   14  C   UNL     1     -13.227  15.522  71.357  1.00  0.00    -0.587 A  
HETATM   15  O   UNL     1      -8.819   8.662  69.425  1.00  0.00    -0.140 OA 
HETATM   16  C   UNL     1     -11.378   5.615  72.149  1.00  0.00    -0.214 C  
HETATM   17  C   UNL     1     -10.045   7.189  70.789  1.00  0.00    -0.190 C  
HETATM   18  C   UNL     1     -12.388   7.685  71.376  1.00  0.00    -0.333 C  
HETATM   19  C   UNL     1     -13.587  14.700  72.422  1.00  0.00    -0.555 A  
HETATM   20  N   UNL     1     -11.338   6.796  71.308  1.00  0.00    -0.274 N  
HETATM   21  C   UNL     1     -13.343  13.323  72.375  1.00  0.00    -0.616 A  
ENDROOT
BRANCH   6  22
HETATM   22  C   UNL     1      -9.844  10.750  68.078  1.00  0.00    -0.180 A  
HETATM   23  C   UNL     1      -7.590  11.730  68.011  1.00  0.00    -0.116 A  
HETATM   24  C   UNL     1      -7.422  11.142  66.777  1.00  0.00    -0.146 A  
HETATM   25  C   UNL     1      -8.418  10.403  66.186  1.00  0.00    -0.147 A  
HETATM   26  C   UNL     1      -6.660  10.312  64.938  1.00  0.00    -0.105 C  
HETATM   27  C   UNL     1      -9.639  10.205  66.794  1.00  0.00    -0.222 A  
HETATM   28  O   UNL     1      -6.290  11.185  66.024  1.00  0.00    -0.106 OA 
HETATM   29  C   UNL     1      -8.804  11.516  68.672  1.00  0.00    -0.108 A  
HETATM   30  O   UNL     1      -8.035   9.880  64.989  1.00  0.00    -0.125 OA 
ENDBRANCH   6  22
TORSDOF 1
ENDMDL
MODEL       16
REMARK 921   NORMALIZED FREE ENERGY PREDICTED BY IDOCK:   -7.16 KCAL/MOL
REMARK 922        TOTAL FREE ENERGY PREDICTED BY IDOCK:   -7.62 KCAL/MOL
REMARK 923 INTER-LIGAND FREE ENERGY PREDICTED BY IDOCK:   -7.65 KCAL/MOL
REMARK 924 INTRA-LIGAND FREE ENERGY PREDICTED BY IDOCK:    0.02 KCAL/MOL
REMARK 927      BINDING AFFINITY PREDICTED BY RF-SCORE:    0.00 PKD
ROOT
HETATM    1  C   UNL     1      -9.966  10.750  68.929  1.00  0.00    -0.202 C  
HETATM    2  C   UNL     1      -9.921   9.604  67.890  1.00  0.00    -0.201 C  
HETATM    3  C   UNL     1      -9.122  10.036  66.710  1.00  0.00    -0.159 A  
HETATM    4  C   UNL     1      -8.865  11.370  66.462  1.00  0.00    -0.187 A  
HETATM    5  N   UNL     1      -8.066  11.439  65.349  1.00  0.00    -0.263 NA 
HETATM    6  C   UNL     1      -9.318  12.554  67.293  1.00  0.00    -0.190 C  
HETATM    7  N   UNL     1     -10.307  12.052  68.298  1.00  0.00    -0.198 N  
HETATM    8  O   UNL     1     -10.483   9.238  70.729  1.00  0.00    -0.231 OA 
HETATM    9  C   UNL     1      -7.876  10.175  64.828  1.00  0.00    -0.146 A  
HETATM   10  H   UNL     1      -7.672  12.297  64.964  1.00  0.00     0.000 HD 
HETATM   11  C   UNL     1     -11.551  12.622  68.500  1.00  0.00    -0.323 C  
HETATM   12  C   UNL     1      -7.183   9.773  63.680  1.00  0.00    -0.119 A  
HETATM   13  C   UNL     1      -8.519   9.273  65.675  1.00  0.00    -0.149 A  
HETATM   14  C   UNL     1      -7.149   8.405  63.391  1.00  0.00    -0.090 A  
HETATM   15  O   UNL     1     -12.022  13.558  67.856  1.00  0.00    -0.357 OA 
HETATM   16  C   UNL     1     -12.755  10.525  71.531  1.00  0.00    -0.452 C  
HETATM   17  C   UNL     1     -12.410  12.057  69.625  1.00  0.00    -0.021 C  
HETATM   18  C   UNL     1     -10.788  10.270  70.129  1.00  0.00    -0.302 C  
HETATM   19  C   UNL     1      -7.773   7.480  64.223  1.00  0.00    -0.128 A  
HETATM   20  N   UNL     1     -11.876  11.032  70.495  1.00  0.00    -0.353 N  
HETATM   21  C   UNL     1      -8.458   7.899  65.370  1.00  0.00    -0.134 A  
ENDROOT
BRANCH   6  22
HETATM   22  C   UNL     1      -9.724  13.773  66.476  1.00  0.00    -0.301 A  
HETATM   23  C   UNL     1     -10.986  14.804  64.635  1.00  0.00    -0.332 A  
HETATM   24  C   UNL     1     -10.679  16.033  65.175  1.00  0.00    -0.409 A  
HETATM   25  C   UNL     1      -9.909  16.154  66.307  1.00  0.00    -0.307 A  
HETATM   26  C   UNL     1     -10.586  18.118  65.722  1.00  0.00    -0.175 C  
HETATM   27  C   UNL     1      -9.402  15.055  66.965  1.00  0.00    -0.237 A  
HETATM   28  O   UNL     1     -11.103  17.236  64.704  1.00  0.00    -1.052 OA 
HETATM   29  C   UNL     1     -10.518  13.667  65.302  1.00  0.00    -0.362 A  
HETATM   30  O   UNL     1      -9.757  17.450  66.694  1.00  0.00    -0.266 OA 
ENDBRANCH   6  22
TORSDOF 1
ENDMDL
MODEL       17
REMARK 921   NORMALIZED FREE ENERGY PREDICTED BY IDOCK:   -7.15 KCAL/MOL
REMARK 922        TOTAL FREE ENERGY PREDICTED BY IDOCK:   -7.62 KCAL/MOL
REMARK 923 INTER-LIGAND FREE ENERGY PREDICTED BY IDOCK:   -7.68 KCAL/MOL
REMARK 924 INTRA-LIGAND FREE ENERGY PREDICTED BY IDOCK:    0.06 KCAL/MOL
REMARK 927      BINDING AFFINITY PREDICTED BY RF-SCORE:    0.00 PKD
ROOT
HETATM    1  C   UNL     1     -11.311  12.981  67.424  1.00  0.00    -0.305 C  
HETATM    2  C   UNL     1     -11.474  12.768  68.949  1.00  0.00    -0.352 C  
HETATM    3  C   UNL     1     -11.845  14.059  69.592  1.00  0.00    -0.386 A  
HETATM    4  C   UNL     1     -11.639  15.267  68.956  1.00  0.00    -0.343 A  
HETATM    5  N   UNL     1     -12.131  16.255  69.771  1.00  0.00    -0.222 NA 
HETATM    6  C   UNL     1     -11.041  15.481  67.579  1.00  0.00    -0.305 C  
HETATM    7  N   UNL     1     -10.478  14.174  67.120  1.00  0.00    -0.269 N  
HETATM    8  O   UNL     1     -11.652  10.644  66.957  1.00  0.00    -0.254 OA 
HETATM    9  C   UNL     1     -12.573  15.707  70.959  1.00  0.00    -0.459 A  
HETATM   10  H   UNL     1     -12.165  17.246  69.535  1.00  0.00     0.000 HD 
HETATM   11  C   UNL     1      -9.192  14.021  66.634  1.00  0.00    -0.244 C  
HETATM   12  C   UNL     1     -13.097  16.334  72.095  1.00  0.00     0.225 A  
HETATM   13  C   UNL     1     -12.416  14.324  70.865  1.00  0.00    -0.424 A  
HETATM   14  C   UNL     1     -13.472  15.519  73.168  1.00  0.00    -0.585 A  
HETATM   15  O   UNL     1      -8.342  14.908  66.570  1.00  0.00    -0.125 OA 
HETATM   16  C   UNL     1      -9.321  10.293  65.576  1.00  0.00    -0.199 C  
HETATM   17  C   UNL     1      -8.793  12.645  66.117  1.00  0.00     0.208 C  
HETATM   18  C   UNL     1     -10.937  11.635  66.796  1.00  0.00    -0.290 C  
HETATM   19  C   UNL     1     -13.337  14.135  73.100  1.00  0.00    -0.160 A  
HETATM   20  N   UNL     1      -9.775  11.583  66.058  1.00  0.00    -0.219 N  
HETATM   21  C   UNL     1     -12.815  13.524  71.953  1.00  0.00    -0.368 A  
ENDROOT
BRANCH   6  22
HETATM   22  C   UNL     1     -10.133  16.699  67.475  1.00  0.00    -0.273 A  
HETATM   23  C   UNL     1      -9.592  18.902  66.528  1.00  0.00    -0.373 A  
HETATM   24  C   UNL     1      -8.628  19.032  67.503  1.00  0.00    -0.286 A  
HETATM   25  C   UNL     1      -8.392  18.040  68.424  1.00  0.00    -0.298 A  
HETATM   26  C   UNL     1      -7.144  19.734  68.902  1.00  0.00    -0.323 C  
HETATM   27  C   UNL     1      -9.106  16.862  68.426  1.00  0.00    -0.243 A  
HETATM   28  O   UNL     1      -7.837  20.121  67.698  1.00  0.00    -0.293 OA 
HETATM   29  C   UNL     1     -10.360  17.733  66.527  1.00  0.00    -0.345 A  
HETATM   30  O   UNL     1      -7.427  18.384  69.320  1.00  0.00    -0.165 OA 
ENDBRANCH   6  22
TORSDOF 1
ENDMDL
MODEL       18
REMARK 921   NORMALIZED FREE ENERGY PREDICTED BY IDOCK:   -7.07 KCAL/MOL
REMARK 922        TOTAL FREE ENERGY PREDICTED BY IDOCK:   -7.53 KCAL/MOL
REMARK 923 INTER-LIGAND FREE ENERGY PREDICTED BY IDOCK:   -7.40 KCAL/MOL
REMARK 924 INTRA-LIGAND FREE ENERGY PREDICTED BY IDOCK:   -0.12 KCAL/MOL
REMARK 927      BINDING AFFINITY PREDICTED BY RF-SCORE:    0.00 PKD
ROOT
HETATM    1  C   UNL     1      -9.958   8.968  66.729  1.00  0.00    -0.263 C  
HETATM    2  C   UNL     1      -9.919   8.510  68.207  1.00  0.00    -0.211 C  
HETATM    3  C   UNL     1     -10.908   9.297  68.995  1.00  0.00    -0.136 A  
HETATM    4  C   UNL     1     -11.420  10.491  68.524  1.00  0.00    -0.215 A  
HETATM    5  N   UNL     1     -12.338  10.938  69.440  1.00  0.00    -0.584 NA 
HETATM    6  C   UNL     1     -11.090  11.167  67.208  1.00  0.00    -0.302 C  
HETATM    7  N   UNL     1      -9.923  10.448  66.608  1.00  0.00    -0.202 N  
HETATM    8  O   UNL     1      -8.987   6.904  65.957  1.00  0.00    -0.155 OA 
HETATM    9  C   UNL     1     -12.363  10.094  70.532  1.00  0.00    -0.245 A  
HETATM   10  H   UNL     1     -12.917  11.770  69.330  1.00  0.00     0.000 HD 
HETATM   11  C   UNL     1      -8.782  11.085  66.153  1.00  0.00    -0.184 C  
HETATM   12  C   UNL     1     -13.099  10.184  71.719  1.00  0.00    -0.568 A  
HETATM   13  C   UNL     1     -11.481   9.045  70.270  1.00  0.00    -0.147 A  
HETATM   14  C   UNL     1     -12.926   9.169  72.666  1.00  0.00    -0.320 A  
HETATM   15  O   UNL     1      -8.557  12.292  66.233  1.00  0.00    -0.040 OA 
HETATM   16  C   UNL     1      -6.898   8.059  64.628  1.00  0.00    -0.063 C  
HETATM   17  C   UNL     1      -7.717  10.227  65.481  1.00  0.00    -0.149 C  
HETATM   18  C   UNL     1      -8.935   8.136  65.949  1.00  0.00    -0.151 C  
HETATM   19  C   UNL     1     -12.060   8.105  72.428  1.00  0.00    -0.406 A  
HETATM   20  N   UNL     1      -7.963   8.820  65.253  1.00  0.00    -0.112 N  
HETATM   21  C   UNL     1     -11.335   8.028  71.233  1.00  0.00    -0.295 A  
ENDROOT
BRANCH   6  22
HETATM   22  C   UNL     1     -10.997  12.684  67.292  1.00  0.00    -0.291 A  
HETATM   23  C   UNL     1     -11.593  14.923  66.467  1.00  0.00    -0.254 A  
HETATM   24  C   UNL     1     -11.054  15.441  67.624  1.00  0.00    -0.316 A  
HETATM   25  C   UNL     1     -10.485  14.636  68.581  1.00  0.00    -0.244 A  
HETATM   26  C   UNL     1     -10.483  16.669  69.303  1.00  0.00    -0.333 C  
HETATM   27  C   UNL     1     -10.421  13.267  68.439  1.00  0.00    -0.261 A  
HETATM   28  O   UNL     1     -11.042  16.754  67.976  1.00  0.00    -0.336 OA 
HETATM   29  C   UNL     1     -11.579  13.533  66.310  1.00  0.00    -0.374 A  
HETATM   30  O   UNL     1     -10.048  15.341  69.659  1.00  0.00    -0.246 OA 
ENDBRANCH   6  22
TORSDOF 1
ENDMDL
MODEL       19
REMARK 921   NORMALIZED FREE ENERGY PREDICTED BY IDOCK:   -7.05 KCAL/MOL
REMARK 922        TOTAL FREE ENERGY PREDICTED BY IDOCK:   -7.51 KCAL/MOL
REMARK 923 INTER-LIGAND FREE ENERGY PREDICTED BY IDOCK:   -7.44 KCAL/MOL
REMARK 924 INTRA-LIGAND FREE ENERGY PREDICTED BY IDOCK:   -0.07 KCAL/MOL
REMARK 927      BINDING AFFINITY PREDICTED BY RF-SCORE:    0.00 PKD
ROOT
HETATM    1  C   UNL     1      -9.619   8.229  66.288  1.00  0.00    -0.196 C  
HETATM    2  C   UNL     1      -9.577   8.296  67.834  1.00  0.00    -0.176 C  
HETATM    3  C   UNL     1     -10.567   9.299  68.313  1.00  0.00    -0.237 A  
HETATM    4  C   UNL     1     -11.083  10.264  67.469  1.00  0.00    -0.232 A  
HETATM    5  N   UNL     1     -12.002  10.991  68.183  1.00  0.00    -0.763 NA 
HETATM    6  C   UNL     1     -10.757  10.458  66.002  1.00  0.00     0.019 C  
HETATM    7  N   UNL     1      -9.588   9.583  65.676  1.00  0.00    -0.264 N  
HETATM    8  O   UNL     1      -8.643   6.028  66.254  1.00  0.00    -0.127 OA 
HETATM    9  C   UNL     1     -12.023  10.564  69.495  1.00  0.00    -0.186 A  
HETATM   10  H   UNL     1     -12.583  11.736  67.800  1.00  0.00     0.000 HD 
HETATM   11  C   UNL     1      -8.450  10.032  65.031  1.00  0.00    -0.160 C  
HETATM   12  C   UNL     1     -12.758  11.046  70.584  1.00  0.00    -0.375 A  
HETATM   13  C   UNL     1     -11.138   9.490  69.599  1.00  0.00    -0.196 A  
HETATM   14  C   UNL     1     -12.582  10.410  71.817  1.00  0.00    -0.468 A  
HETATM   15  O   UNL     1      -8.229  11.196  64.700  1.00  0.00     0.195 OA 
HETATM   16  C   UNL     1      -6.559   6.673  64.610  1.00  0.00    -0.042 C  
HETATM   17  C   UNL     1      -7.383   9.001  64.685  1.00  0.00    -0.098 C  
HETATM   18  C   UNL     1      -8.595   7.186  65.831  1.00  0.00    -0.148 C  
HETATM   19  C   UNL     1     -11.713   9.330  71.949  1.00  0.00    -0.420 A  
HETATM   20  N   UNL     1      -7.625   7.598  64.944  1.00  0.00    -0.092 N  
HETATM   21  C   UNL     1     -10.989   8.857  70.848  1.00  0.00    -0.325 A  
ENDROOT
BRANCH   6  22
HETATM   22  C   UNL     1     -10.669  11.916  65.569  1.00  0.00    -0.329 A  
HETATM   23  C   UNL     1     -11.380  13.778  64.131  1.00  0.00    -0.277 A  
HETATM   24  C   UNL     1     -10.710  14.629  64.980  1.00  0.00    -0.430 A  
HETATM   25  C   UNL     1     -10.021  14.165  66.074  1.00  0.00    -0.322 A  
HETATM   26  C   UNL     1      -9.949  16.321  66.081  1.00  0.00    -0.334 C  
HETATM   27  C   UNL     1      -9.962  12.823  66.384  1.00  0.00    -0.268 A  
HETATM   28  O   UNL     1     -10.667  15.984  64.876  1.00  0.00    -0.576 OA 
HETATM   29  C   UNL     1     -11.373  12.414  64.440  1.00  0.00    -0.396 A  
HETATM   30  O   UNL     1      -9.462  15.171  66.801  1.00  0.00    -0.218 OA 
ENDBRANCH   6  22
TORSDOF 1
ENDMDL
MODEL       20
REMARK 921   NORMALIZED FREE ENERGY PREDICTED BY IDOCK:   -6.98 KCAL/MOL
REMARK 922        TOTAL FREE ENERGY PREDICTED BY IDOCK:   -7.44 KCAL/MOL
REMARK 923 INTER-LIGAND FREE ENERGY PREDICTED BY IDOCK:   -7.40 KCAL/MOL
REMARK 924 INTRA-LIGAND FREE ENERGY PREDICTED BY IDOCK:   -0.03 KCAL/MOL
REMARK 927      BINDING AFFINITY PREDICTED BY RF-SCORE:    0.00 PKD
ROOT
HETATM    1  C   UNL     1     -12.327  15.035  69.438  1.00  0.00    -0.126 C  
HETATM    2  C   UNL     1     -11.284  16.127  69.778  1.00  0.00    -0.343 C  
HETATM    3  C   UNL     1     -10.405  16.355  68.599  1.00  0.00    -0.273 A  
HETATM    4  C   UNL     1     -10.313  15.430  67.578  1.00  0.00    -0.264 A  
HETATM    5  N   UNL     1      -9.478  15.949  66.621  1.00  0.00    -0.226 NA 
HETATM    6  C   UNL     1     -11.043  14.105  67.481  1.00  0.00    -0.291 C  
HETATM    7  N   UNL     1     -11.697  13.849  68.802  1.00  0.00    -0.334 N  
HETATM    8  O   UNL     1     -13.823  15.778  71.173  1.00  0.00    -0.537 OA 
HETATM    9  C   UNL     1      -8.965  17.157  67.049  1.00  0.00    -0.230 A  
HETATM   10  H   UNL     1      -9.267  15.508  65.726  1.00  0.00     0.000 HD 
HETATM   11  C   UNL     1     -11.567  12.665  69.506  1.00  0.00    -0.281 C  
HETATM   12  C   UNL     1      -8.041  18.009  66.433  1.00  0.00    -0.292 A  
HETATM   13  C   UNL     1      -9.545  17.441  68.286  1.00  0.00    -0.292 A  
HETATM   14  C   UNL     1      -7.701  19.188  67.104  1.00  0.00    -0.263 A  
HETATM   15  O   UNL     1     -10.867  11.710  69.173  1.00  0.00    -0.221 OA 
HETATM   16  C   UNL     1     -14.013  13.361  72.432  1.00  0.00    -0.504 C  
HETATM   17  C   UNL     1     -12.369  12.519  70.792  1.00  0.00    -0.286 C  
HETATM   18  C   UNL     1     -13.216  14.830  70.669  1.00  0.00    -0.244 C  
HETATM   19  C   UNL     1      -8.271  19.503  68.335  1.00  0.00    -0.379 A  
HETATM   20  N   UNL     1     -13.299  13.556  71.185  1.00  0.00    -0.146 N  
HETATM   21  C   UNL     1      -9.196  18.642  68.935  1.00  0.00    -0.249 A  
ENDROOT
BRANCH   6  22
HETATM   22  C   UNL     1     -10.211  12.974  66.893  1.00  0.00    -0.244 A  
HETATM   23  C   UNL     1      -9.840  11.238  65.192  1.00  0.00    -0.298 A  
HETATM   24  C   UNL     1      -8.554  11.113  65.667  1.00  0.00    -0.083 A  
HETATM   25  C   UNL     1      -8.097  11.861  66.725  1.00  0.00    -0.108 A  
HETATM   26  C   UNL     1      -6.460  10.683  65.959  1.00  0.00    -0.129 C  
HETATM   27  C   UNL     1      -8.899  12.779  67.369  1.00  0.00    -0.190 A  
HETATM   28  O   UNL     1      -7.594  10.295  65.157  1.00  0.00    -0.139 OA 
HETATM   29  C   UNL     1     -10.667  12.188  65.800  1.00  0.00    -0.303 A  
HETATM   30  O   UNL     1      -6.790  11.613  67.011  1.00  0.00    -0.129 OA 
ENDBRANCH   6  22
TORSDOF 1
ENDMDL
MODEL       21
REMARK 921   NORMALIZED FREE ENERGY PREDICTED BY IDOCK:   -6.96 KCAL/MOL
REMARK 922        TOTAL FREE ENERGY PREDICTED BY IDOCK:   -7.41 KCAL/MOL
REMARK 923 INTER-LIGAND FREE ENERGY PREDICTED BY IDOCK:   -7.44 KCAL/MOL
REMARK 924 INTRA-LIGAND FREE ENERGY PREDICTED BY IDOCK:    0.02 KCAL/MOL
REMARK 927      BINDING AFFINITY PREDICTED BY RF-SCORE:    0.00 PKD
ROOT
HETATM    1  C   UNL     1      -9.478   9.387  68.464  1.00  0.00    -0.145 C  
HETATM    2  C   UNL     1      -9.475   8.063  67.661  1.00  0.00    -0.171 C  
HETATM    3  C   UNL     1      -9.037   8.334  66.263  1.00  0.00    -0.235 A  
HETATM    4  C   UNL     1      -9.063   9.609  65.733  1.00  0.00    -0.185 A  
HETATM    5  N   UNL     1      -8.550   9.540  64.463  1.00  0.00    -0.175 NA 
HETATM    6  C   UNL     1      -9.509  10.877  66.433  1.00  0.00    -0.187 C  
HETATM    7  N   UNL     1     -10.157  10.481  67.722  1.00  0.00    -0.170 N  
HETATM    8  O   UNL     1      -9.332   8.229  70.570  1.00  0.00    -0.155 OA 
HETATM    9  C   UNL     1      -8.274   8.227  64.137  1.00  0.00    -0.104 A  
HETATM   10  H   UNL     1      -8.396  10.340  63.849  1.00  0.00     0.000 HD 
HETATM   11  C   UNL     1     -11.403  10.928  68.124  1.00  0.00    -0.315 C  
HETATM   12  C   UNL     1      -7.795   7.681  62.941  1.00  0.00    -0.129 A  
HETATM   13  C   UNL     1      -8.559   7.450  65.260  1.00  0.00    -0.014 A  
HETATM   14  C   UNL     1      -7.601   6.297  62.893  1.00  0.00    -0.079 A  
HETATM   15  O   UNL     1     -12.150  11.649  67.464  1.00  0.00    -0.611 OA 
HETATM   16  C   UNL     1     -11.552   9.376  71.674  1.00  0.00    -0.396 C  
HETATM   17  C   UNL     1     -11.890  10.511  69.506  1.00  0.00    -0.215 C  
HETATM   18  C   UNL     1      -9.927   9.071  69.894  1.00  0.00    -0.191 C  
HETATM   19  C   UNL     1      -7.868   5.497  64.001  1.00  0.00    -0.104 A  
HETATM   20  N   UNL     1     -11.017   9.758  70.381  1.00  0.00    -0.287 N  
HETATM   21  C   UNL     1      -8.342   6.060  65.191  1.00  0.00    -0.140 A  
ENDROOT
BRANCH   6  22
HETATM   22  C   UNL     1     -10.279  11.844  65.543  1.00  0.00    -0.290 A  
HETATM   23  C   UNL     1     -12.064  12.316  63.921  1.00  0.00    -0.598 A  
HETATM   24  C   UNL     1     -11.853  13.657  64.148  1.00  0.00    -0.422 A  
HETATM   25  C   UNL     1     -10.885  14.100  65.017  1.00  0.00    -0.398 A  
HETATM   26  C   UNL     1     -11.986  15.806  64.287  1.00  0.00    -0.058 C  
HETATM   27  C   UNL     1     -10.072  13.229  65.709  1.00  0.00    -0.293 A  
HETATM   28  O   UNL     1     -12.561  14.678  63.596  1.00  0.00    -0.773 OA 
HETATM   29  C   UNL     1     -11.282  11.404  64.638  1.00  0.00    -0.220 A  
HETATM   30  O   UNL     1     -10.866  15.456  65.125  1.00  0.00    -0.378 OA 
ENDBRANCH   6  22
TORSDOF 1
ENDMDL
MODEL       22
REMARK 921   NORMALIZED FREE ENERGY PREDICTED BY IDOCK:   -6.88 KCAL/MOL
REMARK 922        TOTAL FREE ENERGY PREDICTED BY IDOCK:   -7.33 KCAL/MOL
REMARK 923 INTER-LIGAND FREE ENERGY PREDICTED BY IDOCK:   -7.38 KCAL/MOL
REMARK 924 INTRA-LIGAND FREE ENERGY PREDICTED BY IDOCK:    0.05 KCAL/MOL
REMARK 927      BINDING AFFINITY PREDICTED BY RF-SCORE:    0.00 PKD
ROOT
HETATM    1  C   UNL     1     -10.811  12.560  67.326  1.00  0.00    -0.245 C  
HETATM    2  C   UNL     1     -11.909  11.981  68.251  1.00  0.00    -0.351 C  
HETATM    3  C   UNL     1     -11.345  10.853  69.043  1.00  0.00    -0.348 A  
HETATM    4  C   UNL     1     -10.181  10.214  68.661  1.00  0.00    -0.176 A  
HETATM    5  N   UNL     1      -9.895   9.270  69.614  1.00  0.00    -0.177 NA 
HETATM    6  C   UNL     1      -9.326  10.528  67.450  1.00  0.00    -0.142 C  
HETATM    7  N   UNL     1     -10.087  11.489  66.592  1.00  0.00    -0.206 N  
HETATM    8  O   UNL     1     -11.956  14.667  67.113  1.00  0.00    -0.391 OA 
HETATM    9  C   UNL     1     -10.901   9.233  70.558  1.00  0.00    -0.263 A  
HETATM   10  H   UNL     1      -9.062   8.682  69.623  1.00  0.00     0.000 HD 
HETATM   11  C   UNL     1     -10.297  11.307  65.236  1.00  0.00    -0.280 C  
HETATM   12  C   UNL     1     -11.058   8.398  71.670  1.00  0.00    -0.344 A  
HETATM   13  C   UNL     1     -11.819  10.231  70.228  1.00  0.00    -0.372 A  
HETATM   14  C   UNL     1     -12.191   8.590  72.468  1.00  0.00    -0.383 A  
HETATM   15  O   UNL     1      -9.942  10.326  64.584  1.00  0.00    -0.336 OA 
HETATM   16  C   UNL     1     -12.055  14.656  64.383  1.00  0.00    -0.462 C  
HETATM   17  C   UNL     1     -11.011  12.419  64.479  1.00  0.00    -0.316 C  
HETATM   18  C   UNL     1     -11.423  13.719  66.533  1.00  0.00    -0.348 C  
HETATM   19  C   UNL     1     -13.119   9.584  72.169  1.00  0.00    -0.522 A  
HETATM   20  N   UNL     1     -11.357  13.649  65.159  1.00  0.00    -0.302 N  
HETATM   21  C   UNL     1     -12.944  10.414  71.056  1.00  0.00    -0.490 A  
ENDROOT
BRANCH   6  22
HETATM   22  C   UNL     1      -8.743   9.302  66.761  1.00  0.00    -0.138 A  
HETATM   23  C   UNL     1      -8.978   7.024  65.866  1.00  0.00    -0.092 A  
HETATM   24  C   UNL     1      -7.754   7.188  65.255  1.00  0.00    -0.114 A  
HETATM   25  C   UNL     1      -7.025   8.345  65.395  1.00  0.00    -0.074 A  
HETATM   26  C   UNL     1      -5.994   7.043  64.017  1.00  0.00    -0.036 C  
HETATM   27  C   UNL     1      -7.476   9.404  66.151  1.00  0.00    -0.096 A  
HETATM   28  O   UNL     1      -7.144   6.284  64.443  1.00  0.00    -0.052 OA 
HETATM   29  C   UNL     1      -9.481   8.097  66.609  1.00  0.00    -0.274 A  
HETATM   30  O   UNL     1      -5.866   8.316  64.682  1.00  0.00    -0.047 OA 
ENDBRANCH   6  22
TORSDOF 1
ENDMDL
MODEL       23
REMARK 921   NORMALIZED FREE ENERGY PREDICTED BY IDOCK:   -6.88 KCAL/MOL
REMARK 922        TOTAL FREE ENERGY PREDICTED BY IDOCK:   -7.33 KCAL/MOL
REMARK 923 INTER-LIGAND FREE ENERGY PREDICTED BY IDOCK:   -7.32 KCAL/MOL
REMARK 924 INTRA-LIGAND FREE ENERGY PREDICTED BY IDOCK:   -0.01 KCAL/MOL
REMARK 927      BINDING AFFINITY PREDICTED BY RF-SCORE:    0.00 PKD
ROOT
HETATM    1  C   UNL     1     -11.198  13.402  66.946  1.00  0.00    -0.308 C  
HETATM    2  C   UNL     1      -9.897  12.785  66.379  1.00  0.00    -0.269 C  
HETATM    3  C   UNL     1      -9.957  11.302  66.504  1.00  0.00    -0.247 A  
HETATM    4  C   UNL     1     -10.842  10.687  67.367  1.00  0.00    -0.296 A  
HETATM    5  N   UNL     1     -10.697   9.331  67.213  1.00  0.00    -0.334 NA 
HETATM    6  C   UNL     1     -11.845  11.365  68.279  1.00  0.00    -0.249 C  
HETATM    7  N   UNL     1     -11.546  12.831  68.273  1.00  0.00    -0.312 N  
HETATM    8  O   UNL     1     -10.901  15.437  65.694  1.00  0.00    -0.331 OA 
HETATM    9  C   UNL     1      -9.673   9.066  66.325  1.00  0.00    -0.275 A  
HETATM   10  H   UNL     1     -11.262   8.625  67.684  1.00  0.00     0.000 HD 
HETATM   11  C   UNL     1     -11.393  13.587  69.421  1.00  0.00    -0.233 C  
HETATM   12  C   UNL     1      -9.142   7.839  65.910  1.00  0.00    -0.122 A  
HETATM   13  C   UNL     1      -9.200  10.291  65.855  1.00  0.00    -0.205 A  
HETATM   14  C   UNL     1      -8.094   7.869  64.984  1.00  0.00    -0.144 A  
HETATM   15  O   UNL     1     -11.423  13.153  70.572  1.00  0.00     0.060 OA 
HETATM   16  C   UNL     1     -11.019  17.111  67.849  1.00  0.00    -0.208 C  
HETATM   17  C   UNL     1     -11.184  15.087  69.255  1.00  0.00    -0.286 C  
HETATM   18  C   UNL     1     -11.104  14.924  66.796  1.00  0.00    -0.335 C  
HETATM   19  C   UNL     1      -7.608   9.076  64.489  1.00  0.00    -0.108 A  
HETATM   20  N   UNL     1     -11.248  15.682  67.937  1.00  0.00    -0.341 N  
HETATM   21  C   UNL     1      -8.154  10.293  64.912  1.00  0.00    -0.154 A  
ENDROOT
BRANCH   6  22
HETATM   22  C   UNL     1     -12.004  10.699  69.639  1.00  0.00    -0.340 A  
HETATM   23  C   UNL     1     -13.404   9.955  71.518  1.00  0.00    -0.462 A  
HETATM   24  C   UNL     1     -12.324   9.234  71.976  1.00  0.00    -0.363 A  
HETATM   25  C   UNL     1     -11.115   9.246  71.322  1.00  0.00    -0.357 A  
HETATM   26  C   UNL     1     -10.991   7.860  72.971  1.00  0.00    -0.333 C  
HETATM   27  C   UNL     1     -10.916   9.978  70.172  1.00  0.00    -0.368 A  
HETATM   28  O   UNL     1     -12.315   8.424  73.068  1.00  0.00    -0.220 OA 
HETATM   29  C   UNL     1     -13.245  10.678  70.331  1.00  0.00     0.043 A  
HETATM   30  O   UNL     1     -10.195   8.439  71.917  1.00  0.00    -0.219 OA 
ENDBRANCH   6  22
TORSDOF 1
ENDMDL
MODEL       24
REMARK 921   NORMALIZED FREE ENERGY PREDICTED BY IDOCK:   -6.80 KCAL/MOL
REMARK 922        TOTAL FREE ENERGY PREDICTED BY IDOCK:   -7.25 KCAL/MOL
REMARK 923 INTER-LIGAND FREE ENERGY PREDICTED BY IDOCK:   -7.12 KCAL/MOL
REMARK 924 INTRA-LIGAND FREE ENERGY PREDICTED BY IDOCK:   -0.13 KCAL/MOL
REMARK 927      BINDING AFFINITY PREDICTED BY RF-SCORE:    0.00 PKD
ROOT
HETATM    1  C   UNL     1      -8.128  10.155  66.199  1.00  0.00    -0.123 C  
HETATM    2  C   UNL     1      -8.949  11.331  65.616  1.00  0.00    -0.173 C  
HETATM    3  C   UNL     1      -9.407  12.213  66.726  1.00  0.00    -0.212 A  
HETATM    4  C   UNL     1      -9.430  11.771  68.035  1.00  0.00    -0.188 A  
HETATM    5  N   UNL     1      -9.839  12.820  68.819  1.00  0.00    -0.422 NA 
HETATM    6  C   UNL     1      -9.019  10.403  68.542  1.00  0.00    -0.139 C  
HETATM    7  N   UNL     1      -8.817   9.520  67.352  1.00  0.00    -0.128 N  
HETATM    8  O   UNL     1      -7.022   9.753  64.098  1.00  0.00    -0.112 OA 
HETATM    9  C   UNL     1     -10.161  13.903  68.026  1.00  0.00    -0.244 A  
HETATM   10  H   UNL     1      -9.897  12.802  69.837  1.00  0.00     0.000 HD 
HETATM   11  C   UNL     1      -9.394   8.269  67.218  1.00  0.00    -0.147 C  
HETATM   12  C   UNL     1     -10.669  15.157  68.383  1.00  0.00    -0.248 A  
HETATM   13  C   UNL     1      -9.884  13.550  66.705  1.00  0.00    -0.279 A  
HETATM   14  C   UNL     1     -10.901  16.078  67.355  1.00  0.00    -0.277 A  
HETATM   15  O   UNL     1     -10.177   7.755  68.015  1.00  0.00    -0.186 OA 
HETATM   16  C   UNL     1      -7.726   7.120  63.912  1.00  0.00    -0.116 C  
HETATM   17  C   UNL     1      -9.019   7.448  65.991  1.00  0.00    -0.121 C  
HETATM   18  C   UNL     1      -7.670   9.275  65.032  1.00  0.00    -0.109 C  
HETATM   19  C   UNL     1     -10.624  15.757  66.029  1.00  0.00    -0.334 A  
HETATM   20  N   UNL     1      -8.018   7.943  65.070  1.00  0.00    -0.130 N  
HETATM   21  C   UNL     1     -10.112  14.500  65.690  1.00  0.00    -0.384 A  
ENDROOT
BRANCH   6  22
HETATM   22  C   UNL     1      -9.897   9.862  69.662  1.00  0.00    -0.255 A  
HETATM   23  C   UNL     1     -10.164   8.834  71.879  1.00  0.00    -0.415 A  
HETATM   24  C   UNL     1     -11.503   9.144  71.810  1.00  0.00    -0.381 A  
HETATM   25  C   UNL     1     -12.047   9.768  70.713  1.00  0.00    -0.279 A  
HETATM   26  C   UNL     1     -13.584   9.550  72.211  1.00  0.00    -0.418 C  
HETATM   27  C   UNL     1     -11.283  10.119  69.621  1.00  0.00    -0.310 A  
HETATM   28  O   UNL     1     -12.423   8.916  72.786  1.00  0.00    -0.280 OA 
HETATM   29  C   UNL     1      -9.354   9.213  70.803  1.00  0.00    -0.325 A  
HETATM   30  O   UNL     1     -13.376  10.017  70.863  1.00  0.00    -0.382 OA 
ENDBRANCH   6  22
TORSDOF 1
ENDMDL
MODEL       25
REMARK 921   NORMALIZED FREE ENERGY PREDICTED BY IDOCK:   -6.79 KCAL/MOL
REMARK 922        TOTAL FREE ENERGY PREDICTED BY IDOCK:   -7.23 KCAL/MOL
REMARK 923 INTER-LIGAND FREE ENERGY PREDICTED BY IDOCK:   -7.16 KCAL/MOL
REMARK 924 INTRA-LIGAND FREE ENERGY PREDICTED BY IDOCK:   -0.07 KCAL/MOL
REMARK 927      BINDING AFFINITY PREDICTED BY RF-SCORE:    0.00 PKD
ROOT
HETATM    1  C   UNL     1     -12.015  11.273  69.412  1.00  0.00    -0.341 C  
HETATM    2  C   UNL     1     -11.588  12.729  69.718  1.00  0.00    -0.288 C  
HETATM    3  C   UNL     1     -11.120  13.381  68.463  1.00  0.00    -0.299 A  
HETATM    4  C   UNL     1     -10.753  12.638  67.358  1.00  0.00    -0.229 A  
HETATM    5  N   UNL     1     -10.430  13.518  66.356  1.00  0.00    -0.283 NA 
HETATM    6  C   UNL     1     -10.761  11.127  67.232  1.00  0.00    -0.258 C  
HETATM    7  N   UNL     1     -10.999  10.559  68.595  1.00  0.00    -0.231 N  
HETATM    8  O   UNL     1     -13.396  11.156  71.381  1.00  0.00    -0.261 OA 
HETATM    9  C   UNL     1     -10.502  14.813  66.826  1.00  0.00    -0.282 A  
HETATM   10  H   UNL     1     -10.174  13.253  65.405  1.00  0.00     0.000 HD 
HETATM   11  C   UNL     1     -10.209   9.577  69.166  1.00  0.00    -0.201 C  
HETATM   12  C   UNL     1     -10.210  16.020  66.179  1.00  0.00    -0.340 A  
HETATM   13  C   UNL     1     -10.949  14.754  68.146  1.00  0.00    -0.274 A  
HETATM   14  C   UNL     1     -10.380  17.202  66.908  1.00  0.00    -0.308 A  
HETATM   15  O   UNL     1      -9.196   9.093  68.662  1.00  0.00    -0.136 OA 
HETATM   16  C   UNL     1     -12.204   8.931  72.427  1.00  0.00    -0.295 C  
HETATM   17  C   UNL     1     -10.632   9.032  70.524  1.00  0.00    -0.227 C  
HETATM   18  C   UNL     1     -12.494  10.636  70.721  1.00  0.00    -0.385 C  
HETATM   19  C   UNL     1     -10.833  17.175  68.224  1.00  0.00    -0.314 A  
HETATM   20  N   UNL     1     -11.873   9.475  71.123  1.00  0.00    -0.331 N  
HETATM   21  C   UNL     1     -11.126  15.959  68.854  1.00  0.00    -0.316 A  
ENDROOT
BRANCH   6  22
HETATM   22  C   UNL     1      -9.589  10.559  66.443  1.00  0.00    -0.220 A  
HETATM   23  C   UNL     1      -8.697   9.219  64.586  1.00  0.00    -0.223 A  
HETATM   24  C   UNL     1      -7.461   9.766  64.846  1.00  0.00    -0.129 A  
HETATM   25  C   UNL     1      -7.266  10.660  65.872  1.00  0.00    -0.119 A  
HETATM   26  C   UNL     1      -5.416  10.454  64.780  1.00  0.00    -0.139 C  
HETATM   27  C   UNL     1      -8.296  11.059  66.696  1.00  0.00    -0.155 A  
HETATM   28  O   UNL     1      -6.323   9.534  64.137  1.00  0.00    -0.090 OA 
HETATM   29  C   UNL     1      -9.771   9.633  65.380  1.00  0.00    -0.365 A  
HETATM   30  O   UNL     1      -5.983  11.108  65.933  1.00  0.00    -0.123 OA 
ENDBRANCH   6  22
TORSDOF 1
ENDMDL
MODEL       26
REMARK 921   NORMALIZED FREE ENERGY PREDICTED BY IDOCK:   -6.78 KCAL/MOL
REMARK 922        TOTAL FREE ENERGY PREDICTED BY IDOCK:   -7.22 KCAL/MOL
REMARK 923 INTER-LIGAND FREE ENERGY PREDICTED BY IDOCK:   -7.25 KCAL/MOL
REMARK 924 INTRA-LIGAND FREE ENERGY PREDICTED BY IDOCK:    0.02 KCAL/MOL
REMARK 927      BINDING AFFINITY PREDICTED BY RF-SCORE:    0.00 PKD
ROOT
HETATM    1  C   UNL     1     -10.384   9.005  69.543  1.00  0.00    -0.209 C  
HETATM    2  C   UNL     1     -10.507   7.747  68.650  1.00  0.00    -0.199 C  
HETATM    3  C   UNL     1      -9.713   7.944  67.405  1.00  0.00    -0.210 A  
HETATM    4  C   UNL     1      -9.321   9.202  66.991  1.00  0.00    -0.148 A  
HETATM    5  N   UNL     1      -8.564   9.048  65.857  1.00  0.00    -0.145 NA 
HETATM    6  C   UNL     1      -9.607  10.519  67.685  1.00  0.00    -0.157 C  
HETATM    7  N   UNL     1     -10.604  10.254  68.769  1.00  0.00    -0.197 N  
HETATM    8  O   UNL     1     -10.992   7.783  71.526  1.00  0.00    -0.230 OA 
HETATM    9  C   UNL     1      -8.535   7.719  65.488  1.00  0.00    -0.133 A  
HETATM   10  H   UNL     1      -8.093   9.805  65.361  1.00  0.00     0.000 HD 
HETATM   11  C   UNL     1     -11.769  10.982  68.934  1.00  0.00    -0.330 C  
HETATM   12  C   UNL     1      -7.937   7.108  64.379  1.00  0.00    -0.101 A  
HETATM   13  C   UNL     1      -9.240   7.001  66.454  1.00  0.00    -0.186 A  
HETATM   14  C   UNL     1      -8.066   5.721  64.257  1.00  0.00    -0.127 A  
HETATM   15  O   UNL     1     -12.159  11.884  68.193  1.00  0.00    -0.516 OA 
HETATM   16  C   UNL     1     -13.075   9.405  72.226  1.00  0.00    -0.428 C  
HETATM   17  C   UNL     1     -12.639  10.655  70.140  1.00  0.00    -0.214 C  
HETATM   18  C   UNL     1     -11.206   8.765  70.813  1.00  0.00    -0.266 C  
HETATM   19  C   UNL     1      -8.755   4.977  65.211  1.00  0.00    -0.149 A  
HETATM   20  N   UNL     1     -12.187   9.684  71.114  1.00  0.00    -0.330 N  
HETATM   21  C   UNL     1      -9.342   5.603  66.316  1.00  0.00    -0.169 A  
ENDROOT
BRANCH   6  22
HETATM   22  C   UNL     1      -9.908  11.672  66.737  1.00  0.00    -0.222 A  
HETATM   23  C   UNL     1     -11.133  12.623  64.830  1.00  0.00    -0.335 A  
HETATM   24  C   UNL     1     -10.657  13.860  65.201  1.00  0.00    -0.379 A  
HETATM   25  C   UNL     1      -9.821  14.020  66.279  1.00  0.00    -0.305 A  
HETATM   26  C   UNL     1     -10.291  15.968  65.479  1.00  0.00    -0.390 C  
HETATM   27  C   UNL     1      -9.413  12.954  67.051  1.00  0.00    -0.235 A  
HETATM   28  O   UNL     1     -10.960  15.042  64.599  1.00  0.00    -0.372 OA 
HETATM   29  C   UNL     1     -10.769  11.525  65.616  1.00  0.00    -0.323 A  
HETATM   30  O   UNL     1      -9.497  15.324  66.496  1.00  0.00    -0.245 OA 
ENDBRANCH   6  22
TORSDOF 1
ENDMDL
MODEL       27
REMARK 921   NORMALIZED FREE ENERGY PREDICTED BY IDOCK:   -6.76 KCAL/MOL
REMARK 922        TOTAL FREE ENERGY PREDICTED BY IDOCK:   -7.20 KCAL/MOL
REMARK 923 INTER-LIGAND FREE ENERGY PREDICTED BY IDOCK:   -7.29 KCAL/MOL
REMARK 924 INTRA-LIGAND FREE ENERGY PREDICTED BY IDOCK:    0.09 KCAL/MOL
REMARK 927      BINDING AFFINITY PREDICTED BY RF-SCORE:    0.00 PKD
ROOT
HETATM    1  C   UNL     1      -7.921  17.372  67.410  1.00  0.00    -0.198 C  
HETATM    2  C   UNL     1      -7.482  16.862  68.804  1.00  0.00    -0.237 C  
HETATM    3  C   UNL     1      -7.299  15.384  68.755  1.00  0.00    -0.135 A  
HETATM    4  C   UNL     1      -7.853  14.622  67.744  1.00  0.00    -0.154 A  
HETATM    5  N   UNL     1      -7.461  13.323  67.943  1.00  0.00    -0.125 NA 
HETATM    6  C   UNL     1      -8.688  15.120  66.582  1.00  0.00    -0.272 C  
HETATM    7  N   UNL     1      -9.025  16.554  66.846  1.00  0.00    -0.207 N  
HETATM    8  O   UNL     1      -7.169  19.611  67.880  1.00  0.00    -0.257 OA 
HETATM    9  C   UNL     1      -6.734  13.224  69.113  1.00  0.00    -0.092 A  
HETATM   10  H   UNL     1      -7.676  12.545  67.319  1.00  0.00     0.000 HD 
HETATM   11  C   UNL     1     -10.310  17.065  66.778  1.00  0.00    -0.302 C  
HETATM   12  C   UNL     1      -6.186  12.097  69.735  1.00  0.00    -0.132 A  
HETATM   13  C   UNL     1      -6.607  14.511  69.635  1.00  0.00    -0.153 A  
HETATM   14  C   UNL     1      -5.484  12.295  70.929  1.00  0.00    -0.139 A  
HETATM   15  O   UNL     1     -11.327  16.411  66.554  1.00  0.00     0.217 OA 
HETATM   16  C   UNL     1      -9.557  20.825  67.348  1.00  0.00    -0.344 C  
HETATM   17  C   UNL     1     -10.483  18.564  66.981  1.00  0.00    -0.402 C  
HETATM   18  C   UNL     1      -8.094  18.892  67.496  1.00  0.00    -0.260 C  
HETATM   19  C   UNL     1      -5.332  13.569  71.469  1.00  0.00    -0.200 A  
HETATM   20  N   UNL     1      -9.319  19.410  67.137  1.00  0.00    -0.311 N  
HETATM   21  C   UNL     1      -5.883  14.686  70.831  1.00  0.00    -0.138 A  
ENDROOT
BRANCH   6  22
HETATM   22  C   UNL     1      -9.840  14.200  66.200  1.00  0.00    -0.326 A  
HETATM   23  C   UNL     1     -11.888  12.968  66.774  1.00  0.00    -0.451 A  
HETATM   24  C   UNL     1     -12.084  12.759  65.428  1.00  0.00    -0.462 A  
HETATM   25  C   UNL     1     -11.197  13.223  64.486  1.00  0.00    -0.362 A  
HETATM   26  C   UNL     1     -12.873  12.324  63.467  1.00  0.00    -0.283 C  
HETATM   27  C   UNL     1     -10.063  13.923  64.836  1.00  0.00    -0.294 A  
HETATM   28  O   UNL     1     -13.149  12.124  64.869  1.00  0.00    -0.507 OA 
HETATM   29  C   UNL     1     -10.766  13.709  67.160  1.00  0.00    -0.279 A  
HETATM   30  O   UNL     1     -11.596  12.944  63.216  1.00  0.00    -0.488 OA 
ENDBRANCH   6  22
TORSDOF 1
ENDMDL
MODEL       28
REMARK 921   NORMALIZED FREE ENERGY PREDICTED BY IDOCK:   -6.76 KCAL/MOL
REMARK 922        TOTAL FREE ENERGY PREDICTED BY IDOCK:   -7.20 KCAL/MOL
REMARK 923 INTER-LIGAND FREE ENERGY PREDICTED BY IDOCK:   -7.11 KCAL/MOL
REMARK 924 INTRA-LIGAND FREE ENERGY PREDICTED BY IDOCK:   -0.09 KCAL/MOL
REMARK 927      BINDING AFFINITY PREDICTED BY RF-SCORE:    0.00 PKD
ROOT
HETATM    1  C   UNL     1      -9.024   9.772  69.945  1.00  0.00    -0.229 C  
HETATM    2  C   UNL     1      -8.286   8.781  69.014  1.00  0.00    -0.117 C  
HETATM    3  C   UNL     1      -7.825   9.498  67.793  1.00  0.00    -0.095 A  
HETATM    4  C   UNL     1      -8.365  10.715  67.424  1.00  0.00    -0.119 A  
HETATM    5  N   UNL     1      -7.699  11.141  66.303  1.00  0.00    -0.282 NA 
HETATM    6  C   UNL     1      -9.449  11.487  68.150  1.00  0.00    -0.184 C  
HETATM    7  N   UNL     1     -10.018  10.591  69.203  1.00  0.00    -0.214 N  
HETATM    8  O   UNL     1      -8.665   8.383  71.879  1.00  0.00    -0.159 OA 
HETATM    9  C   UNL     1      -6.798  10.178  65.896  1.00  0.00    -0.115 A  
HETATM   10  H   UNL     1      -7.848  12.037  65.839  1.00  0.00     0.000 HD 
HETATM   11  C   UNL     1     -11.372  10.358  69.364  1.00  0.00    -0.250 C  
HETATM   12  C   UNL     1      -5.949  10.157  64.783  1.00  0.00    -0.123 A  
HETATM   13  C   UNL     1      -6.848   9.140  66.826  1.00  0.00    -0.080 A  
HETATM   14  C   UNL     1      -5.127   9.037  64.618  1.00  0.00    -0.045 A  
HETATM   15  O   UNL     1     -12.263  10.803  68.641  1.00  0.00    -0.472 OA 
HETATM   16  C   UNL     1     -11.298   8.195  72.580  1.00  0.00    -0.381 C  
HETATM   17  C   UNL     1     -11.805   9.494  70.541  1.00  0.00    -0.183 C  
HETATM   18  C   UNL     1      -9.478   9.004  71.190  1.00  0.00    -0.278 C  
HETATM   19  C   UNL     1      -5.149   7.990  65.535  1.00  0.00    -0.028 A  
HETATM   20  N   UNL     1     -10.820   9.031  71.496  1.00  0.00    -0.320 N  
HETATM   21  C   UNL     1      -6.000   8.030  66.646  1.00  0.00    -0.045 A  
ENDROOT
BRANCH   6  22
HETATM   22  C   UNL     1     -10.441  12.186  67.229  1.00  0.00    -0.238 A  
HETATM   23  C   UNL     1     -11.786  14.148  66.613  1.00  0.00    -0.447 A  
HETATM   24  C   UNL     1     -12.021  13.547  65.396  1.00  0.00    -0.379 A  
HETATM   25  C   UNL     1     -11.515  12.306  65.093  1.00  0.00    -0.341 A  
HETATM   26  C   UNL     1     -12.524  13.082  63.350  1.00  0.00    -0.270 C  
HETATM   27  C   UNL     1     -10.745  11.594  65.986  1.00  0.00    -0.328 A  
HETATM   28  O   UNL     1     -12.724  14.088  64.365  1.00  0.00    -0.663 OA 
HETATM   29  C   UNL     1     -10.976  13.468  67.527  1.00  0.00    -0.283 A  
HETATM   30  O   UNL     1     -11.831  11.912  63.829  1.00  0.00    -0.441 OA 
ENDBRANCH   6  22
TORSDOF 1
ENDMDL
MODEL       29
REMARK 921   NORMALIZED FREE ENERGY PREDICTED BY IDOCK:   -6.69 KCAL/MOL
REMARK 922        TOTAL FREE ENERGY PREDICTED BY IDOCK:   -7.13 KCAL/MOL
REMARK 923 INTER-LIGAND FREE ENERGY PREDICTED BY IDOCK:   -7.04 KCAL/MOL
REMARK 924 INTRA-LIGAND FREE ENERGY PREDICTED BY IDOCK:   -0.08 KCAL/MOL
REMARK 927      BINDING AFFINITY PREDICTED BY RF-SCORE:    0.00 PKD
ROOT
HETATM    1  C   UNL     1     -10.413  10.335  66.981  1.00  0.00    -0.244 C  
HETATM    2  C   UNL     1     -10.863  10.152  68.450  1.00  0.00    -0.284 C  
HETATM    3  C   UNL     1     -11.320  11.461  68.994  1.00  0.00    -0.345 A  
HETATM    4  C   UNL     1     -10.973  12.654  68.390  1.00  0.00    -0.257 A  
HETATM    5  N   UNL     1     -11.588  13.665  69.084  1.00  0.00    -0.287 NA 
HETATM    6  C   UNL     1     -10.124  12.831  67.147  1.00  0.00    -0.234 C  
HETATM    7  N   UNL     1      -9.513  11.506  66.821  1.00  0.00    -0.185 N  
HETATM    8  O   UNL     1     -10.710   7.996  66.491  1.00  0.00    -0.081 OA 
HETATM    9  C   UNL     1     -12.256  13.147  70.176  1.00  0.00    -0.290 A  
HETATM   10  H   UNL     1     -11.556  14.652  68.831  1.00  0.00     0.000 HD 
HETATM   11  C   UNL     1      -8.161  11.321  66.587  1.00  0.00    -0.164 C  
HETATM   12  C   UNL     1     -12.970  13.804  71.185  1.00  0.00    -0.370 A  
HETATM   13  C   UNL     1     -12.114  11.760  70.133  1.00  0.00    -0.398 A  
HETATM   14  C   UNL     1     -13.557  13.015  72.180  1.00  0.00    -0.618 A  
HETATM   15  O   UNL     1      -7.296  12.192  66.671  1.00  0.00     0.015 OA 
HETATM   16  C   UNL     1      -8.170   7.577  65.578  1.00  0.00    -0.135 C  
HETATM   17  C   UNL     1      -7.702   9.928  66.174  1.00  0.00    -0.107 C  
HETATM   18  C   UNL     1      -9.956   8.971  66.453  1.00  0.00    -0.300 C  
HETATM   19  C   UNL     1     -13.441  11.628  72.158  1.00  0.00    -0.238 A  
HETATM   20  N   UNL     1      -8.678   8.884  65.948  1.00  0.00    -0.159 N  
HETATM   21  C   UNL     1     -12.726  10.987  71.139  1.00  0.00    -0.521 A  
ENDROOT
BRANCH   6  22
HETATM   22  C   UNL     1      -9.186  14.030  67.197  1.00  0.00    -0.240 A  
HETATM   23  C   UNL     1      -8.335  16.134  66.253  1.00  0.00    -0.322 A  
HETATM   24  C   UNL     1      -7.680  16.350  67.445  1.00  0.00    -0.154 A  
HETATM   25  C   UNL     1      -7.742  15.446  68.478  1.00  0.00    -0.132 A  
HETATM   26  C   UNL     1      -6.628  17.172  69.139  1.00  0.00    -0.231 C  
HETATM   27  C   UNL     1      -8.463  14.276  68.382  1.00  0.00    -0.166 A  
HETATM   28  O   UNL     1      -6.943  17.449  67.759  1.00  0.00    -0.158 OA 
HETATM   29  C   UNL     1      -9.107  14.974  66.137  1.00  0.00    -0.237 A  
HETATM   30  O   UNL     1      -7.057  15.867  69.577  1.00  0.00    -0.203 OA 
ENDBRANCH   6  22
TORSDOF 1
ENDMDL
MODEL       30
REMARK 921   NORMALIZED FREE ENERGY PREDICTED BY IDOCK:   -6.62 KCAL/MOL
REMARK 922        TOTAL FREE ENERGY PREDICTED BY IDOCK:   -7.05 KCAL/MOL
REMARK 923 INTER-LIGAND FREE ENERGY PREDICTED BY IDOCK:   -7.14 KCAL/MOL
REMARK 924 INTRA-LIGAND FREE ENERGY PREDICTED BY IDOCK:    0.09 KCAL/MOL
REMARK 927      BINDING AFFINITY PREDICTED BY RF-SCORE:    0.00 PKD
ROOT
HETATM    1  C   UNL     1     -11.307  13.217  70.204  1.00  0.00     0.203 C  
HETATM    2  C   UNL     1     -11.568  12.080  69.187  1.00  0.00    -0.370 C  
HETATM    3  C   UNL     1     -10.400  11.958  68.270  1.00  0.00    -0.211 A  
HETATM    4  C   UNL     1      -9.482  12.981  68.132  1.00  0.00    -0.218 A  
HETATM    5  N   UNL     1      -8.505  12.548  67.272  1.00  0.00    -0.178 NA 
HETATM    6  C   UNL     1      -9.498  14.320  68.843  1.00  0.00    -0.069 C  
HETATM    7  N   UNL     1     -10.816  14.451  69.538  1.00  0.00    -0.196 N  
HETATM    8  O   UNL     1     -12.908  12.325  71.766  1.00  0.00    -0.331 OA 
HETATM    9  C   UNL     1      -8.825  11.295  66.790  1.00  0.00    -0.170 A  
HETATM   10  H   UNL     1      -7.667  13.075  67.026  1.00  0.00     0.000 HD 
HETATM   11  C   UNL     1     -11.640  15.556  69.417  1.00  0.00    -0.355 C  
HETATM   12  C   UNL     1      -8.155  10.496  65.856  1.00  0.00    -0.154 A  
HETATM   13  C   UNL     1     -10.007  10.896  67.414  1.00  0.00    -0.215 A  
HETATM   14  C   UNL     1      -8.713   9.249  65.553  1.00  0.00    -0.204 A  
HETATM   15  O   UNL     1     -11.430  16.528  68.694  1.00  0.00    -0.313 OA 
HETATM   16  C   UNL     1     -14.400  14.605  71.970  1.00  0.00    -0.558 C  
HETATM   17  C   UNL     1     -12.908  15.583  70.261  1.00  0.00    -0.195 C  
HETATM   18  C   UNL     1     -12.523  13.309  71.132  1.00  0.00    -0.308 C  
HETATM   19  C   UNL     1      -9.886   8.820  66.168  1.00  0.00    -0.297 A  
HETATM   20  N   UNL     1     -13.163  14.526  71.216  1.00  0.00    -0.345 N  
HETATM   21  C   UNL     1     -10.541   9.631  67.103  1.00  0.00    -0.298 A  
ENDROOT
BRANCH   6  22
HETATM   22  C   UNL     1      -9.055  15.492  67.977  1.00  0.00    -0.182 A  
HETATM   23  C   UNL     1      -9.063  16.712  65.843  1.00  0.00    -0.155 A  
HETATM   24  C   UNL     1      -8.478  17.771  66.499  1.00  0.00    -0.260 A  
HETATM   25  C   UNL     1      -8.164  17.710  67.836  1.00  0.00    -0.234 A  
HETATM   26  C   UNL     1      -7.720  19.695  67.115  1.00  0.00    -0.257 C  
HETATM   27  C   UNL     1      -8.417  16.588  68.594  1.00  0.00    -0.243 A  
HETATM   28  O   UNL     1      -8.176  18.978  65.949  1.00  0.00    -0.465 OA 
HETATM   29  C   UNL     1      -9.369  15.572  66.593  1.00  0.00    -0.291 A  
HETATM   30  O   UNL     1      -7.630  18.874  68.297  1.00  0.00    -0.267 OA 
ENDBRANCH   6  22
TORSDOF 1
ENDMDL
MODEL       31
REMARK 921   NORMALIZED FREE ENERGY PREDICTED BY IDOCK:   -6.61 KCAL/MOL
REMARK 922        TOTAL FREE ENERGY PREDICTED BY IDOCK:   -7.05 KCAL/MOL
REMARK 923 INTER-LIGAND FREE ENERGY PREDICTED BY IDOCK:   -7.13 KCAL/MOL
REMARK 924 INTRA-LIGAND FREE ENERGY PREDICTED BY IDOCK:    0.09 KCAL/MOL
REMARK 927      BINDING AFFINITY PREDICTED BY RF-SCORE:    0.00 PKD
ROOT
HETATM    1  C   UNL     1      -8.719  10.467  67.477  1.00  0.00    -0.125 C  
HETATM    2  C   UNL     1      -8.979   9.775  68.836  1.00  0.00    -0.144 C  
HETATM    3  C   UNL     1     -10.242  10.299  69.426  1.00  0.00    -0.255 A  
HETATM    4  C   UNL     1     -10.799  11.488  68.997  1.00  0.00    -0.212 A  
HETATM    5  N   UNL     1     -11.974  11.666  69.682  1.00  0.00    -0.322 NA 
HETATM    6  C   UNL     1     -10.261  12.410  67.920  1.00  0.00    -0.213 C  
HETATM    7  N   UNL     1      -8.885  11.942  67.567  1.00  0.00    -0.162 N  
HETATM    8  O   UNL     1      -7.279   8.689  66.729  1.00  0.00    -0.077 OA 
HETATM    9  C   UNL     1     -12.139  10.654  70.605  1.00  0.00    -0.365 A  
HETATM   10  H   UNL     1     -12.629  12.434  69.531  1.00  0.00     0.000 HD 
HETATM   11  C   UNL     1      -7.779  12.772  67.525  1.00  0.00    -0.168 C  
HETATM   12  C   UNL     1     -13.152  10.458  71.550  1.00  0.00    -0.532 A  
HETATM   13  C   UNL     1     -11.068   9.772  70.453  1.00  0.00    -0.367 A  
HETATM   14  C   UNL     1     -13.066   9.324  72.366  1.00  0.00    -0.481 A  
HETATM   15  O   UNL     1      -7.771  13.966  67.822  1.00  0.00    -0.139 OA 
HETATM   16  C   UNL     1      -5.130  10.282  66.178  1.00  0.00    -0.049 C  
HETATM   17  C   UNL     1      -6.461  12.168  67.058  1.00  0.00    -0.087 C  
HETATM   18  C   UNL     1      -7.418   9.902  66.898  1.00  0.00    -0.092 C  
HETATM   19  C   UNL     1     -12.014   8.422  72.231  1.00  0.00    -0.455 A  
HETATM   20  N   UNL     1      -6.422  10.800  66.588  1.00  0.00    -0.098 N  
HETATM   21  C   UNL     1     -11.012   8.631  71.277  1.00  0.00    -0.333 A  
ENDROOT
BRANCH   6  22
HETATM   22  C   UNL     1     -10.428  13.892  68.225  1.00  0.00    -0.252 A  
HETATM   23  C   UNL     1     -10.335  15.789  69.786  1.00  0.00    -0.307 A  
HETATM   24  C   UNL     1     -10.457  16.628  68.701  1.00  0.00    -0.323 A  
HETATM   25  C   UNL     1     -10.584  16.142  67.422  1.00  0.00    -0.311 A  
HETATM   26  C   UNL     1     -10.475  18.295  67.332  1.00  0.00    -0.409 C  
HETATM   27  C   UNL     1     -10.594  14.791  67.152  1.00  0.00    -0.285 A  
HETATM   28  O   UNL     1     -10.438  17.987  68.741  1.00  0.00    -0.326 OA 
HETATM   29  C   UNL     1     -10.303  14.412  69.542  1.00  0.00     0.027 A  
HETATM   30  O   UNL     1     -10.653  17.136  66.494  1.00  0.00    -0.272 OA 
ENDBRANCH   6  22
TORSDOF 1
ENDMDL
MODEL       32
REMARK 921   NORMALIZED FREE ENERGY PREDICTED BY IDOCK:   -6.54 KCAL/MOL
REMARK 922        TOTAL FREE ENERGY PREDICTED BY IDOCK:   -6.97 KCAL/MOL
REMARK 923 INTER-LIGAND FREE ENERGY PREDICTED BY IDOCK:   -7.00 KCAL/MOL
REMARK 924 INTRA-LIGAND FREE ENERGY PREDICTED BY IDOCK:    0.03 KCAL/MOL
REMARK 927      BINDING AFFINITY PREDICTED BY RF-SCORE:    0.00 PKD
ROOT
HETATM    1  C   UNL     1      -8.605   8.836  65.991  1.00  0.00    -0.148 C  
HETATM    2  C   UNL     1      -9.777   9.617  65.349  1.00  0.00    -0.365 C  
HETATM    3  C   UNL     1     -10.248  10.667  66.293  1.00  0.00    -0.304 A  
HETATM    4  C   UNL     1      -9.944  10.616  67.640  1.00  0.00    -0.169 A  
HETATM    5  N   UNL     1     -10.465  11.741  68.226  1.00  0.00    -0.199 NA 
HETATM    6  C   UNL     1      -9.128   9.553  68.349  1.00  0.00    -0.127 C  
HETATM    7  N   UNL     1      -8.913   8.428  67.387  1.00  0.00    -0.133 N  
HETATM    8  O   UNL     1      -7.797   8.084  63.851  1.00  0.00    -0.132 OA 
HETATM    9  C   UNL     1     -11.172  12.473  67.293  1.00  0.00    -0.295 A  
HETATM   10  H   UNL     1     -10.347  11.999  69.206  1.00  0.00     0.000 HD 
HETATM   11  C   UNL     1      -9.175   7.103  67.685  1.00  0.00    -0.125 C  
HETATM   12  C   UNL     1     -11.910  13.652  67.450  1.00  0.00    -0.429 A  
HETATM   13  C   UNL     1     -11.039  11.825  66.065  1.00  0.00    -0.363 A  
HETATM   14  C   UNL     1     -12.529  14.183  66.314  1.00  0.00    -0.395 A  
HETATM   15  O   UNL     1      -9.663   6.690  68.736  1.00  0.00    -0.131 OA 
HETATM   16  C   UNL     1      -7.846   5.420  64.454  1.00  0.00    -0.103 C  
HETATM   17  C   UNL     1      -8.817   6.060  66.634  1.00  0.00    -0.125 C  
HETATM   18  C   UNL     1      -8.142   7.771  64.992  1.00  0.00    -0.139 C  
HETATM   19  C   UNL     1     -12.406  13.564  65.073  1.00  0.00    -0.468 A  
HETATM   20  N   UNL     1      -8.138   6.462  65.421  1.00  0.00    -0.123 N  
HETATM   21  C   UNL     1     -11.661  12.387  64.934  1.00  0.00    -0.392 A  
ENDROOT
BRANCH   6  22
HETATM   22  C   UNL     1      -9.646   9.187  69.733  1.00  0.00    -0.191 A  
HETATM   23  C   UNL     1     -11.487   8.603  71.254  1.00  0.00    -0.341 A  
HETATM   24  C   UNL     1     -10.541   8.244  72.187  1.00  0.00    -0.310 A  
HETATM   25  C   UNL     1      -9.195   8.363  71.935  1.00  0.00    -0.238 A  
HETATM   26  C   UNL     1      -9.454   7.435  73.866  1.00  0.00    -0.263 C  
HETATM   27  C   UNL     1      -8.717   8.847  70.737  1.00  0.00    -0.245 A  
HETATM   28  O   UNL     1     -10.795   7.717  73.415  1.00  0.00    -0.380 OA 
HETATM   29  C   UNL     1     -11.034   9.061  70.012  1.00  0.00    -0.230 A  
HETATM   30  O   UNL     1      -8.432   7.920  72.971  1.00  0.00    -0.143 OA 
ENDBRANCH   6  22
TORSDOF 1
ENDMDL
MODEL       33
REMARK 921   NORMALIZED FREE ENERGY PREDICTED BY IDOCK:   -6.51 KCAL/MOL
REMARK 922        TOTAL FREE ENERGY PREDICTED BY IDOCK:   -6.94 KCAL/MOL
REMARK 923 INTER-LIGAND FREE ENERGY PREDICTED BY IDOCK:   -6.96 KCAL/MOL
REMARK 924 INTRA-LIGAND FREE ENERGY PREDICTED BY IDOCK:    0.01 KCAL/MOL
REMARK 927      BINDING AFFINITY PREDICTED BY RF-SCORE:    0.00 PKD
ROOT
HETATM    1  C   UNL     1     -10.421   8.864  69.817  1.00  0.00    -0.212 C  
HETATM    2  C   UNL     1     -10.430   7.730  68.764  1.00  0.00    -0.201 C  
HETATM    3  C   UNL     1      -9.689   8.175  67.551  1.00  0.00    -0.207 A  
HETATM    4  C   UNL     1      -9.442   9.512  67.307  1.00  0.00    -0.136 A  
HETATM    5  N   UNL     1      -8.699   9.593  66.157  1.00  0.00    -0.134 NA 
HETATM    6  C   UNL     1      -9.851  10.686  68.174  1.00  0.00    -0.155 C  
HETATM    7  N   UNL     1     -10.790  10.174  69.220  1.00  0.00    -0.223 N  
HETATM    8  O   UNL     1     -10.852   7.331  71.623  1.00  0.00    -0.220 OA 
HETATM    9  C   UNL     1      -8.537   8.335  65.612  1.00  0.00    -0.166 A  
HETATM   10  H   UNL     1      -8.323  10.455  65.763  1.00  0.00     0.000 HD 
HETATM   11  C   UNL     1     -12.022  10.743  69.490  1.00  0.00    -0.292 C  
HETATM   12  C   UNL     1      -7.903   7.946  64.426  1.00  0.00    -0.139 A  
HETATM   13  C   UNL     1      -9.140   7.423  66.479  1.00  0.00    -0.195 A  
HETATM   14  C   UNL     1      -7.886   6.581  64.120  1.00  0.00    -0.111 A  
HETATM   15  O   UNL     1     -12.521  11.687  68.881  1.00  0.00    -0.266 OA 
HETATM   16  C   UNL     1     -13.079   8.611  72.551  1.00  0.00    -0.289 C  
HETATM   17  C   UNL     1     -12.825  10.166  70.649  1.00  0.00    -0.240 C  
HETATM   18  C   UNL     1     -11.184   8.370  71.051  1.00  0.00    -0.266 C  
HETATM   19  C   UNL     1      -8.470   5.647  64.971  1.00  0.00    -0.135 A  
HETATM   20  N   UNL     1     -12.251   9.129  71.479  1.00  0.00    -0.328 N  
HETATM   21  C   UNL     1      -9.096   6.053  66.155  1.00  0.00    -0.159 A  
ENDROOT
BRANCH   6  22
HETATM   22  C   UNL     1     -10.294  11.915  67.392  1.00  0.00    -0.228 A  
HETATM   23  C   UNL     1     -10.033  14.281  66.778  1.00  0.00    -0.266 A  
HETATM   24  C   UNL     1     -10.928  14.066  65.754  1.00  0.00    -0.294 A  
HETATM   25  C   UNL     1     -11.513  12.840  65.550  1.00  0.00    -0.337 A  
HETATM   26  C   UNL     1     -12.135  14.169  63.968  1.00  0.00    -0.348 C  
HETATM   27  C   UNL     1     -11.237  11.757  66.356  1.00  0.00    -0.382 A  
HETATM   28  O   UNL     1     -11.313  14.985  64.828  1.00  0.00    -0.402 OA 
HETATM   29  C   UNL     1      -9.702  13.192  67.590  1.00  0.00    -0.213 A  
HETATM   30  O   UNL     1     -12.335  12.831  64.466  1.00  0.00    -0.417 OA 
ENDBRANCH   6  22
TORSDOF 1
ENDMDL
MODEL       34
REMARK 921   NORMALIZED FREE ENERGY PREDICTED BY IDOCK:   -6.47 KCAL/MOL
REMARK 922        TOTAL FREE ENERGY PREDICTED BY IDOCK:   -6.89 KCAL/MOL
REMARK 923 INTER-LIGAND FREE ENERGY PREDICTED BY IDOCK:   -7.42 KCAL/MOL
REMARK 924 INTRA-LIGAND FREE ENERGY PREDICTED BY IDOCK:    0.52 KCAL/MOL
REMARK 927      BINDING AFFINITY PREDICTED BY RF-SCORE:    0.00 PKD
ROOT
HETATM    1  C   UNL     1      -7.323  14.902  69.667  1.00  0.00    -0.153 C  
HETATM    2  C   UNL     1      -6.508  16.133  69.204  1.00  0.00    -0.166 C  
HETATM    3  C   UNL     1      -7.428  17.137  68.601  1.00  0.00    -0.245 A  
HETATM    4  C   UNL     1      -8.694  16.790  68.173  1.00  0.00    -0.219 A  
HETATM    5  N   UNL     1      -9.308  17.932  67.726  1.00  0.00    -0.259 NA 
HETATM    6  C   UNL     1      -9.332  15.417  68.237  1.00  0.00    -0.193 C  
HETATM    7  N   UNL     1      -8.267  14.438  68.617  1.00  0.00    -0.150 N  
HETATM    8  O   UNL     1      -5.610  14.222  71.217  1.00  0.00    -0.173 OA 
HETATM    9  C   UNL     1      -8.427  18.993  67.781  1.00  0.00    -0.293 A  
HETATM   10  H   UNL     1     -10.274  17.989  67.400  1.00  0.00     0.000 HD 
HETATM   11  C   UNL     1      -8.019  13.266  67.923  1.00  0.00    -0.159 C  
HETATM   12  C   UNL     1      -8.598  20.323  67.380  1.00  0.00    -0.420 A  
HETATM   13  C   UNL     1      -7.240  18.521  68.342  1.00  0.00    -0.292 A  
HETATM   14  C   UNL     1      -7.520  21.196  67.560  1.00  0.00    -0.114 A  
HETATM   15  O   UNL     1      -8.590  12.912  66.893  1.00  0.00    -0.195 OA 
HETATM   16  C   UNL     1      -5.318  11.695  70.219  1.00  0.00    -0.111 C  
HETATM   17  C   UNL     1      -6.962  12.324  68.486  1.00  0.00    -0.092 C  
HETATM   18  C   UNL     1      -6.349  13.894  70.285  1.00  0.00    -0.067 C  
HETATM   19  C   UNL     1      -6.327  20.756  68.126  1.00  0.00    -0.354 A  
HETATM   20  N   UNL     1      -6.330  12.624  69.753  1.00  0.00    -0.106 N  
HETATM   21  C   UNL     1      -6.174  19.423  68.525  1.00  0.00    -0.270 A  
ENDROOT
BRANCH   6  22
HETATM   22  C   UNL     1     -10.190  15.069  67.028  1.00  0.00    -0.257 A  
HETATM   23  C   UNL     1     -10.711  15.267  64.634  1.00  0.00    -0.226 A  
HETATM   24  C   UNL     1     -11.578  14.207  64.782  1.00  0.00    -0.396 A  
HETATM   25  C   UNL     1     -11.776  13.600  65.999  1.00  0.00    -0.358 A  
HETATM   26  C   UNL     1     -12.898  12.524  64.502  1.00  0.00    -0.262 C  
HETATM   27  C   UNL     1     -11.120  14.015  67.137  1.00  0.00    -0.313 A  
HETATM   28  O   UNL     1     -12.297  13.623  63.787  1.00  0.00    -0.671 OA 
HETATM   29  C   UNL     1     -10.000  15.687  65.763  1.00  0.00    -0.390 A  
HETATM   30  O   UNL     1     -12.641  12.552  65.921  1.00  0.00    -0.514 OA 
ENDBRANCH   6  22
TORSDOF 1
ENDMDL
MODEL       35
REMARK 921   NORMALIZED FREE ENERGY PREDICTED BY IDOCK:   -6.47 KCAL/MOL
REMARK 922        TOTAL FREE ENERGY PREDICTED BY IDOCK:   -6.89 KCAL/MOL
REMARK 923 INTER-LIGAND FREE ENERGY PREDICTED BY IDOCK:   -6.77 KCAL/MOL
REMARK 924 INTRA-LIGAND FREE ENERGY PREDICTED BY IDOCK:   -0.12 KCAL/MOL
REMARK 927      BINDING AFFINITY PREDICTED BY RF-SCORE:    0.00 PKD
ROOT
HETATM    1  C   UNL     1      -9.183   8.388  69.990  1.00  0.00    -0.158 C  
HETATM    2  C   UNL     1      -9.275   7.362  68.836  1.00  0.00    -0.142 C  
HETATM    3  C   UNL     1      -8.928   8.029  67.551  1.00  0.00    -0.143 A  
HETATM    4  C   UNL     1      -8.954   9.405  67.423  1.00  0.00    -0.124 A  
HETATM    5  N   UNL     1      -8.534   9.711  66.153  1.00  0.00    -0.119 NA 
HETATM    6  C   UNL     1      -9.313  10.412  68.496  1.00  0.00    -0.160 C  
HETATM    7  N   UNL     1      -9.880   9.658  69.656  1.00  0.00    -0.201 N  
HETATM    8  O   UNL     1      -8.923   6.659  71.645  1.00  0.00    -0.141 OA 
HETATM    9  C   UNL     1      -8.320   8.551  65.436  1.00  0.00    -0.156 A  
HETATM   10  H   UNL     1      -8.400  10.655  65.792  1.00  0.00     0.000 HD 
HETATM   11  C   UNL     1     -11.082   9.975  70.266  1.00  0.00    -0.318 C  
HETATM   12  C   UNL     1      -7.941   8.380  64.099  1.00  0.00    -0.151 A  
HETATM   13  C   UNL     1      -8.548   7.478  66.298  1.00  0.00    -0.153 A  
HETATM   14  C   UNL     1      -7.792   7.069  63.632  1.00  0.00    -0.112 A  
HETATM   15  O   UNL     1     -11.852  10.864  69.905  1.00  0.00    -0.288 OA 
HETATM   16  C   UNL     1     -11.026   7.444  73.202  1.00  0.00    -0.359 C  
HETATM   17  C   UNL     1     -11.482   9.172  71.496  1.00  0.00    -0.367 C  
HETATM   18  C   UNL     1      -9.539   7.667  71.294  1.00  0.00    -0.157 C  
HETATM   19  C   UNL     1      -8.003   5.980  64.472  1.00  0.00    -0.127 A  
HETATM   20  N   UNL     1     -10.572   8.187  72.042  1.00  0.00    -0.247 N  
HETATM   21  C   UNL     1      -8.377   6.169  65.808  1.00  0.00    -0.143 A  
ENDROOT
BRANCH   6  22
HETATM   22  C   UNL     1     -10.115  11.605  67.991  1.00  0.00    -0.198 A  
HETATM   23  C   UNL     1     -10.468  14.030  67.796  1.00  0.00    -0.236 A  
HETATM   24  C   UNL     1     -11.414  13.767  66.830  1.00  0.00    -0.347 A  
HETATM   25  C   UNL     1     -11.731  12.482  66.458  1.00  0.00    -0.391 A  
HETATM   26  C   UNL     1     -12.828  13.852  65.202  1.00  0.00    -0.342 C  
HETATM   27  C   UNL     1     -11.121  11.386  67.028  1.00  0.00    -0.364 A  
HETATM   28  O   UNL     1     -12.108  14.698  66.123  1.00  0.00    -0.318 OA 
HETATM   29  C   UNL     1      -9.803  12.940  68.366  1.00  0.00    -0.197 A  
HETATM   30  O   UNL     1     -12.660  12.444  65.464  1.00  0.00    -0.616 OA 
ENDBRANCH   6  22
TORSDOF 1
ENDMDL
MODEL       36
REMARK 921   NORMALIZED FREE ENERGY PREDICTED BY IDOCK:   -6.46 KCAL/MOL
REMARK 922        TOTAL FREE ENERGY PREDICTED BY IDOCK:   -6.89 KCAL/MOL
REMARK 923 INTER-LIGAND FREE ENERGY PREDICTED BY IDOCK:   -6.77 KCAL/MOL
REMARK 924 INTRA-LIGAND FREE ENERGY PREDICTED BY IDOCK:   -0.11 KCAL/MOL
REMARK 927      BINDING AFFINITY PREDICTED BY RF-SCORE:    0.00 PKD
ROOT
HETATM    1  C   UNL     1      -8.167   9.238  64.797  1.00  0.00    -0.149 C  
HETATM    2  C   UNL     1      -9.432   9.916  64.217  1.00  0.00    -0.280 C  
HETATM    3  C   UNL     1      -9.951  10.913  65.194  1.00  0.00    -0.341 A  
HETATM    4  C   UNL     1      -9.583  10.878  66.524  1.00  0.00    -0.194 A  
HETATM    5  N   UNL     1     -10.174  11.949  67.146  1.00  0.00    -0.207 NA 
HETATM    6  C   UNL     1      -8.644   9.887  67.184  1.00  0.00    -0.125 C  
HETATM    7  N   UNL     1      -8.374   8.793  66.200  1.00  0.00    -0.119 N  
HETATM    8  O   UNL     1      -7.395   8.577  62.615  1.00  0.00    -0.094 OA 
HETATM    9  C   UNL     1     -10.985  12.622  66.255  1.00  0.00    -0.283 A  
HETATM   10  H   UNL     1     -10.035  12.208  68.123  1.00  0.00     0.000 HD 
HETATM   11  C   UNL     1      -8.504   7.447  66.495  1.00  0.00    -0.128 C  
HETATM   12  C   UNL     1     -11.816  13.729  66.458  1.00  0.00    -0.438 A  
HETATM   13  C   UNL     1     -10.851  11.997  65.015  1.00  0.00    -0.351 A  
HETATM   14  C   UNL     1     -12.532  14.212  65.357  1.00  0.00    -0.488 A  
HETATM   15  O   UNL     1      -8.906   6.985  67.562  1.00  0.00    -0.120 OA 
HETATM   16  C   UNL     1      -7.180   5.915  63.189  1.00  0.00    -0.053 C  
HETATM   17  C   UNL     1      -8.103   6.449  65.417  1.00  0.00    -0.128 C  
HETATM   18  C   UNL     1      -7.658   8.225  63.766  1.00  0.00    -0.134 C  
HETATM   19  C   UNL     1     -12.410  13.615  64.105  1.00  0.00    -0.385 A  
HETATM   20  N   UNL     1      -7.518   6.919  64.179  1.00  0.00    -0.094 N  
HETATM   21  C   UNL     1     -11.571  12.510  63.918  1.00  0.00    -0.516 A  
ENDROOT
BRANCH   6  22
HETATM   22  C   UNL     1      -9.065   9.466  68.586  1.00  0.00    -0.132 A  
HETATM   23  C   UNL     1      -8.542   9.040  70.950  1.00  0.00    -0.263 A  
HETATM   24  C   UNL     1      -9.896   8.977  71.189  1.00  0.00    -0.300 A  
HETATM   25  C   UNL     1     -10.817   9.127  70.181  1.00  0.00    -0.240 A  
HETATM   26  C   UNL     1     -11.872   8.944  72.055  1.00  0.00    -0.368 C  
HETATM   27  C   UNL     1     -10.439   9.350  68.875  1.00  0.00    -0.236 A  
HETATM   28  O   UNL     1     -10.481   8.798  72.405  1.00  0.00    -0.305 OA 
HETATM   29  C   UNL     1      -8.126   9.305  69.641  1.00  0.00    -0.116 A  
HETATM   30  O   UNL     1     -12.099   9.068  70.636  1.00  0.00    -0.186 OA 
ENDBRANCH   6  22
TORSDOF 1
ENDMDL
MODEL       37
REMARK 921   NORMALIZED FREE ENERGY PREDICTED BY IDOCK:   -6.46 KCAL/MOL
REMARK 922        TOTAL FREE ENERGY PREDICTED BY IDOCK:   -6.88 KCAL/MOL
REMARK 923 INTER-LIGAND FREE ENERGY PREDICTED BY IDOCK:   -6.84 KCAL/MOL
REMARK 924 INTRA-LIGAND FREE ENERGY PREDICTED BY IDOCK:   -0.05 KCAL/MOL
REMARK 927      BINDING AFFINITY PREDICTED BY RF-SCORE:    0.00 PKD
ROOT
HETATM    1  C   UNL     1     -11.416  10.597  68.959  1.00  0.00    -0.274 C  
HETATM    2  C   UNL     1     -11.287  11.338  70.312  1.00  0.00    -0.179 C  
HETATM    3  C   UNL     1     -12.045  12.618  70.249  1.00  0.00    -0.372 A  
HETATM    4  C   UNL     1     -12.409  13.182  69.041  1.00  0.00     0.098 A  
HETATM    5  N   UNL     1     -13.138  14.312  69.314  1.00  0.00     0.415 NA 
HETATM    6  C   UNL     1     -12.122  12.635  67.657  1.00  0.00    -0.103 C  
HETATM    7  N   UNL     1     -11.158  11.501  67.808  1.00  0.00    -0.240 N  
HETATM    8  O   UNL     1     -10.876   8.472  69.954  1.00  0.00    -0.237 OA 
HETATM    9  C   UNL     1     -13.177  14.529  70.677  1.00  0.00    -0.176 A  
HETATM   10  H   UNL     1     -13.585  14.904  68.614  1.00  0.00     0.000 HD 
HETATM   11  C   UNL     1      -9.987  11.388  67.080  1.00  0.00    -0.201 C  
HETATM   12  C   UNL     1     -13.754  15.577  71.402  1.00  0.00    -0.532 A  
HETATM   13  C   UNL     1     -12.508  13.468  71.288  1.00  0.00    -0.388 A  
HETATM   14  C   UNL     1     -13.643  15.538  72.796  1.00  0.00    -0.653 A  
HETATM   15  O   UNL     1      -9.565  12.215  66.272  1.00  0.00    -0.229 OA 
HETATM   16  C   UNL     1      -8.789   7.903  68.286  1.00  0.00    -0.129 C  
HETATM   17  C   UNL     1      -9.153  10.129  67.277  1.00  0.00    -0.138 C  
HETATM   18  C   UNL     1     -10.630   9.285  69.061  1.00  0.00    -0.205 C  
HETATM   19  C   UNL     1     -12.989  14.487  73.434  1.00  0.00    -0.381 A  
HETATM   20  N   UNL     1      -9.644   9.064  68.126  1.00  0.00    -0.146 N  
HETATM   21  C   UNL     1     -12.422  13.444  72.694  1.00  0.00     0.410 A  
ENDROOT
BRANCH   6  22
HETATM   22  C   UNL     1     -11.780  13.698  66.623  1.00  0.00    -0.420 A  
HETATM   23  C   UNL     1     -11.963  14.628  64.354  1.00  0.00    -0.454 A  
HETATM   24  C   UNL     1     -11.387  15.784  64.832  1.00  0.00    -0.280 A  
HETATM   25  C   UNL     1     -10.995  15.909  66.143  1.00  0.00    -0.126 A  
HETATM   26  C   UNL     1     -10.678  17.797  65.148  1.00  0.00     0.405 C  
HETATM   27  C   UNL     1     -11.156  14.887  67.053  1.00  0.00    -0.338 A  
HETATM   28  O   UNL     1     -11.168  16.919  64.115  1.00  0.00    -1.176 OA 
HETATM   29  C   UNL     1     -12.176  13.586  65.262  1.00  0.00    -0.474 A  
HETATM   30  O   UNL     1     -10.485  17.141  66.418  1.00  0.00    -0.313 OA 
ENDBRANCH   6  22
TORSDOF 1
ENDMDL
MODEL       38
REMARK 921   NORMALIZED FREE ENERGY PREDICTED BY IDOCK:   -6.45 KCAL/MOL
REMARK 922        TOTAL FREE ENERGY PREDICTED BY IDOCK:   -6.87 KCAL/MOL
REMARK 923 INTER-LIGAND FREE ENERGY PREDICTED BY IDOCK:   -6.75 KCAL/MOL
REMARK 924 INTRA-LIGAND FREE ENERGY PREDICTED BY IDOCK:   -0.12 KCAL/MOL
REMARK 927      BINDING AFFINITY PREDICTED BY RF-SCORE:    0.00 PKD
ROOT
HETATM    1  C   UNL     1     -11.388   8.777  70.503  1.00  0.00    -0.227 C  
HETATM    2  C   UNL     1     -11.305  10.320  70.594  1.00  0.00    -0.431 C  
HETATM    3  C   UNL     1     -11.227  10.893  69.222  1.00  0.00    -0.327 A  
HETATM    4  C   UNL     1     -10.863  10.119  68.137  1.00  0.00    -0.262 A  
HETATM    5  N   UNL     1     -10.940  10.911  67.019  1.00  0.00    -0.269 NA 
HETATM    6  C   UNL     1     -10.504   8.647  68.148  1.00  0.00    -0.187 C  
HETATM    7  N   UNL     1     -10.367   8.223  69.576  1.00  0.00    -0.215 N  
HETATM    8  O   UNL     1     -12.360   8.597  72.699  1.00  0.00    -0.372 OA 
HETATM    9  C   UNL     1     -11.266  12.203  67.379  1.00  0.00    -0.302 A  
HETATM   10  H   UNL     1     -10.780  10.591  66.064  1.00  0.00     0.000 HD 
HETATM   11  C   UNL     1      -9.271   7.539  70.072  1.00  0.00    -0.151 C  
HETATM   12  C   UNL     1     -11.400  13.348  66.586  1.00  0.00    -0.350 A  
HETATM   13  C   UNL     1     -11.466  12.214  68.759  1.00  0.00    -0.359 A  
HETATM   14  C   UNL     1     -11.748  14.542  67.227  1.00  0.00    -0.429 A  
HETATM   15  O   UNL     1      -8.262   7.247  69.432  1.00  0.00    -0.127 OA 
HETATM   16  C   UNL     1     -10.487   6.875  73.694  1.00  0.00    -0.369 C  
HETATM   17  C   UNL     1      -9.318   7.094  71.528  1.00  0.00    -0.153 C  
HETATM   18  C   UNL     1     -11.473   8.223  71.929  1.00  0.00    -0.310 C  
HETATM   19  C   UNL     1     -11.963  14.581  68.601  1.00  0.00    -0.320 A  
HETATM   20  N   UNL     1     -10.519   7.305  72.308  1.00  0.00    -0.208 N  
HETATM   21  C   UNL     1     -11.830  13.425  69.379  1.00  0.00    -0.390 A  
ENDROOT
BRANCH   6  22
HETATM   22  C   UNL     1      -9.367   8.273  67.206  1.00  0.00    -0.181 A  
HETATM   23  C   UNL     1      -8.407   6.831  65.462  1.00  0.00    -0.143 A  
HETATM   24  C   UNL     1      -7.415   7.772  65.296  1.00  0.00    -0.082 A  
HETATM   25  C   UNL     1      -7.367   8.915  66.057  1.00  0.00    -0.090 A  
HETATM   26  C   UNL     1      -5.787   8.999  64.590  1.00  0.00    -0.064 C  
HETATM   27  C   UNL     1      -8.307   9.185  67.028  1.00  0.00    -0.120 A  
HETATM   28  O   UNL     1      -6.414   7.718  64.377  1.00  0.00    -0.051 OA 
HETATM   29  C   UNL     1      -9.399   7.095  66.412  1.00  0.00    -0.190 A  
HETATM   30  O   UNL     1      -6.332   9.727  65.709  1.00  0.00    -0.071 OA 
ENDBRANCH   6  22
TORSDOF 1
ENDMDL
MODEL       39
REMARK 921   NORMALIZED FREE ENERGY PREDICTED BY IDOCK:   -6.36 KCAL/MOL
REMARK 922        TOTAL FREE ENERGY PREDICTED BY IDOCK:   -6.78 KCAL/MOL
REMARK 923 INTER-LIGAND FREE ENERGY PREDICTED BY IDOCK:   -6.82 KCAL/MOL
REMARK 924 INTRA-LIGAND FREE ENERGY PREDICTED BY IDOCK:    0.04 KCAL/MOL
REMARK 927      BINDING AFFINITY PREDICTED BY RF-SCORE:    0.00 PKD
ROOT
HETATM    1  C   UNL     1      -9.359  15.875  65.768  1.00  0.00    -0.245 C  
HETATM    2  C   UNL     1      -9.372  17.341  66.264  1.00  0.00    -0.248 C  
HETATM    3  C   UNL     1      -8.033  17.690  66.815  1.00  0.00    -0.268 A  
HETATM    4  C   UNL     1      -7.128  16.713  67.183  1.00  0.00    -0.186 A  
HETATM    5  N   UNL     1      -5.981  17.344  67.593  1.00  0.00    -0.134 NA 
HETATM    6  C   UNL     1      -7.323  15.212  67.096  1.00  0.00    -0.110 C  
HETATM    7  N   UNL     1      -8.762  14.958  66.774  1.00  0.00    -0.253 N  
HETATM    8  O   UNL     1     -11.238  16.243  64.308  1.00  0.00    -0.770 OA 
HETATM    9  C   UNL     1      -6.164  18.712  67.574  1.00  0.00    -0.179 A  
HETATM   10  H   UNL     1      -5.121  16.872  67.870  1.00  0.00     0.000 HD 
HETATM   11  C   UNL     1      -9.564  14.084  67.486  1.00  0.00    -0.228 C  
HETATM   12  C   UNL     1      -5.294  19.739  67.958  1.00  0.00    -0.199 A  
HETATM   13  C   UNL     1      -7.444  18.955  67.075  1.00  0.00    -0.226 A  
HETATM   14  C   UNL     1      -5.749  21.055  67.826  1.00  0.00    -0.372 A  
HETATM   15  O   UNL     1      -9.224  13.458  68.489  1.00  0.00    -0.171 OA 
HETATM   16  C   UNL     1     -12.785  14.239  65.334  1.00  0.00    -0.369 C  
HETATM   17  C   UNL     1     -10.984  13.861  66.981  1.00  0.00    -0.295 C  
HETATM   18  C   UNL     1     -10.747  15.554  65.204  1.00  0.00    -0.440 C  
HETATM   19  C   UNL     1      -7.017  21.329  67.321  1.00  0.00    -0.284 A  
HETATM   20  N   UNL     1     -11.415  14.477  65.744  1.00  0.00    -0.340 N  
HETATM   21  C   UNL     1      -7.873  20.290  66.938  1.00  0.00    -0.351 A  
ENDROOT
BRANCH   6  22
HETATM   22  C   UNL     1      -6.730  14.436  68.264  1.00  0.00    -0.114 A  
HETATM   23  C   UNL     1      -6.362  14.128  70.675  1.00  0.00    -0.053 A  
HETATM   24  C   UNL     1      -5.891  12.865  70.394  1.00  0.00    -0.152 A  
HETATM   25  C   UNL     1      -5.812  12.392  69.107  1.00  0.00    -0.075 A  
HETATM   26  C   UNL     1      -5.236  10.810  70.458  1.00  0.00    -0.079 C  
HETATM   27  C   UNL     1      -6.200  13.152  68.025  1.00  0.00    -0.117 A  
HETATM   28  O   UNL     1      -5.490  11.945  71.312  1.00  0.00    -0.337 OA 
HETATM   29  C   UNL     1      -6.801  14.911  69.602  1.00  0.00    -0.181 A  
HETATM   30  O   UNL     1      -5.356  11.111  69.052  1.00  0.00    -0.041 OA 
ENDBRANCH   6  22
TORSDOF 1
ENDMDL
MODEL       40
REMARK 921   NORMALIZED FREE ENERGY PREDICTED BY IDOCK:   -6.32 KCAL/MOL
REMARK 922        TOTAL FREE ENERGY PREDICTED BY IDOCK:   -6.74 KCAL/MOL
REMARK 923 INTER-LIGAND FREE ENERGY PREDICTED BY IDOCK:   -6.76 KCAL/MOL
REMARK 924 INTRA-LIGAND FREE ENERGY PREDICTED BY IDOCK:    0.02 KCAL/MOL
REMARK 927      BINDING AFFINITY PREDICTED BY RF-SCORE:    0.00 PKD
ROOT
HETATM    1  C   UNL     1      -9.509   7.549  66.367  1.00  0.00    -0.147 C  
HETATM    2  C   UNL     1      -9.228   7.207  67.850  1.00  0.00    -0.129 C  
HETATM    3  C   UNL     1     -10.062   8.077  68.725  1.00  0.00    -0.206 A  
HETATM    4  C   UNL     1     -10.631   9.243  68.251  1.00  0.00    -0.189 A  
HETATM    5  N   UNL     1     -11.377   9.783  69.267  1.00  0.00    -0.441 NA 
HETATM    6  C   UNL     1     -10.518   9.806  66.848  1.00  0.00    -0.211 C  
HETATM    7  N   UNL     1      -9.476   9.014  66.123  1.00  0.00    -0.233 N  
HETATM    8  O   UNL     1      -8.705   5.407  65.615  1.00  0.00    -0.143 OA 
HETATM    9  C   UNL     1     -11.229   9.028  70.413  1.00  0.00    -0.241 A  
HETATM   10  H   UNL     1     -11.956  10.619  69.188  1.00  0.00     0.000 HD 
HETATM   11  C   UNL     1      -8.420   9.584  65.435  1.00  0.00    -0.148 C  
HETATM   12  C   UNL     1     -11.755   9.229  71.694  1.00  0.00    -0.462 A  
HETATM   13  C   UNL     1     -10.416   7.940  70.094  1.00  0.00    -0.231 A  
HETATM   14  C   UNL     1     -11.438   8.287  72.679  1.00  0.00    -0.423 A  
HETATM   15  O   UNL     1      -8.171  10.787  65.378  1.00  0.00    -0.151 OA 
HETATM   16  C   UNL     1      -6.855   6.402  63.868  1.00  0.00    -0.041 C  
HETATM   17  C   UNL     1      -7.493   8.650  64.667  1.00  0.00    -0.102 C  
HETATM   18  C   UNL     1      -8.641   6.633  65.498  1.00  0.00    -0.093 C  
HETATM   19  C   UNL     1     -10.638   7.186  72.387  1.00  0.00    -0.257 A  
HETATM   20  N   UNL     1      -7.791   7.236  64.598  1.00  0.00    -0.119 N  
HETATM   21  C   UNL     1     -10.124   6.998  71.098  1.00  0.00    -0.197 A  
ENDROOT
BRANCH   6  22
HETATM   22  C   UNL     1     -10.394  11.323  66.792  1.00  0.00    -0.278 A  
HETATM   23  C   UNL     1      -9.345  13.423  67.522  1.00  0.00    -0.218 A  
HETATM   24  C   UNL     1      -9.980  14.050  66.473  1.00  0.00    -0.284 A  
HETATM   25  C   UNL     1     -10.811  13.368  65.618  1.00  0.00    -0.283 A  
HETATM   26  C   UNL     1     -10.626  15.401  64.920  1.00  0.00    -0.352 C  
HETATM   27  C   UNL     1     -11.055  12.019  65.759  1.00  0.00    -0.371 A  
HETATM   28  O   UNL     1      -9.852  15.362  66.137  1.00  0.00    -0.268 OA 
HETATM   29  C   UNL     1      -9.541  12.046  67.669  1.00  0.00    -0.188 A  
HETATM   30  O   UNL     1     -11.306  14.163  64.631  1.00  0.00    -0.359 OA 
ENDBRANCH   6  22
TORSDOF 1
ENDMDL
MODEL       41
REMARK 921   NORMALIZED FREE ENERGY PREDICTED BY IDOCK:   -6.29 KCAL/MOL
REMARK 922        TOTAL FREE ENERGY PREDICTED BY IDOCK:   -6.71 KCAL/MOL
REMARK 923 INTER-LIGAND FREE ENERGY PREDICTED BY IDOCK:   -6.60 KCAL/MOL
REMARK 924 INTRA-LIGAND FREE ENERGY PREDICTED BY IDOCK:   -0.11 KCAL/MOL
REMARK 927      BINDING AFFINITY PREDICTED BY RF-SCORE:    0.00 PKD
ROOT
HETATM    1  C   UNL     1      -9.595  14.034  66.138  1.00  0.00    -0.241 C  
HETATM    2  C   UNL     1      -9.013  14.920  67.265  1.00  0.00    -0.212 C  
HETATM    3  C   UNL     1      -8.156  14.088  68.156  1.00  0.00    -0.151 A  
HETATM    4  C   UNL     1      -8.255  12.710  68.170  1.00  0.00    -0.170 A  
HETATM    5  N   UNL     1      -7.306  12.236  69.040  1.00  0.00    -0.289 NA 
HETATM    6  C   UNL     1      -9.189  11.856  67.337  1.00  0.00    -0.177 C  
HETATM    7  N   UNL     1     -10.168  12.770  66.670  1.00  0.00    -0.235 N  
HETATM    8  O   UNL     1      -9.997  15.933  64.712  1.00  0.00    -0.228 OA 
HETATM    9  C   UNL     1      -6.656  13.290  69.648  1.00  0.00     0.002 A  
HETATM   10  H   UNL     1      -7.111  11.250  69.211  1.00  0.00     0.000 HD 
HETATM   11  C   UNL     1     -11.539  12.586  66.708  1.00  0.00    -0.382 C  
HETATM   12  C   UNL     1      -5.663  13.283  70.634  1.00  0.00    -0.176 A  
HETATM   13  C   UNL     1      -7.164  14.468  69.098  1.00  0.00    -0.138 A  
HETATM   14  C   UNL     1      -5.175  14.520  71.069  1.00  0.00    -0.135 A  
HETATM   15  O   UNL     1     -12.123  11.699  67.329  1.00  0.00    -0.595 OA 
HETATM   16  C   UNL     1     -12.658  15.441  64.336  1.00  0.00     0.212 C  
HETATM   17  C   UNL     1     -12.402  13.548  65.902  1.00  0.00    -0.456 C  
HETATM   18  C   UNL     1     -10.464  14.921  65.240  1.00  0.00    -0.404 C  
HETATM   19  C   UNL     1      -5.655  15.711  70.531  1.00  0.00    -0.119 A  
HETATM   20  N   UNL     1     -11.776  14.544  65.059  1.00  0.00    -0.377 N  
HETATM   21  C   UNL     1      -6.646  15.699  69.543  1.00  0.00    -0.179 A  
ENDROOT
BRANCH   6  22
HETATM   22  C   UNL     1      -9.761  10.653  68.074  1.00  0.00    -0.170 A  
HETATM   23  C   UNL     1     -10.201   8.239  68.234  1.00  0.00    -0.246 A  
HETATM   24  C   UNL     1     -10.548   8.437  69.552  1.00  0.00    -0.213 A  
HETATM   25  C   UNL     1     -10.531   9.686  70.125  1.00  0.00    -0.273 A  
HETATM   26  C   UNL     1     -11.022   8.238  71.647  1.00  0.00    -0.264 C  
HETATM   27  C   UNL     1     -10.166  10.810  69.415  1.00  0.00    -0.187 A  
HETATM   28  O   UNL     1     -10.905   7.466  70.434  1.00  0.00    -0.233 OA 
HETATM   29  C   UNL     1      -9.788   9.354  67.497  1.00  0.00    -0.220 A  
HETATM   30  O   UNL     1     -10.870   9.657  71.443  1.00  0.00    -0.340 OA 
ENDBRANCH   6  22
TORSDOF 1
ENDMDL
MODEL       42
REMARK 921   NORMALIZED FREE ENERGY PREDICTED BY IDOCK:   -6.26 KCAL/MOL
REMARK 922        TOTAL FREE ENERGY PREDICTED BY IDOCK:   -6.67 KCAL/MOL
REMARK 923 INTER-LIGAND FREE ENERGY PREDICTED BY IDOCK:   -6.88 KCAL/MOL
REMARK 924 INTRA-LIGAND FREE ENERGY PREDICTED BY IDOCK:    0.21 KCAL/MOL
REMARK 927      BINDING AFFINITY PREDICTED BY RF-SCORE:    0.00 PKD
ROOT
HETATM    1  C   UNL     1      -9.904  13.579  66.148  1.00  0.00    -0.283 C  
HETATM    2  C   UNL     1      -8.972  14.813  66.081  1.00  0.00    -0.061 C  
HETATM    3  C   UNL     1      -8.425  15.094  67.437  1.00  0.00    -0.202 A  
HETATM    4  C   UNL     1      -9.018  14.580  68.575  1.00  0.00    -0.188 A  
HETATM    5  N   UNL     1      -8.256  14.965  69.649  1.00  0.00    -0.428 NA 
HETATM    6  C   UNL     1     -10.247  13.696  68.641  1.00  0.00    -0.197 C  
HETATM    7  N   UNL     1     -10.864  13.673  67.278  1.00  0.00    -0.282 N  
HETATM    8  O   UNL     1      -9.672  13.147  63.790  1.00  0.00     0.091 OA 
HETATM    9  C   UNL     1      -7.231  15.788  69.228  1.00  0.00    -0.211 A  
HETATM   10  H   UNL     1      -8.423  14.684  70.615  1.00  0.00     0.000 HD 
HETATM   11  C   UNL     1     -12.203  13.927  67.038  1.00  0.00    -0.355 C  
HETATM   12  C   UNL     1      -6.251  16.453  69.974  1.00  0.00    -0.102 A  
HETATM   13  C   UNL     1      -7.308  15.873  67.838  1.00  0.00    -0.148 A  
HETATM   14  C   UNL     1      -5.321  17.229  69.274  1.00  0.00    -0.162 A  
HETATM   15  O   UNL     1     -13.031  14.254  67.886  1.00  0.00     0.987 OA 
HETATM   16  C   UNL     1     -12.347  13.184  63.235  1.00  0.00    -0.283 C  
HETATM   17  C   UNL     1     -12.703  13.774  65.607  1.00  0.00    -0.478 C  
HETATM   18  C   UNL     1     -10.443  13.316  64.738  1.00  0.00    -0.384 C  
HETATM   19  C   UNL     1      -5.366  17.325  67.886  1.00  0.00    -0.121 A  
HETATM   20  N   UNL     1     -11.810  13.285  64.579  1.00  0.00    -0.368 N  
HETATM   21  C   UNL     1      -6.351  16.649  67.155  1.00  0.00    -0.219 A  
ENDROOT
BRANCH   6  22
HETATM   22  C   UNL     1     -11.172  13.999  69.812  1.00  0.00    -0.175 A  
HETATM   23  C   UNL     1     -12.782  13.273  71.523  1.00  0.00    -0.376 A  
HETATM   24  C   UNL     1     -12.631  14.505  72.120  1.00  0.00    -0.314 A  
HETATM   25  C   UNL     1     -11.807  15.470  71.591  1.00  0.00    -0.415 A  
HETATM   26  C   UNL     1     -12.605  16.196  73.460  1.00  0.00    -0.569 C  
HETATM   27  C   UNL     1     -11.085  15.259  70.437  1.00  0.00    -0.324 A  
HETATM   28  O   UNL     1     -13.223  14.905  73.277  1.00  0.00    -0.494 OA 
HETATM   29  C   UNL     1     -12.032  13.015  70.371  1.00  0.00    -0.337 A  
HETATM   30  O   UNL     1     -11.772  16.597  72.353  1.00  0.00    -0.480 OA 
ENDBRANCH   6  22
TORSDOF 1
ENDMDL
MODEL       43
REMARK 921   NORMALIZED FREE ENERGY PREDICTED BY IDOCK:   -6.22 KCAL/MOL
REMARK 922        TOTAL FREE ENERGY PREDICTED BY IDOCK:   -6.64 KCAL/MOL
REMARK 923 INTER-LIGAND FREE ENERGY PREDICTED BY IDOCK:   -6.66 KCAL/MOL
REMARK 924 INTRA-LIGAND FREE ENERGY PREDICTED BY IDOCK:    0.02 KCAL/MOL
REMARK 927      BINDING AFFINITY PREDICTED BY RF-SCORE:    0.00 PKD
ROOT
HETATM    1  C   UNL     1      -8.873   7.969  66.579  1.00  0.00    -0.151 C  
HETATM    2  C   UNL     1      -9.859   9.075  66.132  1.00  0.00    -0.349 C  
HETATM    3  C   UNL     1     -10.264   9.884  67.314  1.00  0.00    -0.277 A  
HETATM    4  C   UNL     1     -10.096   9.414  68.602  1.00  0.00    -0.190 A  
HETATM    5  N   UNL     1     -10.506  10.402  69.461  1.00  0.00    -0.236 NA 
HETATM    6  C   UNL     1      -9.507   8.079  69.014  1.00  0.00    -0.151 C  
HETATM    7  N   UNL     1      -9.363   7.245  67.781  1.00  0.00    -0.128 N  
HETATM    8  O   UNL     1      -7.983   7.719  64.355  1.00  0.00    -0.133 OA 
HETATM    9  C   UNL     1     -11.014  11.467  68.745  1.00  0.00    -0.223 A  
HETATM   10  H   UNL     1     -10.445  10.356  70.478  1.00  0.00     0.000 HD 
HETATM   11  C   UNL     1      -9.836   5.949  67.672  1.00  0.00    -0.121 C  
HETATM   12  C   UNL     1     -11.590  12.659  69.198  1.00  0.00    -0.374 A  
HETATM   13  C   UNL     1     -10.860  11.171  67.390  1.00  0.00    -0.317 A  
HETATM   14  C   UNL     1     -12.021  13.577  68.234  1.00  0.00    -0.377 A  
HETATM   15  O   UNL     1     -10.472   5.346  68.534  1.00  0.00    -0.177 OA 
HETATM   16  C   UNL     1      -8.461   5.036  64.163  1.00  0.00    -0.136 C  
HETATM   17  C   UNL     1      -9.531   5.195  66.384  1.00  0.00    -0.153 C  
HETATM   18  C   UNL     1      -8.473   7.161  65.340  1.00  0.00    -0.082 C  
HETATM   19  C   UNL     1     -11.871  13.313  66.875  1.00  0.00    -0.446 A  
HETATM   20  N   UNL     1      -8.693   5.802  65.373  1.00  0.00    -0.144 N  
HETATM   21  C   UNL     1     -11.288  12.117  66.439  1.00  0.00    -0.411 A  
ENDROOT
BRANCH   6  22
HETATM   22  C   UNL     1     -10.198   7.433  70.208  1.00  0.00    -0.203 A  
HETATM   23  C   UNL     1     -12.234   6.723  71.387  1.00  0.00    -0.413 A  
HETATM   24  C   UNL     1     -11.432   6.003  72.243  1.00  0.00    -0.312 A  
HETATM   25  C   UNL     1     -10.063   5.999  72.120  1.00  0.00    -0.181 A  
HETATM   26  C   UNL     1     -10.616   4.636  73.699  1.00  0.00    -0.249 C  
HETATM   27  C   UNL     1      -9.417   6.714  71.135  1.00  0.00    -0.167 A  
HETATM   28  O   UNL     1     -11.864   5.208  73.258  1.00  0.00    -0.207 OA 
HETATM   29  C   UNL     1     -11.612   7.428  70.352  1.00  0.00    -0.210 A  
HETATM   30  O   UNL     1      -9.462   5.196  73.040  1.00  0.00    -0.141 OA 
ENDBRANCH   6  22
TORSDOF 1
ENDMDL
MODEL       44
REMARK 921   NORMALIZED FREE ENERGY PREDICTED BY IDOCK:   -6.22 KCAL/MOL
REMARK 922        TOTAL FREE ENERGY PREDICTED BY IDOCK:   -6.64 KCAL/MOL
REMARK 923 INTER-LIGAND FREE ENERGY PREDICTED BY IDOCK:   -6.56 KCAL/MOL
REMARK 924 INTRA-LIGAND FREE ENERGY PREDICTED BY IDOCK:   -0.08 KCAL/MOL
REMARK 927      BINDING AFFINITY PREDICTED BY RF-SCORE:    0.00 PKD
ROOT
HETATM    1  C   UNL     1     -10.798  11.516  65.274  1.00  0.00    -0.259 C  
HETATM    2  C   UNL     1      -9.572  10.902  64.557  1.00  0.00    -0.312 C  
HETATM    3  C   UNL     1      -9.302   9.546  65.110  1.00  0.00    -0.316 A  
HETATM    4  C   UNL     1      -9.816   9.149  66.329  1.00  0.00    -0.289 A  
HETATM    5  N   UNL     1      -9.442   7.845  66.531  1.00  0.00    -0.208 NA 
HETATM    6  C   UNL     1     -10.690   9.967  67.259  1.00  0.00    -0.244 C  
HETATM    7  N   UNL     1     -10.701  11.374  66.751  1.00  0.00    -0.259 N  
HETATM    8  O   UNL     1     -11.221  13.048  63.465  1.00  0.00    -0.373 OA 
HETATM    9  C   UNL     1      -8.626   7.424  65.501  1.00  0.00    -0.077 A  
HETATM   10  H   UNL     1      -9.726   7.271  67.325  1.00  0.00     0.000 HD 
HETATM   11  C   UNL     1     -10.435  12.478  67.542  1.00  0.00    -0.219 C  
HETATM   12  C   UNL     1      -7.973   6.200  65.317  1.00  0.00    -0.115 A  
HETATM   13  C   UNL     1      -8.533   8.473  64.586  1.00  0.00    -0.127 A  
HETATM   14  C   UNL     1      -7.201   6.046  64.160  1.00  0.00    -0.057 A  
HETATM   15  O   UNL     1     -10.105  12.444  68.726  1.00  0.00    -0.168 OA 
HETATM   16  C   UNL     1     -11.159  15.310  64.995  1.00  0.00    -0.426 C  
HETATM   17  C   UNL     1     -10.577  13.853  66.903  1.00  0.00    -0.280 C  
HETATM   18  C   UNL     1     -11.050  12.904  64.678  1.00  0.00    -0.324 C  
HETATM   19  C   UNL     1      -7.099   7.072  63.224  1.00  0.00    -0.065 A  
HETATM   20  N   UNL     1     -11.069  13.972  65.547  1.00  0.00    -0.302 N  
HETATM   21  C   UNL     1      -7.762   8.288  63.422  1.00  0.00    -0.142 A  
ENDROOT
BRANCH   6  22
HETATM   22  C   UNL     1     -10.385   9.770  68.737  1.00  0.00    -0.227 A  
HETATM   23  C   UNL     1     -11.124   9.448  71.060  1.00  0.00    -0.414 A  
HETATM   24  C   UNL     1      -9.824   9.127  71.380  1.00  0.00    -0.284 A  
HETATM   25  C   UNL     1      -8.822   9.141  70.439  1.00  0.00    -0.220 A  
HETATM   26  C   UNL     1      -8.004   8.424  72.302  1.00  0.00    -0.116 C  
HETATM   27  C   UNL     1      -9.062   9.476  69.124  1.00  0.00    -0.152 A  
HETATM   28  O   UNL     1      -9.379   8.738  72.605  1.00  0.00    -0.300 OA 
HETATM   29  C   UNL     1     -11.407   9.754  69.725  1.00  0.00    -0.201 A  
HETATM   30  O   UNL     1      -7.622   8.757  70.953  1.00  0.00    -0.078 OA 
ENDBRANCH   6  22
TORSDOF 1
ENDMDL
MODEL       45
REMARK 921   NORMALIZED FREE ENERGY PREDICTED BY IDOCK:   -6.10 KCAL/MOL
REMARK 922        TOTAL FREE ENERGY PREDICTED BY IDOCK:   -6.50 KCAL/MOL
REMARK 923 INTER-LIGAND FREE ENERGY PREDICTED BY IDOCK:   -6.52 KCAL/MOL
REMARK 924 INTRA-LIGAND FREE ENERGY PREDICTED BY IDOCK:    0.02 KCAL/MOL
REMARK 927      BINDING AFFINITY PREDICTED BY RF-SCORE:    0.00 PKD
ROOT
HETATM    1  C   UNL     1     -10.255   9.109  70.396  1.00  0.00    -0.222 C  
HETATM    2  C   UNL     1     -10.046   7.710  69.770  1.00  0.00    -0.196 C  
HETATM    3  C   UNL     1      -9.045   7.804  68.671  1.00  0.00    -0.136 A  
HETATM    4  C   UNL     1      -8.727   9.015  68.087  1.00  0.00    -0.130 A  
HETATM    5  N   UNL     1      -7.744   8.782  67.159  1.00  0.00    -0.095 NA 
HETATM    6  C   UNL     1      -9.301  10.373  68.437  1.00  0.00    -0.150 C  
HETATM    7  N   UNL     1     -10.459  10.154  69.359  1.00  0.00    -0.217 N  
HETATM    8  O   UNL     1     -11.106   8.177  72.447  1.00  0.00    -0.315 OA 
HETATM    9  C   UNL     1      -7.484   7.429  67.078  1.00  0.00    -0.098 A  
HETATM   10  H   UNL     1      -7.274   9.502  66.611  1.00  0.00     0.000 HD 
HETATM   11  C   UNL     1     -11.711  10.710  69.164  1.00  0.00    -0.253 C  
HETATM   12  C   UNL     1      -6.606   6.732  66.240  1.00  0.00    -0.048 A  
HETATM   13  C   UNL     1      -8.281   6.793  68.031  1.00  0.00    -0.114 A  
HETATM   14  C   UNL     1      -6.543   5.342  66.381  1.00  0.00    -0.056 A  
HETATM   15  O   UNL     1     -12.045  11.396  68.199  1.00  0.00    -0.623 OA 
HETATM   16  C   UNL     1     -13.464   9.557  72.424  1.00  0.00    -0.393 C  
HETATM   17  C   UNL     1     -12.763  10.471  70.239  1.00  0.00    -0.188 C  
HETATM   18  C   UNL     1     -11.284   8.974  71.524  1.00  0.00    -0.348 C  
HETATM   19  C   UNL     1      -7.319   4.681  67.329  1.00  0.00    -0.074 A  
HETATM   20  N   UNL     1     -12.407   9.768  71.453  1.00  0.00    -0.360 N  
HETATM   21  C   UNL     1      -8.188   5.394  68.163  1.00  0.00    -0.099 A  
ENDROOT
BRANCH   6  22
HETATM   22  C   UNL     1      -9.537  11.281  67.238  1.00  0.00    -0.188 A  
HETATM   23  C   UNL     1     -10.437  11.674  64.984  1.00  0.00    -0.336 A  
HETATM   24  C   UNL     1     -10.211  13.018  65.179  1.00  0.00    -0.272 A  
HETATM   25  C   UNL     1      -9.652  13.497  66.340  1.00  0.00    -0.259 A  
HETATM   26  C   UNL     1     -10.185  15.174  65.090  1.00  0.00    -0.351 C  
HETATM   27  C   UNL     1      -9.286  12.661  67.372  1.00  0.00    -0.189 A  
HETATM   28  O   UNL     1     -10.527  14.012  64.306  1.00  0.00    -0.252 OA 
HETATM   29  C   UNL     1     -10.112  10.803  66.029  1.00  0.00    -0.305 A  
HETATM   30  O   UNL     1      -9.551  14.854  66.345  1.00  0.00    -0.260 OA 
ENDBRANCH   6  22
TORSDOF 1
ENDMDL
MODEL       46
REMARK 921   NORMALIZED FREE ENERGY PREDICTED BY IDOCK:   -6.09 KCAL/MOL
REMARK 922        TOTAL FREE ENERGY PREDICTED BY IDOCK:   -6.50 KCAL/MOL
REMARK 923 INTER-LIGAND FREE ENERGY PREDICTED BY IDOCK:   -6.80 KCAL/MOL
REMARK 924 INTRA-LIGAND FREE ENERGY PREDICTED BY IDOCK:    0.31 KCAL/MOL
REMARK 927      BINDING AFFINITY PREDICTED BY RF-SCORE:    0.00 PKD
ROOT
HETATM    1  C   UNL     1     -11.299  11.717  66.049  1.00  0.00    -0.273 C  
HETATM    2  C   UNL     1      -9.791  11.372  66.074  1.00  0.00    -0.256 C  
HETATM    3  C   UNL     1      -9.380  11.048  67.469  1.00  0.00    -0.167 A  
HETATM    4  C   UNL     1     -10.148  11.426  68.553  1.00  0.00    -0.206 A  
HETATM    5  N   UNL     1      -9.541  10.937  69.682  1.00  0.00    -0.382 NA 
HETATM    6  C   UNL     1     -11.459  12.186  68.519  1.00  0.00    -0.300 C  
HETATM    7  N   UNL     1     -11.662  12.680  67.122  1.00  0.00    -0.366 N  
HETATM    8  O   UNL     1     -11.478  11.227  63.699  1.00  0.00    -0.280 OA 
HETATM    9  C   UNL     1      -8.351  10.323  69.347  1.00  0.00    -0.161 A  
HETATM   10  H   UNL     1      -9.914  11.016  70.628  1.00  0.00     0.000 HD 
HETATM   11  C   UNL     1     -11.966  13.993  66.808  1.00  0.00    -0.444 C  
HETATM   12  C   UNL     1      -7.383   9.735  70.170  1.00  0.00    -0.159 A  
HETATM   13  C   UNL     1      -8.234  10.367  67.958  1.00  0.00    -0.114 A  
HETATM   14  C   UNL     1      -6.260   9.176  69.549  1.00  0.00    -0.040 A  
HETATM   15  O   UNL     1     -12.049  14.919  67.614  1.00  0.00    -0.253 OA 
HETATM   16  C   UNL     1     -12.508  13.654  62.984  1.00  0.00     0.577 C  
HETATM   17  C   UNL     1     -12.236  14.324  65.346  1.00  0.00    -0.405 C  
HETATM   18  C   UNL     1     -11.687  12.039  64.602  1.00  0.00    -0.287 C  
HETATM   19  C   UNL     1      -6.121   9.197  68.164  1.00  0.00    -0.050 A  
HETATM   20  N   UNL     1     -12.266  13.265  64.360  1.00  0.00    -0.393 N  
HETATM   21  C   UNL     1      -7.102   9.785  67.357  1.00  0.00    -0.085 A  
ENDROOT
BRANCH   6  22
HETATM   22  C   UNL     1     -11.621  13.204  69.640  1.00  0.00    -0.321 A  
HETATM   23  C   UNL     1     -10.928  15.263  70.791  1.00  0.00    -0.312 A  
HETATM   24  C   UNL     1     -12.099  15.199  71.511  1.00  0.00    -0.345 A  
HETATM   25  C   UNL     1     -13.001  14.177  71.337  1.00  0.00    -0.351 A  
HETATM   26  C   UNL     1     -13.829  15.594  72.739  1.00  0.00    -0.545 C  
HETATM   27  C   UNL     1     -12.786  13.160  70.433  1.00  0.00    -0.080 A  
HETATM   28  O   UNL     1     -12.520  16.113  72.427  1.00  0.00    -0.454 OA 
HETATM   29  C   UNL     1     -10.697  14.266  69.837  1.00  0.00     0.116 A  
HETATM   30  O   UNL     1     -14.107  14.322  72.117  1.00  0.00    -0.467 OA 
ENDBRANCH   6  22
TORSDOF 1
ENDMDL
MODEL       47
REMARK 921   NORMALIZED FREE ENERGY PREDICTED BY IDOCK:   -6.05 KCAL/MOL
REMARK 922        TOTAL FREE ENERGY PREDICTED BY IDOCK:   -6.45 KCAL/MOL
REMARK 923 INTER-LIGAND FREE ENERGY PREDICTED BY IDOCK:   -6.36 KCAL/MOL
REMARK 924 INTRA-LIGAND FREE ENERGY PREDICTED BY IDOCK:   -0.10 KCAL/MOL
REMARK 927      BINDING AFFINITY PREDICTED BY RF-SCORE:    0.00 PKD
ROOT
HETATM    1  C   UNL     1     -10.682  10.642  66.695  1.00  0.00    -0.181 C  
HETATM    2  C   UNL     1      -9.186  10.577  66.304  1.00  0.00    -0.192 C  
HETATM    3  C   UNL     1      -8.595   9.311  66.819  1.00  0.00    -0.134 A  
HETATM    4  C   UNL     1      -9.209   8.583  67.820  1.00  0.00    -0.135 A  
HETATM    5  N   UNL     1      -8.460   7.453  68.030  1.00  0.00    -0.123 NA 
HETATM    6  C   UNL     1     -10.508   8.919  68.524  1.00  0.00    -0.182 C  
HETATM    7  N   UNL     1     -10.893  10.309  68.127  1.00  0.00    -0.246 N  
HETATM    8  O   UNL     1     -11.176  12.222  64.945  1.00  0.00    -0.303 OA 
HETATM    9  C   UNL     1      -7.329   7.484  67.239  1.00  0.00    -0.098 A  
HETATM   10  H   UNL     1      -8.703   6.701  68.675  1.00  0.00     0.000 HD 
HETATM   11  C   UNL     1     -11.228  11.301  69.033  1.00  0.00    -0.258 C  
HETATM   12  C   UNL     1      -6.263   6.581  67.162  1.00  0.00    -0.036 A  
HETATM   13  C   UNL     1      -7.398   8.638  66.457  1.00  0.00    -0.081 A  
HETATM   14  C   UNL     1      -5.237   6.867  66.255  1.00  0.00    -0.022 A  
HETATM   15  O   UNL     1     -11.197  11.189  70.258  1.00  0.00    -0.226 OA 
HETATM   16  C   UNL     1     -12.277  14.113  66.579  1.00  0.00    -0.433 C  
HETATM   17  C   UNL     1     -11.689  12.640  68.473  1.00  0.00    -0.330 C  
HETATM   18  C   UNL     1     -11.258  11.952  66.145  1.00  0.00    -0.333 C  
HETATM   19  C   UNL     1      -5.284   8.005  65.454  1.00  0.00    -0.028 A  
HETATM   20  N   UNL     1     -11.856  12.806  67.045  1.00  0.00    -0.381 N  
HETATM   21  C   UNL     1      -6.359   8.896  65.542  1.00  0.00    -0.063 A  
ENDROOT
BRANCH   6  22
HETATM   22  C   UNL     1     -10.513   8.601  70.013  1.00  0.00    -0.229 A  
HETATM   23  C   UNL     1     -11.508   7.499  71.973  1.00  0.00    -0.319 A  
HETATM   24  C   UNL     1     -10.354   7.792  72.665  1.00  0.00    -0.292 A  
HETATM   25  C   UNL     1      -9.316   8.479  72.083  1.00  0.00    -0.283 A  
HETATM   26  C   UNL     1      -8.721   7.889  74.072  1.00  0.00    -0.246 C  
HETATM   27  C   UNL     1      -9.370   8.914  70.777  1.00  0.00    -0.280 A  
HETATM   28  O   UNL     1     -10.083   7.429  73.947  1.00  0.00    -0.313 OA 
HETATM   29  C   UNL     1     -11.578   7.892  70.632  1.00  0.00    -0.215 A  
HETATM   30  O   UNL     1      -8.258   8.630  72.925  1.00  0.00    -0.393 OA 
ENDBRANCH   6  22
TORSDOF 1
ENDMDL
MODEL       48
REMARK 921   NORMALIZED FREE ENERGY PREDICTED BY IDOCK:   -6.04 KCAL/MOL
REMARK 922        TOTAL FREE ENERGY PREDICTED BY IDOCK:   -6.44 KCAL/MOL
REMARK 923 INTER-LIGAND FREE ENERGY PREDICTED BY IDOCK:   -6.77 KCAL/MOL
REMARK 924 INTRA-LIGAND FREE ENERGY PREDICTED BY IDOCK:    0.33 KCAL/MOL
REMARK 927      BINDING AFFINITY PREDICTED BY RF-SCORE:    0.00 PKD
ROOT
HETATM    1  C   UNL     1     -10.546  14.683  65.005  1.00  0.00    -0.439 C  
HETATM    2  C   UNL     1     -11.030  16.028  65.599  1.00  0.00    -0.175 C  
HETATM    3  C   UNL     1      -9.879  16.736  66.225  1.00  0.00    -0.327 A  
HETATM    4  C   UNL     1      -8.718  16.068  66.561  1.00  0.00    -0.303 A  
HETATM    5  N   UNL     1      -7.836  16.993  67.059  1.00  0.00    -0.176 NA 
HETATM    6  C   UNL     1      -8.427  14.593  66.364  1.00  0.00     0.274 C  
HETATM    7  N   UNL     1      -9.706  13.926  65.969  1.00  0.00    -0.280 N  
HETATM    8  O   UNL     1     -12.421  14.554  63.500  1.00  0.00    -0.727 OA 
HETATM    9  C   UNL     1      -8.442  18.232  67.126  1.00  0.00    -0.250 A  
HETATM   10  H   UNL     1      -6.875  16.796  67.337  1.00  0.00     0.000 HD 
HETATM   11  C   UNL     1     -10.202  12.792  66.587  1.00  0.00    -0.238 C  
HETATM   12  C   UNL     1      -7.948  19.447  67.614  1.00  0.00    -0.318 A  
HETATM   13  C   UNL     1      -9.725  18.099  66.594  1.00  0.00    -0.334 A  
HETATM   14  C   UNL     1      -8.793  20.560  67.554  1.00  0.00    -0.352 A  
HETATM   15  O   UNL     1      -9.698  12.229  67.558  1.00  0.00    -0.185 OA 
HETATM   16  C   UNL     1     -13.271  12.092  64.324  1.00  0.00     0.296 C  
HETATM   17  C   UNL     1     -11.469  12.173  66.011  1.00  0.00    -0.370 C  
HETATM   18  C   UNL     1     -11.751  13.987  64.366  1.00  0.00    -0.397 C  
HETATM   19  C   UNL     1     -10.074  20.460  67.019  1.00  0.00    -0.507 A  
HETATM   20  N   UNL     1     -12.053  12.717  64.804  1.00  0.00    -0.411 N  
HETATM   21  C   UNL     1     -10.551  19.237  66.532  1.00  0.00    -0.538 A  
ENDROOT
BRANCH   6  22
HETATM   22  C   UNL     1      -7.637  13.955  67.499  1.00  0.00    -0.190 A  
HETATM   23  C   UNL     1      -6.053  12.271  68.334  1.00  0.00    -0.052 A  
HETATM   24  C   UNL     1      -5.989  12.983  69.511  1.00  0.00    -0.110 A  
HETATM   25  C   UNL     1      -6.726  14.125  69.707  1.00  0.00    -0.065 A  
HETATM   26  C   UNL     1      -5.460  13.821  71.427  1.00  0.00    -0.219 C  
HETATM   27  C   UNL     1      -7.570  14.624  68.738  1.00  0.00    -0.138 A  
HETATM   28  O   UNL     1      -5.200  12.685  70.578  1.00  0.00    -0.101 OA 
HETATM   29  C   UNL     1      -6.870  12.773  67.316  1.00  0.00    -0.087 A  
HETATM   30  O   UNL     1      -6.489  14.694  70.920  1.00  0.00    -0.054 OA 
ENDBRANCH   6  22
TORSDOF 1
ENDMDL
MODEL       49
REMARK 921   NORMALIZED FREE ENERGY PREDICTED BY IDOCK:   -6.01 KCAL/MOL
REMARK 922        TOTAL FREE ENERGY PREDICTED BY IDOCK:   -6.41 KCAL/MOL
REMARK 923 INTER-LIGAND FREE ENERGY PREDICTED BY IDOCK:   -6.46 KCAL/MOL
REMARK 924 INTRA-LIGAND FREE ENERGY PREDICTED BY IDOCK:    0.05 KCAL/MOL
REMARK 927      BINDING AFFINITY PREDICTED BY RF-SCORE:    0.00 PKD
ROOT
HETATM    1  C   UNL     1      -9.479  13.437  66.235  1.00  0.00    -0.183 C  
HETATM    2  C   UNL     1      -8.929  14.454  67.264  1.00  0.00    -0.221 C  
HETATM    3  C   UNL     1      -8.076  13.741  68.256  1.00  0.00    -0.150 A  
HETATM    4  C   UNL     1      -8.156  12.373  68.424  1.00  0.00    -0.143 A  
HETATM    5  N   UNL     1      -7.215  12.014  69.356  1.00  0.00    -0.332 NA 
HETATM    6  C   UNL     1      -9.063  11.415  67.677  1.00  0.00    -0.155 C  
HETATM    7  N   UNL     1     -10.043  12.232  66.897  1.00  0.00    -0.209 N  
HETATM    8  O   UNL     1      -9.884  15.157  64.599  1.00  0.00    -0.023 OA 
HETATM    9  C   UNL     1      -6.591  13.141  69.852  1.00  0.00     0.116 A  
HETATM   10  H   UNL     1      -7.008  11.057  69.641  1.00  0.00     0.000 HD 
HETATM   11  C   UNL     1     -11.411  12.031  66.934  1.00  0.00    -0.337 C  
HETATM   12  C   UNL     1      -5.615  13.261  70.848  1.00  0.00    -0.195 A  
HETATM   13  C   UNL     1      -7.106  14.240  69.165  1.00  0.00    -0.117 A  
HETATM   14  C   UNL     1      -5.152  14.546  71.149  1.00  0.00    -0.131 A  
HETATM   15  O   UNL     1     -11.993  11.211  67.642  1.00  0.00    -0.613 OA 
HETATM   16  C   UNL     1     -12.530  14.584  64.238  1.00  0.00    -0.264 C  
HETATM   17  C   UNL     1     -12.274  12.883  66.011  1.00  0.00    -0.366 C  
HETATM   18  C   UNL     1     -10.345  14.204  65.230  1.00  0.00    -0.388 C  
HETATM   19  C   UNL     1      -5.640  15.661  70.473  1.00  0.00    -0.119 A  
HETATM   20  N   UNL     1     -11.648  13.788  65.072  1.00  0.00    -0.329 N  
HETATM   21  C   UNL     1      -6.613  15.522  69.476  1.00  0.00    -0.172 A  
ENDROOT
BRANCH   6  22
HETATM   22  C   UNL     1      -9.630  10.293  68.537  1.00  0.00    -0.165 A  
HETATM   23  C   UNL     1     -10.856   9.515  70.520  1.00  0.00    -0.352 A  
HETATM   24  C   UNL     1     -10.904   8.266  69.943  1.00  0.00    -0.213 A  
HETATM   25  C   UNL     1     -10.326   8.010  68.723  1.00  0.00    -0.206 A  
HETATM   26  C   UNL     1     -11.352   6.230  69.384  1.00  0.00    -0.378 C  
HETATM   27  C   UNL     1      -9.668   8.987  68.008  1.00  0.00    -0.179 A  
HETATM   28  O   UNL     1     -11.528   7.174  70.461  1.00  0.00    -0.287 OA 
HETATM   29  C   UNL     1     -10.230  10.538  69.802  1.00  0.00    -0.168 A  
HETATM   30  O   UNL     1     -10.519   6.725  68.316  1.00  0.00    -0.177 OA 
ENDBRANCH   6  22
TORSDOF 1
ENDMDL
MODEL       50
REMARK 921   NORMALIZED FREE ENERGY PREDICTED BY IDOCK:   -5.93 KCAL/MOL
REMARK 922        TOTAL FREE ENERGY PREDICTED BY IDOCK:   -6.33 KCAL/MOL
REMARK 923 INTER-LIGAND FREE ENERGY PREDICTED BY IDOCK:   -6.20 KCAL/MOL
REMARK 924 INTRA-LIGAND FREE ENERGY PREDICTED BY IDOCK:   -0.13 KCAL/MOL
REMARK 927      BINDING AFFINITY PREDICTED BY RF-SCORE:    0.00 PKD
ROOT
HETATM    1  C   UNL     1     -11.156  11.005  66.963  1.00  0.00    -0.244 C  
HETATM    2  C   UNL     1      -9.911  11.203  66.065  1.00  0.00    -0.280 C  
HETATM    3  C   UNL     1      -9.379   9.873  65.657  1.00  0.00    -0.269 A  
HETATM    4  C   UNL     1      -9.718   8.720  66.339  1.00  0.00    -0.265 A  
HETATM    5  N   UNL     1      -9.123   7.666  65.694  1.00  0.00    -0.391 NA 
HETATM    6  C   UNL     1     -10.632   8.611  67.544  1.00  0.00    -0.222 C  
HETATM    7  N   UNL     1     -10.913   9.998  68.028  1.00  0.00    -0.260 N  
HETATM    8  O   UNL     1     -11.972  13.222  66.497  1.00  0.00    -0.375 OA 
HETATM    9  C   UNL     1      -8.338   8.131  64.658  1.00  0.00    -0.079 A  
HETATM   10  H   UNL     1      -9.242   6.684  65.943  1.00  0.00     0.000 HD 
HETATM   11  C   UNL     1     -10.764  10.396  69.345  1.00  0.00    -0.244 C  
HETATM   12  C   UNL     1      -7.513   7.429  63.772  1.00  0.00    -0.104 A  
HETATM   13  C   UNL     1      -8.494   9.516  64.605  1.00  0.00    -0.177 A  
HETATM   14  C   UNL     1      -6.827   8.168  62.802  1.00  0.00    -0.086 A  
HETATM   15  O   UNL     1     -10.334   9.693  70.259  1.00  0.00    -0.242 OA 
HETATM   16  C   UNL     1     -12.149  14.009  69.107  1.00  0.00    -0.337 C  
HETATM   17  C   UNL     1     -11.180  11.816  69.703  1.00  0.00    -0.152 C  
HETATM   18  C   UNL     1     -11.679  12.390  67.358  1.00  0.00    -0.347 C  
HETATM   19  C   UNL     1      -6.971   9.550  62.719  1.00  0.00    -0.097 A  
HETATM   20  N   UNL     1     -11.797  12.661  68.703  1.00  0.00    -0.315 N  
HETATM   21  C   UNL     1      -7.804  10.236  63.610  1.00  0.00    -0.125 A  
ENDROOT
BRANCH   6  22
HETATM   22  C   UNL     1     -10.176   7.596  68.584  1.00  0.00    -0.214 A  
HETATM   23  C   UNL     1     -10.627   5.690  70.070  1.00  0.00    -0.388 A  
HETATM   24  C   UNL     1      -9.268   5.576  70.259  1.00  0.00    -0.149 A  
HETATM   25  C   UNL     1      -8.379   6.438  69.663  1.00  0.00    -0.126 A  
HETATM   26  C   UNL     1      -7.264   4.927  70.725  1.00  0.00    -0.059 C  
HETATM   27  C   UNL     1      -8.796   7.464  68.843  1.00  0.00    -0.131 A  
HETATM   28  O   UNL     1      -8.646   4.619  70.999  1.00  0.00    -0.106 OA 
HETATM   29  C   UNL     1     -11.081   6.698  69.212  1.00  0.00    -0.345 A  
HETATM   30  O   UNL     1      -7.085   6.128  69.949  1.00  0.00    -0.067 OA 
ENDBRANCH   6  22
TORSDOF 1
ENDMDL
MODEL       51
REMARK 921   NORMALIZED FREE ENERGY PREDICTED BY IDOCK:   -5.93 KCAL/MOL
REMARK 922        TOTAL FREE ENERGY PREDICTED BY IDOCK:   -6.32 KCAL/MOL
REMARK 923 INTER-LIGAND FREE ENERGY PREDICTED BY IDOCK:   -6.37 KCAL/MOL
REMARK 924 INTRA-LIGAND FREE ENERGY PREDICTED BY IDOCK:    0.05 KCAL/MOL
REMARK 927      BINDING AFFINITY PREDICTED BY RF-SCORE:    0.00 PKD
ROOT
HETATM    1  C   UNL     1      -7.687   8.466  64.392  1.00  0.00    -0.133 C  
HETATM    2  C   UNL     1      -8.833   9.259  63.718  1.00  0.00    -0.150 C  
HETATM    3  C   UNL     1      -9.593  10.010  64.756  1.00  0.00    -0.374 A  
HETATM    4  C   UNL     1      -9.510   9.674  66.094  1.00  0.00    -0.217 A  
HETATM    5  N   UNL     1     -10.269  10.576  66.795  1.00  0.00    -0.226 NA 
HETATM    6  C   UNL     1      -8.685   8.558  66.703  1.00  0.00    -0.125 C  
HETATM    7  N   UNL     1      -8.162   7.716  65.583  1.00  0.00    -0.130 N  
HETATM    8  O   UNL     1      -6.443   8.317  62.336  1.00  0.00    -0.087 OA 
HETATM    9  C   UNL     1     -10.906  11.435  65.922  1.00  0.00    -0.234 A  
HETATM   10  H   UNL     1     -10.351  10.608  67.811  1.00  0.00     0.000 HD 
HETATM   11  C   UNL     1      -8.287   6.338  65.537  1.00  0.00    -0.147 C  
HETATM   12  C   UNL     1     -11.814  12.468  66.182  1.00  0.00    -0.459 A  
HETATM   13  C   UNL     1     -10.486  11.107  64.633  1.00  0.00    -0.400 A  
HETATM   14  C   UNL     1     -12.305  13.188  65.087  1.00  0.00    -0.525 A  
HETATM   15  O   UNL     1      -8.880   5.647  66.363  1.00  0.00    -0.121 OA 
HETATM   16  C   UNL     1      -6.226   5.593  62.339  1.00  0.00    -0.022 C  
HETATM   17  C   UNL     1      -7.621   5.609  64.377  1.00  0.00    -0.083 C  
HETATM   18  C   UNL     1      -6.925   7.713  63.297  1.00  0.00    -0.068 C  
HETATM   19  C   UNL     1     -11.895  12.891  63.791  1.00  0.00    -0.571 A  
HETATM   20  N   UNL     1      -6.813   6.347  63.430  1.00  0.00    -0.043 N  
HETATM   21  C   UNL     1     -10.983  11.856  63.549  1.00  0.00    -0.505 A  
ENDROOT
BRANCH   6  22
HETATM   22  C   UNL     1      -9.369   7.831  67.853  1.00  0.00    -0.148 A  
HETATM   23  C   UNL     1     -11.278   6.589  68.778  1.00  0.00    -0.319 A  
HETATM   24  C   UNL     1     -10.485   6.265  69.856  1.00  0.00    -0.227 A  
HETATM   25  C   UNL     1      -9.190   6.712  69.962  1.00  0.00    -0.158 A  
HETATM   26  C   UNL     1      -9.602   5.395  71.621  1.00  0.00    -0.150 C  
HETATM   27  C   UNL     1      -8.612   7.508  68.997  1.00  0.00    -0.136 A  
HETATM   28  O   UNL     1     -10.847   5.469  70.898  1.00  0.00    -0.246 OA 
HETATM   29  C   UNL     1     -10.708   7.363  67.762  1.00  0.00    -0.249 A  
HETATM   30  O   UNL     1      -8.572   6.248  71.082  1.00  0.00    -0.124 OA 
ENDBRANCH   6  22
TORSDOF 1
ENDMDL
MODEL       52
REMARK 921   NORMALIZED FREE ENERGY PREDICTED BY IDOCK:   -5.91 KCAL/MOL
REMARK 922        TOTAL FREE ENERGY PREDICTED BY IDOCK:   -6.30 KCAL/MOL
REMARK 923 INTER-LIGAND FREE ENERGY PREDICTED BY IDOCK:   -6.32 KCAL/MOL
REMARK 924 INTRA-LIGAND FREE ENERGY PREDICTED BY IDOCK:    0.02 KCAL/MOL
REMARK 927      BINDING AFFINITY PREDICTED BY RF-SCORE:    0.00 PKD
ROOT
HETATM    1  C   UNL     1     -11.063  11.122  66.443  1.00  0.00    -0.138 C  
HETATM    2  C   UNL     1      -9.833  11.205  65.506  1.00  0.00    -0.281 C  
HETATM    3  C   UNL     1      -9.303   9.834  65.264  1.00  0.00    -0.315 A  
HETATM    4  C   UNL     1      -9.625   8.779  66.094  1.00  0.00    -0.253 A  
HETATM    5  N   UNL     1      -9.036   7.652  65.580  1.00  0.00    -0.391 NA 
HETATM    6  C   UNL     1     -10.519   8.823  67.318  1.00  0.00    -0.283 C  
HETATM    7  N   UNL     1     -10.799  10.260  67.625  1.00  0.00    -0.292 N  
HETATM    8  O   UNL     1     -11.895  13.259  65.709  1.00  0.00    -0.349 OA 
HETATM    9  C   UNL     1      -8.270   7.981  64.480  1.00  0.00    -0.094 A  
HETATM   10  H   UNL     1      -9.147   6.710  65.955  1.00  0.00     0.000 HD 
HETATM   11  C   UNL     1     -10.630  10.824  68.877  1.00  0.00    -0.216 C  
HETATM   12  C   UNL     1      -7.457   7.172  63.678  1.00  0.00    -0.100 A  
HETATM   13  C   UNL     1      -8.433   9.348  64.252  1.00  0.00    -0.198 A  
HETATM   14  C   UNL     1      -6.790   7.782  62.611  1.00  0.00    -0.080 A  
HETATM   15  O   UNL     1     -10.183  10.246  69.866  1.00  0.00    -0.246 OA 
HETATM   16  C   UNL     1     -12.033  14.374  68.199  1.00  0.00    -0.285 C  
HETATM   17  C   UNL     1     -11.046  12.278  69.056  1.00  0.00    -0.236 C  
HETATM   18  C   UNL     1     -11.585  12.545  66.665  1.00  0.00    -0.380 C  
HETATM   19  C   UNL     1      -6.940   9.142  62.353  1.00  0.00    -0.090 A  
HETATM   20  N   UNL     1     -11.683  12.986  67.966  1.00  0.00    -0.340 N  
HETATM   21  C   UNL     1      -7.762   9.935  63.162  1.00  0.00    -0.141 A  
ENDROOT
BRANCH   6  22
HETATM   22  C   UNL     1     -10.043   7.951  68.472  1.00  0.00    -0.216 A  
HETATM   23  C   UNL     1      -8.268   7.159  69.977  1.00  0.00    -0.136 A  
HETATM   24  C   UNL     1      -9.247   6.580  70.751  1.00  0.00    -0.155 A  
HETATM   25  C   UNL     1     -10.576   6.650  70.410  1.00  0.00    -0.223 A  
HETATM   26  C   UNL     1     -10.410   5.661  72.320  1.00  0.00    -0.206 C  
HETATM   27  C   UNL     1     -11.004   7.305  69.275  1.00  0.00    -0.121 A  
HETATM   28  O   UNL     1      -9.047   5.918  71.923  1.00  0.00    -0.139 OA 
HETATM   29  C   UNL     1      -8.672   7.864  68.839  1.00  0.00    -0.135 A  
HETATM   30  O   UNL     1     -11.381   6.047  71.327  1.00  0.00    -0.285 OA 
ENDBRANCH   6  22
TORSDOF 1
ENDMDL
MODEL       53
REMARK 921   NORMALIZED FREE ENERGY PREDICTED BY IDOCK:   -5.89 KCAL/MOL
REMARK 922        TOTAL FREE ENERGY PREDICTED BY IDOCK:   -6.28 KCAL/MOL
REMARK 923 INTER-LIGAND FREE ENERGY PREDICTED BY IDOCK:   -6.41 KCAL/MOL
REMARK 924 INTRA-LIGAND FREE ENERGY PREDICTED BY IDOCK:    0.12 KCAL/MOL
REMARK 927      BINDING AFFINITY PREDICTED BY RF-SCORE:    0.00 PKD
ROOT
HETATM    1  C   UNL     1      -7.252  14.207  68.060  1.00  0.00    -0.143 C  
HETATM    2  C   UNL     1      -7.165  15.295  66.963  1.00  0.00    -0.012 C  
HETATM    3  C   UNL     1      -7.763  16.560  67.472  1.00  0.00    -0.171 A  
HETATM    4  C   UNL     1      -8.608  16.570  68.565  1.00  0.00    -0.223 A  
HETATM    5  N   UNL     1      -8.941  17.877  68.819  1.00  0.00    -0.244 NA 
HETATM    6  C   UNL     1      -9.047  15.375  69.387  1.00  0.00    -0.258 C  
HETATM    7  N   UNL     1      -8.608  14.141  68.665  1.00  0.00    -0.157 N  
HETATM    8  O   UNL     1      -5.470  12.923  67.074  1.00  0.00    -0.338 OA 
HETATM    9  C   UNL     1      -8.391  18.698  67.856  1.00  0.00    -0.272 A  
HETATM   10  H   UNL     1      -9.510  18.193  69.604  1.00  0.00     0.000 HD 
HETATM   11  C   UNL     1      -9.448  13.078  68.383  1.00  0.00    -0.165 C  
HETATM   12  C   UNL     1      -8.510  20.082  67.683  1.00  0.00    -0.378 A  
HETATM   13  C   UNL     1      -7.634  17.895  67.004  1.00  0.00    -0.224 A  
HETATM   14  C   UNL     1      -7.830  20.660  66.606  1.00  0.00    -0.141 A  
HETATM   15  O   UNL     1     -10.652  13.034  68.631  1.00  0.00    -0.249 OA 
HETATM   16  C   UNL     1      -6.889  10.599  66.854  1.00  0.00    -0.099 C  
HETATM   17  C   UNL     1      -8.833  11.850  67.724  1.00  0.00    -0.166 C  
HETATM   18  C   UNL     1      -6.625  12.924  67.506  1.00  0.00    -0.157 C  
HETATM   19  C   UNL     1      -7.059  19.885  65.745  1.00  0.00    -0.323 A  
HETATM   20  N   UNL     1      -7.404  11.788  67.505  1.00  0.00    -0.118 N  
HETATM   21  C   UNL     1      -6.948  18.503  65.934  1.00  0.00    -0.308 A  
ENDROOT
BRANCH   6  22
HETATM   22  C   UNL     1     -10.499  15.429  69.842  1.00  0.00    -0.310 A  
HETATM   23  C   UNL     1     -12.902  15.576  69.348  1.00  0.00     0.443 A  
HETATM   24  C   UNL     1     -13.145  15.238  70.661  1.00  0.00    -0.358 A  
HETATM   25  C   UNL     1     -12.123  15.022  71.553  1.00  0.00    -0.343 A  
HETATM   26  C   UNL     1     -13.997  14.602  72.538  1.00  0.00    -0.417 C  
HETATM   27  C   UNL     1     -10.800  15.128  71.186  1.00  0.00    -0.075 A  
HETATM   28  O   UNL     1     -14.371  15.050  71.219  1.00  0.00    -0.454 OA 
HETATM   29  C   UNL     1     -11.569  15.654  68.934  1.00  0.00    -0.392 A  
HETATM   30  O   UNL     1     -12.578  14.663  72.785  1.00  0.00    -0.355 OA 
ENDBRANCH   6  22
TORSDOF 1
ENDMDL
MODEL       54
REMARK 921   NORMALIZED FREE ENERGY PREDICTED BY IDOCK:   -5.86 KCAL/MOL
REMARK 922        TOTAL FREE ENERGY PREDICTED BY IDOCK:   -6.25 KCAL/MOL
REMARK 923 INTER-LIGAND FREE ENERGY PREDICTED BY IDOCK:   -6.28 KCAL/MOL
REMARK 924 INTRA-LIGAND FREE ENERGY PREDICTED BY IDOCK:    0.02 KCAL/MOL
REMARK 927      BINDING AFFINITY PREDICTED BY RF-SCORE:    0.00 PKD
ROOT
HETATM    1  C   UNL     1     -11.351   9.241  70.196  1.00  0.00    -0.164 C  
HETATM    2  C   UNL     1     -11.212  10.778  70.313  1.00  0.00    -0.326 C  
HETATM    3  C   UNL     1     -11.144  11.374  68.949  1.00  0.00    -0.290 A  
HETATM    4  C   UNL     1     -10.831  10.609  67.843  1.00  0.00    -0.277 A  
HETATM    5  N   UNL     1     -10.905  11.424  66.741  1.00  0.00    -0.275 NA 
HETATM    6  C   UNL     1     -10.524   9.125  67.819  1.00  0.00    -0.247 C  
HETATM    7  N   UNL     1     -10.371   8.670  69.236  1.00  0.00    -0.219 N  
HETATM    8  O   UNL     1     -12.281   9.054  72.409  1.00  0.00    -0.337 OA 
HETATM    9  C   UNL     1     -11.177  12.719  67.132  1.00  0.00    -0.292 A  
HETATM   10  H   UNL     1     -10.777  11.117  65.777  1.00  0.00     0.000 HD 
HETATM   11  C   UNL     1      -9.289   7.939  69.695  1.00  0.00    -0.153 C  
HETATM   12  C   UNL     1     -11.287  13.884  66.363  1.00  0.00    -0.335 A  
HETATM   13  C   UNL     1     -11.346  12.712  68.516  1.00  0.00    -0.333 A  
HETATM   14  C   UNL     1     -11.580  15.076  67.033  1.00  0.00    -0.248 A  
HETATM   15  O   UNL     1      -8.305   7.624  69.027  1.00  0.00    -0.126 OA 
HETATM   16  C   UNL     1     -10.448   7.250  73.330  1.00  0.00    -0.370 C  
HETATM   17  C   UNL     1      -9.320   7.468  71.143  1.00  0.00    -0.151 C  
HETATM   18  C   UNL     1     -11.425   8.664  71.613  1.00  0.00    -0.305 C  
HETATM   19  C   UNL     1     -11.763  15.097  68.413  1.00  0.00    -0.338 A  
HETATM   20  N   UNL     1     -10.495   7.706  71.954  1.00  0.00    -0.211 N  
HETATM   21  C   UNL     1     -11.654  13.923  69.166  1.00  0.00    -0.359 A  
ENDROOT
BRANCH   6  22
HETATM   22  C   UNL     1      -9.422   8.730  66.845  1.00  0.00    -0.231 A  
HETATM   23  C   UNL     1      -7.180   9.053  65.890  1.00  0.00    -0.093 A  
HETATM   24  C   UNL     1      -7.317   7.829  65.274  1.00  0.00    -0.078 A  
HETATM   25  C   UNL     1      -8.460   7.078  65.404  1.00  0.00    -0.086 A  
HETATM   26  C   UNL     1      -7.021   5.948  64.259  1.00  0.00    -0.051 C  
HETATM   27  C   UNL     1      -9.532   7.504  66.159  1.00  0.00    -0.095 A  
HETATM   28  O   UNL     1      -6.373   7.212  64.514  1.00  0.00    -0.036 OA 
HETATM   29  C   UNL     1      -8.234   9.496  66.696  1.00  0.00    -0.116 A  
HETATM   30  O   UNL     1      -8.377   5.889  64.747  1.00  0.00    -0.138 OA 
ENDBRANCH   6  22
TORSDOF 1
ENDMDL
MODEL       55
REMARK 921   NORMALIZED FREE ENERGY PREDICTED BY IDOCK:   -5.79 KCAL/MOL
REMARK 922        TOTAL FREE ENERGY PREDICTED BY IDOCK:   -6.18 KCAL/MOL
REMARK 923 INTER-LIGAND FREE ENERGY PREDICTED BY IDOCK:   -8.00 KCAL/MOL
REMARK 924 INTRA-LIGAND FREE ENERGY PREDICTED BY IDOCK:    1.82 KCAL/MOL
REMARK 927      BINDING AFFINITY PREDICTED BY RF-SCORE:    0.00 PKD
ROOT
HETATM    1  C   UNL     1     -10.975  10.890  67.124  1.00  0.00    -0.272 C  
HETATM    2  C   UNL     1      -9.573  10.469  67.628  1.00  0.00    -0.175 C  
HETATM    3  C   UNL     1      -9.655  10.097  69.067  1.00  0.00    -0.202 A  
HETATM    4  C   UNL     1     -10.720  10.491  69.855  1.00  0.00    -0.247 A  
HETATM    5  N   UNL     1     -10.536   9.949  71.101  1.00  0.00    -0.272 NA 
HETATM    6  C   UNL     1     -11.915  11.315  69.422  1.00  0.00    -0.341 C  
HETATM    7  N   UNL     1     -11.630  11.847  68.053  1.00  0.00    -0.325 N  
HETATM    8  O   UNL     1     -10.393  10.457  64.828  1.00  0.00    -0.320 OA 
HETATM    9  C   UNL     1      -9.328   9.283  71.152  1.00  0.00    -0.189 A  
HETATM   10  H   UNL     1     -11.195  10.026  71.876  1.00  0.00     0.000 HD 
HETATM   11  C   UNL     1     -11.760  13.180  67.705  1.00  0.00    -0.358 C  
HETATM   12  C   UNL     1      -8.707   8.631  72.224  1.00  0.00    -0.193 A  
HETATM   13  C   UNL     1      -8.761   9.350  69.879  1.00  0.00    -0.209 A  
HETATM   14  C   UNL     1      -7.467   8.030  71.984  1.00  0.00    -0.102 A  
HETATM   15  O   UNL     1     -12.066  14.092  68.472  1.00  0.00    -0.357 OA 
HETATM   16  C   UNL     1     -11.033  12.946  63.904  1.00  0.00    -0.384 C  
HETATM   17  C   UNL     1     -11.524  13.554  66.248  1.00  0.00    -0.326 C  
HETATM   18  C   UNL     1     -10.854  11.260  65.643  1.00  0.00    -0.177 C  
HETATM   19  C   UNL     1      -6.881   8.072  70.722  1.00  0.00    -0.037 A  
HETATM   20  N   UNL     1     -11.271  12.518  65.269  1.00  0.00    -0.295 N  
HETATM   21  C   UNL     1      -7.518   8.724  69.660  1.00  0.00    -0.071 A  
ENDROOT
BRANCH   6  22
HETATM   22  C   UNL     1     -12.394  12.316  70.465  1.00  0.00    -0.349 A  
HETATM   23  C   UNL     1     -13.746  12.884  72.438  1.00  0.00    -0.530 A  
HETATM   24  C   UNL     1     -13.039  14.063  72.525  1.00  0.00    -0.454 A  
HETATM   25  C   UNL     1     -12.060  14.388  71.618  1.00  0.00    -0.262 A  
HETATM   26  C   UNL     1     -12.121  15.916  73.140  1.00  0.00    -0.506 C  
HETATM   27  C   UNL     1     -11.729  13.555  70.571  1.00  0.00    -0.144 A  
HETATM   28  O   UNL     1     -13.184  15.007  73.494  1.00  0.00    -0.502 OA 
HETATM   29  C   UNL     1     -13.407  11.998  71.410  1.00  0.00     0.003 A  
HETATM   30  O   UNL     1     -11.461  15.576  71.905  1.00  0.00    -0.403 OA 
ENDBRANCH   6  22
TORSDOF 1
ENDMDL
MODEL       56
REMARK 921   NORMALIZED FREE ENERGY PREDICTED BY IDOCK:   -5.72 KCAL/MOL
REMARK 922        TOTAL FREE ENERGY PREDICTED BY IDOCK:   -6.10 KCAL/MOL
REMARK 923 INTER-LIGAND FREE ENERGY PREDICTED BY IDOCK:   -6.12 KCAL/MOL
REMARK 924 INTRA-LIGAND FREE ENERGY PREDICTED BY IDOCK:    0.02 KCAL/MOL
REMARK 927      BINDING AFFINITY PREDICTED BY RF-SCORE:    0.00 PKD
ROOT
HETATM    1  C   UNL     1      -7.987   8.874  69.829  1.00  0.00    -0.100 C  
HETATM    2  C   UNL     1      -9.342   9.541  70.169  1.00  0.00    -0.286 C  
HETATM    3  C   UNL     1     -10.373   8.488  70.380  1.00  0.00    -0.222 A  
HETATM    4  C   UNL     1     -10.191   7.198  69.919  1.00  0.00    -0.207 A  
HETATM    5  N   UNL     1     -11.277   6.459  70.316  1.00  0.00    -0.351 NA 
HETATM    6  C   UNL     1      -8.990   6.661  69.167  1.00  0.00    -0.131 C  
HETATM    7  N   UNL     1      -8.134   7.826  68.786  1.00  0.00    -0.125 N  
HETATM    8  O   UNL     1      -6.742  10.822  70.504  1.00  0.00    -0.312 OA 
HETATM    9  C   UNL     1     -12.192   7.273  70.953  1.00  0.00    -0.270 A  
HETATM   10  H   UNL     1     -11.390   5.457  70.164  1.00  0.00     0.000 HD 
HETATM   11  C   UNL     1      -7.668   8.049  67.502  1.00  0.00    -0.106 C  
HETATM   12  C   UNL     1     -13.456   6.967  71.471  1.00  0.00    -0.363 A  
HETATM   13  C   UNL     1     -11.640   8.552  71.018  1.00  0.00    -0.317 A  
HETATM   14  C   UNL     1     -14.175   8.004  72.076  1.00  0.00    -0.465 A  
HETATM   15  O   UNL     1      -7.938   7.365  66.516  1.00  0.00    -0.105 OA 
HETATM   16  C   UNL     1      -5.403  11.130  68.143  1.00  0.00    -0.042 C  
HETATM   17  C   UNL     1      -6.728   9.229  67.288  1.00  0.00    -0.069 C  
HETATM   18  C   UNL     1      -6.951   9.985  69.624  1.00  0.00    -0.096 C  
HETATM   19  C   UNL     1     -13.645   9.288  72.164  1.00  0.00    -0.536 A  
HETATM   20  N   UNL     1      -6.280  10.008  68.422  1.00  0.00    -0.049 N  
HETATM   21  C   UNL     1     -12.378   9.575  71.644  1.00  0.00    -0.480 A  
ENDROOT
BRANCH   6  22
HETATM   22  C   UNL     1      -9.336   5.669  68.064  1.00  0.00    -0.114 A  
HETATM   23  C   UNL     1     -10.660   5.015  66.099  1.00  0.00    -0.321 A  
HETATM   24  C   UNL     1      -9.763   3.990  65.894  1.00  0.00    -0.188 A  
HETATM   25  C   UNL     1      -8.700   3.780  66.738  1.00  0.00    -0.118 A  
HETATM   26  C   UNL     1      -8.565   2.380  65.101  1.00  0.00    -0.109 C  
HETATM   27  C   UNL     1      -8.470   4.580  67.836  1.00  0.00    -0.104 A  
HETATM   28  O   UNL     1      -9.786   3.109  64.858  1.00  0.00    -0.125 OA 
HETATM   29  C   UNL     1     -10.432   5.869  67.183  1.00  0.00    -0.335 A  
HETATM   30  O   UNL     1      -7.916   2.742  66.337  1.00  0.00    -0.079 OA 
ENDBRANCH   6  22
TORSDOF 1
ENDMDL
MODEL       57
REMARK 921   NORMALIZED FREE ENERGY PREDICTED BY IDOCK:   -5.70 KCAL/MOL
REMARK 922        TOTAL FREE ENERGY PREDICTED BY IDOCK:   -6.08 KCAL/MOL
REMARK 923 INTER-LIGAND FREE ENERGY PREDICTED BY IDOCK:   -6.16 KCAL/MOL
REMARK 924 INTRA-LIGAND FREE ENERGY PREDICTED BY IDOCK:    0.08 KCAL/MOL
REMARK 927      BINDING AFFINITY PREDICTED BY RF-SCORE:    0.00 PKD
ROOT
HETATM    1  C   UNL     1      -8.861  18.028  67.266  1.00  0.00    -0.247 C  
HETATM    2  C   UNL     1      -9.494  17.319  66.044  1.00  0.00    -0.143 C  
HETATM    3  C   UNL     1      -9.934  15.952  66.438  1.00  0.00    -0.304 A  
HETATM    4  C   UNL     1      -9.447  15.337  67.575  1.00  0.00    -0.202 A  
HETATM    5  N   UNL     1     -10.079  14.125  67.695  1.00  0.00    -0.235 NA 
HETATM    6  C   UNL     1      -8.446  15.907  68.560  1.00  0.00    -0.184 C  
HETATM    7  N   UNL     1      -7.879  17.155  67.962  1.00  0.00    -0.190 N  
HETATM    8  O   UNL     1      -9.235  20.211  66.323  1.00  0.00    -0.348 OA 
HETATM    9  C   UNL     1     -10.902  13.915  66.607  1.00  0.00    -0.289 A  
HETATM   10  H   UNL     1      -9.958  13.476  68.472  1.00  0.00     0.000 HD 
HETATM   11  C   UNL     1      -6.523  17.412  67.863  1.00  0.00    -0.158 C  
HETATM   12  C   UNL     1     -11.692  12.806  66.281  1.00  0.00    -0.460 A  
HETATM   13  C   UNL     1     -10.839  15.057  65.808  1.00  0.00    -0.355 A  
HETATM   14  C   UNL     1     -12.439  12.870  65.100  1.00  0.00    -0.561 A  
HETATM   15  O   UNL     1      -5.624  16.640  68.193  1.00  0.00    -0.110 OA 
HETATM   16  C   UNL     1      -6.633  21.030  66.473  1.00  0.00    -0.252 C  
HETATM   17  C   UNL     1      -6.101  18.769  67.314  1.00  0.00    -0.170 C  
HETATM   18  C   UNL     1      -8.426  19.429  66.826  1.00  0.00    -0.302 C  
HETATM   19  C   UNL     1     -12.404  14.000  64.288  1.00  0.00    -0.393 A  
HETATM   20  N   UNL     1      -7.104  19.768  67.011  1.00  0.00    -0.211 N  
HETATM   21  C   UNL     1     -11.612  15.102  64.632  1.00  0.00    -0.357 A  
ENDROOT
BRANCH   6  22
HETATM   22  C   UNL     1      -7.451  14.888  69.100  1.00  0.00    -0.158 A  
HETATM   23  C   UNL     1      -6.067  13.993  70.925  1.00  0.00    -0.130 A  
HETATM   24  C   UNL     1      -5.865  12.868  70.157  1.00  0.00    -0.155 A  
HETATM   25  C   UNL     1      -6.405  12.744  68.899  1.00  0.00    -0.086 A  
HETATM   26  C   UNL     1      -5.403  10.900  69.403  1.00  0.00    -0.041 C  
HETATM   27  C   UNL     1      -7.179  13.735  68.336  1.00  0.00    -0.108 A  
HETATM   28  O   UNL     1      -5.164  11.765  70.533  1.00  0.00    -0.097 OA 
HETATM   29  C   UNL     1      -6.881  15.001  70.397  1.00  0.00     0.132 A  
HETATM   30  O   UNL     1      -6.117  11.543  68.327  1.00  0.00    -0.046 OA 
ENDBRANCH   6  22
TORSDOF 1
ENDMDL
MODEL       58
REMARK 921   NORMALIZED FREE ENERGY PREDICTED BY IDOCK:   -5.69 KCAL/MOL
REMARK 922        TOTAL FREE ENERGY PREDICTED BY IDOCK:   -6.07 KCAL/MOL
REMARK 923 INTER-LIGAND FREE ENERGY PREDICTED BY IDOCK:   -6.09 KCAL/MOL
REMARK 924 INTRA-LIGAND FREE ENERGY PREDICTED BY IDOCK:    0.02 KCAL/MOL
REMARK 927      BINDING AFFINITY PREDICTED BY RF-SCORE:    0.00 PKD
ROOT
HETATM    1  C   UNL     1     -11.029  10.519  66.788  1.00  0.00    -0.080 C  
HETATM    2  C   UNL     1      -9.752  10.464  65.915  1.00  0.00    -0.272 C  
HETATM    3  C   UNL     1      -9.248   9.064  65.863  1.00  0.00    -0.290 A  
HETATM    4  C   UNL     1      -9.642   8.121  66.792  1.00  0.00    -0.217 A  
HETATM    5  N   UNL     1      -9.059   6.928  66.445  1.00  0.00    -0.159 NA 
HETATM    6  C   UNL     1     -10.595   8.328  67.953  1.00  0.00    -0.147 C  
HETATM    7  N   UNL     1     -10.849   9.797  68.075  1.00  0.00    -0.245 N  
HETATM    8  O   UNL     1     -11.762  12.573  65.767  1.00  0.00    -0.384 OA 
HETATM    9  C   UNL     1      -8.230   7.109  65.356  1.00  0.00    -0.137 A  
HETATM   10  H   UNL     1      -9.216   6.040  66.921  1.00  0.00     0.000 HD 
HETATM   11  C   UNL     1     -10.728  10.501  69.260  1.00  0.00    -0.234 C  
HETATM   12  C   UNL     1      -7.400   6.193  64.699  1.00  0.00    -0.072 A  
HETATM   13  C   UNL     1      -8.343   8.442  64.963  1.00  0.00    -0.169 A  
HETATM   14  C   UNL     1      -6.663   6.658  63.605  1.00  0.00    -0.048 A  
HETATM   15  O   UNL     1     -10.348  10.034  70.332  1.00  0.00    -0.282 OA 
HETATM   16  C   UNL     1     -11.995  13.977  68.099  1.00  0.00    -0.347 C  
HETATM   17  C   UNL     1     -11.111  11.975  69.246  1.00  0.00    -0.185 C  
HETATM   18  C   UNL     1     -11.521  11.970  66.815  1.00  0.00    -0.345 C  
HETATM   19  C   UNL     1      -6.763   7.981  63.183  1.00  0.00    -0.084 A  
HETATM   20  N   UNL     1     -11.672  12.564  68.049  1.00  0.00    -0.346 N  
HETATM   21  C   UNL     1      -7.601   8.882  63.849  1.00  0.00    -0.121 A  
ENDROOT
BRANCH   6  22
HETATM   22  C   UNL     1     -10.202   7.588  69.224  1.00  0.00    -0.201 A  
HETATM   23  C   UNL     1      -8.533   6.960  70.917  1.00  0.00    -0.135 A  
HETATM   24  C   UNL     1      -9.566   6.476  71.688  1.00  0.00    -0.160 A  
HETATM   25  C   UNL     1     -10.871   6.515  71.257  1.00  0.00    -0.249 A  
HETATM   26  C   UNL     1     -10.835   5.745  73.273  1.00  0.00    -0.272 C  
HETATM   27  C   UNL     1     -11.219   7.041  70.032  1.00  0.00    -0.310 A  
HETATM   28  O   UNL     1      -9.447   5.948  72.936  1.00  0.00    -0.151 OA 
HETATM   29  C   UNL     1      -8.858   7.536  69.684  1.00  0.00    -0.141 A  
HETATM   30  O   UNL     1     -11.738   6.022  72.183  1.00  0.00    -0.311 OA 
ENDBRANCH   6  22
TORSDOF 1
ENDMDL
MODEL       59
REMARK 921   NORMALIZED FREE ENERGY PREDICTED BY IDOCK:   -5.69 KCAL/MOL
REMARK 922        TOTAL FREE ENERGY PREDICTED BY IDOCK:   -6.07 KCAL/MOL
REMARK 923 INTER-LIGAND FREE ENERGY PREDICTED BY IDOCK:   -6.49 KCAL/MOL
REMARK 924 INTRA-LIGAND FREE ENERGY PREDICTED BY IDOCK:    0.42 KCAL/MOL
REMARK 927      BINDING AFFINITY PREDICTED BY RF-SCORE:    0.00 PKD
ROOT
HETATM    1  C   UNL     1      -9.924  13.624  65.784  1.00  0.00    -0.261 C  
HETATM    2  C   UNL     1      -9.413  15.030  65.386  1.00  0.00     0.051 C  
HETATM    3  C   UNL     1      -8.906  15.733  66.597  1.00  0.00    -0.324 A  
HETATM    4  C   UNL     1      -9.254  15.321  67.869  1.00  0.00    -0.184 A  
HETATM    5  N   UNL     1      -8.588  16.123  68.761  1.00  0.00    -0.223 NA 
HETATM    6  C   UNL     1     -10.154  14.158  68.235  1.00  0.00    -0.241 C  
HETATM    7  N   UNL     1     -10.807  13.675  66.978  1.00  0.00    -0.284 N  
HETATM    8  O   UNL     1      -9.699  12.794  63.535  1.00  0.00    -0.124 OA 
HETATM    9  C   UNL     1      -7.883  17.097  68.083  1.00  0.00    -0.206 A  
HETATM   10  H   UNL     1      -8.611  16.015  69.775  1.00  0.00     0.000 HD 
HETATM   11  C   UNL     1     -12.170  13.481  66.848  1.00  0.00    -0.327 C  
HETATM   12  C   UNL     1      -7.112  18.155  68.579  1.00  0.00    -0.262 A  
HETATM   13  C   UNL     1      -8.056  16.864  66.719  1.00  0.00    -0.276 A  
HETATM   14  C   UNL     1      -6.498  18.999  67.647  1.00  0.00    -0.212 A  
HETATM   15  O   UNL     1     -13.012  13.728  67.710  1.00  0.00     0.963 OA 
HETATM   16  C   UNL     1     -12.285  11.950  63.288  1.00  0.00    -0.374 C  
HETATM   17  C   UNL     1     -12.677  12.896  65.536  1.00  0.00    -0.145 C  
HETATM   18  C   UNL     1     -10.432  12.930  64.516  1.00  0.00    -0.377 C  
HETATM   19  C   UNL     1      -6.644  18.785  66.279  1.00  0.00    -0.241 A  
HETATM   20  N   UNL     1     -11.733  12.478  64.521  1.00  0.00    -0.344 N  
HETATM   21  C   UNL     1      -7.416  17.720  65.801  1.00  0.00    -0.086 A  
ENDROOT
BRANCH   6  22
HETATM   22  C   UNL     1     -11.063  14.422  69.427  1.00  0.00    -0.294 A  
HETATM   23  C   UNL     1     -12.406  15.947  70.810  1.00  0.00    -0.342 A  
HETATM   24  C   UNL     1     -12.943  14.840  71.427  1.00  0.00    -0.342 A  
HETATM   25  C   UNL     1     -12.557  13.565  71.091  1.00  0.00    -0.355 A  
HETATM   26  C   UNL     1     -14.146  13.440  72.545  1.00  0.00    -0.312 C  
HETATM   27  C   UNL     1     -11.611  13.322  70.118  1.00  0.00    -0.155 A  
HETATM   28  O   UNL     1     -13.909  14.854  72.386  1.00  0.00    -0.426 OA 
HETATM   29  C   UNL     1     -11.472  15.733  69.791  1.00  0.00    -0.350 A  
HETATM   30  O   UNL     1     -13.235  12.615  71.791  1.00  0.00    -0.432 OA 
ENDBRANCH   6  22
TORSDOF 1
ENDMDL
MODEL       60
REMARK 921   NORMALIZED FREE ENERGY PREDICTED BY IDOCK:   -5.66 KCAL/MOL
REMARK 922        TOTAL FREE ENERGY PREDICTED BY IDOCK:   -6.03 KCAL/MOL
REMARK 923 INTER-LIGAND FREE ENERGY PREDICTED BY IDOCK:   -5.98 KCAL/MOL
REMARK 924 INTRA-LIGAND FREE ENERGY PREDICTED BY IDOCK:   -0.05 KCAL/MOL
REMARK 927      BINDING AFFINITY PREDICTED BY RF-SCORE:    0.00 PKD
ROOT
HETATM    1  C   UNL     1      -9.826   5.579  66.707  1.00  0.00    -0.167 C  
HETATM    2  C   UNL     1      -9.536   5.367  68.212  1.00  0.00    -0.146 C  
HETATM    3  C   UNL     1     -10.117   6.494  68.992  1.00  0.00    -0.186 A  
HETATM    4  C   UNL     1     -10.458   7.689  68.388  1.00  0.00    -0.169 A  
HETATM    5  N   UNL     1     -11.015   8.495  69.348  1.00  0.00    -0.427 NA 
HETATM    6  C   UNL     1     -10.312   8.041  66.921  1.00  0.00    -0.338 C  
HETATM    7  N   UNL     1      -9.503   6.963  66.273  1.00  0.00    -0.120 N  
HETATM    8  O   UNL     1      -9.531   3.241  66.215  1.00  0.00    -0.159 OA 
HETATM    9  C   UNL     1     -10.960   7.869  70.578  1.00  0.00    -0.248 A  
HETATM   10  H   UNL     1     -11.411   9.420  69.179  1.00  0.00     0.000 HD 
HETATM   11  C   UNL     1      -8.393   7.207  65.483  1.00  0.00    -0.129 C  
HETATM   12  C   UNL     1     -11.357   8.331  71.838  1.00  0.00    -0.372 A  
HETATM   13  C   UNL     1     -10.412   6.602  70.377  1.00  0.00    -0.249 A  
HETATM   14  C   UNL     1     -11.186   7.469  72.926  1.00  0.00    -0.396 A  
HETATM   15  O   UNL     1      -7.903   8.313  65.262  1.00  0.00    -0.105 OA 
HETATM   16  C   UNL     1      -7.619   3.598  64.296  1.00  0.00    -0.076 C  
HETATM   17  C   UNL     1      -7.728   6.011  64.815  1.00  0.00    -0.101 C  
HETATM   18  C   UNL     1      -9.220   4.401  65.938  1.00  0.00    -0.140 C  
HETATM   19  C   UNL     1     -10.651   6.195  72.755  1.00  0.00    -0.254 A  
HETATM   20  N   UNL     1      -8.317   4.695  64.940  1.00  0.00    -0.123 N  
HETATM   21  C   UNL     1     -10.264   5.748  71.487  1.00  0.00    -0.255 A  
ENDROOT
BRANCH   6  22
HETATM   22  C   UNL     1      -9.879   9.478  66.664  1.00  0.00    -0.293 A  
HETATM   23  C   UNL     1     -10.046  11.580  65.398  1.00  0.00    -0.304 A  
HETATM   24  C   UNL     1      -9.293  12.178  66.384  1.00  0.00    -0.224 A  
HETATM   25  C   UNL     1      -8.823  11.472  67.465  1.00  0.00    -0.155 A  
HETATM   26  C   UNL     1      -8.299  13.550  67.720  1.00  0.00    -0.181 C  
HETATM   27  C   UNL     1      -9.077  10.127  67.624  1.00  0.00    -0.144 A  
HETATM   28  O   UNL     1      -8.957  13.495  66.438  1.00  0.00    -0.122 OA 
HETATM   29  C   UNL     1     -10.355  10.224  65.551  1.00  0.00    -0.239 A  
HETATM   30  O   UNL     1      -8.135  12.257  68.338  1.00  0.00    -0.157 OA 
ENDBRANCH   6  22
TORSDOF 1
ENDMDL
MODEL       61
REMARK 921   NORMALIZED FREE ENERGY PREDICTED BY IDOCK:   -5.65 KCAL/MOL
REMARK 922        TOTAL FREE ENERGY PREDICTED BY IDOCK:   -6.03 KCAL/MOL
REMARK 923 INTER-LIGAND FREE ENERGY PREDICTED BY IDOCK:   -6.31 KCAL/MOL
REMARK 924 INTRA-LIGAND FREE ENERGY PREDICTED BY IDOCK:    0.28 KCAL/MOL
REMARK 927      BINDING AFFINITY PREDICTED BY RF-SCORE:    0.00 PKD
ROOT
HETATM    1  C   UNL     1     -10.232  14.968  65.300  1.00  0.00    -0.377 C  
HETATM    2  C   UNL     1     -10.696  16.353  65.811  1.00  0.00    -0.245 C  
HETATM    3  C   UNL     1      -9.542  17.067  66.424  1.00  0.00    -0.301 A  
HETATM    4  C   UNL     1      -8.404  16.392  66.819  1.00  0.00    -0.250 A  
HETATM    5  N   UNL     1      -7.511  17.323  67.286  1.00  0.00    -0.171 NA 
HETATM    6  C   UNL     1      -8.143  14.903  66.707  1.00  0.00     0.027 C  
HETATM    7  N   UNL     1      -9.429  14.244  66.321  1.00  0.00    -0.277 N  
HETATM    8  O   UNL     1     -12.078  14.800  63.764  1.00  0.00    -0.425 OA 
HETATM    9  C   UNL     1      -8.089  18.577  67.275  1.00  0.00    -0.241 A  
HETATM   10  H   UNL     1      -6.560  17.119  67.595  1.00  0.00     0.000 HD 
HETATM   11  C   UNL     1      -9.964  13.156  66.987  1.00  0.00    -0.244 C  
HETATM   12  C   UNL     1      -7.576  19.805  67.707  1.00  0.00    -0.321 A  
HETATM   13  C   UNL     1      -9.363  18.444  66.723  1.00  0.00    -0.296 A  
HETATM   14  C   UNL     1      -8.394  20.932  67.570  1.00  0.00    -0.091 A  
HETATM   15  O   UNL     1      -9.493  12.635  67.997  1.00  0.00    -0.197 OA 
HETATM   16  C   UNL     1     -13.003  12.405  64.699  1.00  0.00     0.003 C  
HETATM   17  C   UNL     1     -11.234  12.536  66.418  1.00  0.00    -0.306 C  
HETATM   18  C   UNL     1     -11.440  14.265  64.673  1.00  0.00    -0.385 C  
HETATM   19  C   UNL     1      -9.666  20.831  67.014  1.00  0.00    -0.391 A  
HETATM   20  N   UNL     1     -11.780  13.027  65.171  1.00  0.00    -0.327 N  
HETATM   21  C   UNL     1     -10.161  19.596  66.582  1.00  0.00    -0.576 A  
ENDROOT
BRANCH   6  22
HETATM   22  C   UNL     1      -7.392  14.309  67.891  1.00  0.00    -0.163 A  
HETATM   23  C   UNL     1      -6.899  14.219  70.298  1.00  0.00     0.119 A  
HETATM   24  C   UNL     1      -6.237  13.033  70.070  1.00  0.00    -0.062 A  
HETATM   25  C   UNL     1      -6.124  12.498  68.810  1.00  0.00    -0.070 A  
HETATM   26  C   UNL     1      -5.252  11.120  70.223  1.00  0.00    -0.072 C  
HETATM   27  C   UNL     1      -6.667  13.115  67.704  1.00  0.00    -0.163 A  
HETATM   28  O   UNL     1      -5.660  12.250  71.021  1.00  0.00    -0.302 OA 
HETATM   29  C   UNL     1      -7.495  14.850  69.201  1.00  0.00    -0.158 A  
HETATM   30  O   UNL     1      -5.466  11.307  68.809  1.00  0.00    -0.044 OA 
ENDBRANCH   6  22
TORSDOF 1
ENDMDL
MODEL       62
REMARK 921   NORMALIZED FREE ENERGY PREDICTED BY IDOCK:   -5.64 KCAL/MOL
REMARK 922        TOTAL FREE ENERGY PREDICTED BY IDOCK:   -6.02 KCAL/MOL
REMARK 923 INTER-LIGAND FREE ENERGY PREDICTED BY IDOCK:   -5.89 KCAL/MOL
REMARK 924 INTRA-LIGAND FREE ENERGY PREDICTED BY IDOCK:   -0.12 KCAL/MOL
REMARK 927      BINDING AFFINITY PREDICTED BY RF-SCORE:    0.00 PKD
ROOT
HETATM    1  C   UNL     1     -10.018  11.238  66.869  1.00  0.00    -0.207 C  
HETATM    2  C   UNL     1     -11.132  10.745  67.824  1.00  0.00    -0.381 C  
HETATM    3  C   UNL     1     -10.543   9.832  68.842  1.00  0.00    -0.240 A  
HETATM    4  C   UNL     1      -9.311   9.237  68.651  1.00  0.00    -0.139 A  
HETATM    5  N   UNL     1      -9.023   8.509  69.777  1.00  0.00    -0.144 NA 
HETATM    6  C   UNL     1      -8.399   9.398  67.451  1.00  0.00    -0.125 C  
HETATM    7  N   UNL     1      -9.169  10.118  66.389  1.00  0.00    -0.155 N  
HETATM    8  O   UNL     1     -11.299  13.166  66.204  1.00  0.00    -0.297 OA 
HETATM    9  C   UNL     1     -10.087   8.559  70.655  1.00  0.00    -0.192 A  
HETATM   10  H   UNL     1      -8.151   8.006  69.942  1.00  0.00     0.000 HD 
HETATM   11  C   UNL     1      -9.269   9.676  65.081  1.00  0.00    -0.246 C  
HETATM   12  C   UNL     1     -10.259   7.929  71.893  1.00  0.00    -0.258 A  
HETATM   13  C   UNL     1     -11.051   9.397  70.095  1.00  0.00    -0.277 A  
HETATM   14  C   UNL     1     -11.455   8.165  72.578  1.00  0.00    -0.470 A  
HETATM   15  O   UNL     1      -8.798   8.627  64.644  1.00  0.00    -0.099 OA 
HETATM   16  C   UNL     1     -11.206  12.651  63.523  1.00  0.00    -0.429 C  
HETATM   17  C   UNL     1     -10.010  10.566  64.091  1.00  0.00    -0.318 C  
HETATM   18  C   UNL     1     -10.658  12.177  65.841  1.00  0.00    -0.258 C  
HETATM   19  C   UNL     1     -12.431   9.005  72.049  1.00  0.00    -0.460 A  
HETATM   20  N   UNL     1     -10.492  11.865  64.510  1.00  0.00    -0.279 N  
HETATM   21  C   UNL     1     -12.241   9.630  70.811  1.00  0.00    -0.309 A  
ENDROOT
BRANCH   6  22
HETATM   22  C   UNL     1      -7.681   8.121  67.036  1.00  0.00    -0.096 A  
HETATM   23  C   UNL     1      -5.629   6.909  66.431  1.00  0.00    -0.022 A  
HETATM   24  C   UNL     1      -6.339   5.736  66.563  1.00  0.00    -0.038 A  
HETATM   25  C   UNL     1      -7.672   5.731  66.896  1.00  0.00    -0.101 A  
HETATM   26  C   UNL     1      -6.981   3.689  66.792  1.00  0.00    -0.055 C  
HETATM   27  C   UNL     1      -8.373   6.896  67.117  1.00  0.00    -0.121 A  
HETATM   28  O   UNL     1      -5.834   4.482  66.421  1.00  0.00    -0.021 OA 
HETATM   29  C   UNL     1      -6.303   8.108  66.687  1.00  0.00    -0.055 A  
HETATM   30  O   UNL     1      -8.173   4.471  67.012  1.00  0.00    -0.102 OA 
ENDBRANCH   6  22
TORSDOF 1
ENDMDL
MODEL       63
REMARK 921   NORMALIZED FREE ENERGY PREDICTED BY IDOCK:   -5.61 KCAL/MOL
REMARK 922        TOTAL FREE ENERGY PREDICTED BY IDOCK:   -5.99 KCAL/MOL
REMARK 923 INTER-LIGAND FREE ENERGY PREDICTED BY IDOCK:   -6.08 KCAL/MOL
REMARK 924 INTRA-LIGAND FREE ENERGY PREDICTED BY IDOCK:    0.09 KCAL/MOL
REMARK 927      BINDING AFFINITY PREDICTED BY RF-SCORE:    0.00 PKD
ROOT
HETATM    1  C   UNL     1     -10.416  12.730  67.358  1.00  0.00    -0.228 C  
HETATM    2  C   UNL     1     -11.701  13.466  67.807  1.00  0.00    -0.394 C  
HETATM    3  C   UNL     1     -11.936  13.212  69.256  1.00  0.00    -0.344 A  
HETATM    4  C   UNL     1     -11.328  12.158  69.911  1.00  0.00    -0.031 A  
HETATM    5  N   UNL     1     -11.694  12.225  71.232  1.00  0.00     0.418 NA 
HETATM    6  C   UNL     1     -10.375  11.142  69.313  1.00  0.00    -0.120 C  
HETATM    7  N   UNL     1     -10.394  11.320  67.828  1.00  0.00    -0.178 N  
HETATM    8  O   UNL     1     -10.130  14.176  65.454  1.00  0.00    -0.338 OA 
HETATM    9  C   UNL     1     -12.594  13.254  71.419  1.00  0.00    -0.271 A  
HETATM   10  H   UNL     1     -11.351  11.606  71.966  1.00  0.00     0.000 HD 
HETATM   11  C   UNL     1     -10.587  10.282  66.934  1.00  0.00    -0.217 C  
HETATM   12  C   UNL     1     -13.270  13.656  72.578  1.00  0.00    -0.578 A  
HETATM   13  C   UNL     1     -12.752  13.899  70.192  1.00  0.00    -0.182 A  
HETATM   14  C   UNL     1     -14.133  14.752  72.476  1.00  0.00    -0.459 A  
HETATM   15  O   UNL     1     -10.820   9.113  67.236  1.00  0.00    -0.233 OA 
HETATM   16  C   UNL     1     -10.051  12.177  63.594  1.00  0.00    -0.385 C  
HETATM   17  C   UNL     1     -10.487  10.605  65.448  1.00  0.00    -0.184 C  
HETATM   18  C   UNL     1     -10.203  13.017  65.868  1.00  0.00    -0.292 C  
HETATM   19  C   UNL     1     -14.304  15.421  71.267  1.00  0.00    -0.402 A  
HETATM   20  N   UNL     1     -10.105  11.934  65.023  1.00  0.00    -0.260 N  
HETATM   21  C   UNL     1     -13.617  15.009  70.119  1.00  0.00     0.582 A  
ENDROOT
BRANCH   6  22
HETATM   22  C   UNL     1     -10.560   9.726  69.841  1.00  0.00    -0.301 A  
HETATM   23  C   UNL     1      -9.644   7.549  70.522  1.00  0.00    -0.168 A  
HETATM   24  C   UNL     1     -10.873   7.255  71.069  1.00  0.00    -0.239 A  
HETATM   25  C   UNL     1     -11.926   8.136  70.999  1.00  0.00    -0.240 A  
HETATM   26  C   UNL     1     -12.532   6.432  72.176  1.00  0.00    -0.123 C  
HETATM   27  C   UNL     1     -11.811   9.361  70.379  1.00  0.00    -0.140 A  
HETATM   28  O   UNL     1     -11.189   6.121  71.750  1.00  0.00    -0.262 OA 
HETATM   29  C   UNL     1      -9.484   8.801  69.920  1.00  0.00    -0.174 A  
HETATM   30  O   UNL     1     -13.036   7.669  71.632  1.00  0.00    -0.334 OA 
ENDBRANCH   6  22
TORSDOF 1
ENDMDL
MODEL       64
REMARK 921   NORMALIZED FREE ENERGY PREDICTED BY IDOCK:   -5.59 KCAL/MOL
REMARK 922        TOTAL FREE ENERGY PREDICTED BY IDOCK:   -5.96 KCAL/MOL
REMARK 923 INTER-LIGAND FREE ENERGY PREDICTED BY IDOCK:   -5.85 KCAL/MOL
REMARK 924 INTRA-LIGAND FREE ENERGY PREDICTED BY IDOCK:   -0.11 KCAL/MOL
REMARK 927      BINDING AFFINITY PREDICTED BY RF-SCORE:    0.00 PKD
ROOT
HETATM    1  C   UNL     1     -10.644  10.214  67.379  1.00  0.00    -0.272 C  
HETATM    2  C   UNL     1      -9.146  10.097  67.009  1.00  0.00    -0.155 C  
HETATM    3  C   UNL     1      -8.640   8.756  67.413  1.00  0.00    -0.126 A  
HETATM    4  C   UNL     1      -9.317   7.975  68.330  1.00  0.00    -0.140 A  
HETATM    5  N   UNL     1      -8.639   6.788  68.445  1.00  0.00    -0.125 NA 
HETATM    6  C   UNL     1     -10.610   8.321  69.040  1.00  0.00    -0.150 C  
HETATM    7  N   UNL     1     -10.906   9.762  68.770  1.00  0.00    -0.212 N  
HETATM    8  O   UNL     1     -11.007  11.976  65.778  1.00  0.00    -0.286 OA 
HETATM    9  C   UNL     1      -7.490   6.827  67.681  1.00  0.00    -0.098 A  
HETATM   10  H   UNL     1      -8.939   5.995  69.012  1.00  0.00     0.000 HD 
HETATM   11  C   UNL     1     -11.204  10.683  69.759  1.00  0.00    -0.297 C  
HETATM   12  C   UNL     1      -6.476   5.873  67.536  1.00  0.00    -0.047 A  
HETATM   13  C   UNL     1      -7.475   8.050  67.010  1.00  0.00    -0.092 A  
HETATM   14  C   UNL     1      -5.415   6.181  66.678  1.00  0.00    -0.012 A  
HETATM   15  O   UNL     1     -11.207  10.456  70.968  1.00  0.00    -0.266 OA 
HETATM   16  C   UNL     1     -12.035  13.769  67.564  1.00  0.00    -0.376 C  
HETATM   17  C   UNL     1     -11.575  12.093  69.320  1.00  0.00    -0.318 C  
HETATM   18  C   UNL     1     -11.132  11.600  66.946  1.00  0.00    -0.308 C  
HETATM   19  C   UNL     1      -5.379   7.389  65.988  1.00  0.00    -0.025 A  
HETATM   20  N   UNL     1     -11.700  12.401  67.911  1.00  0.00    -0.357 N  
HETATM   21  C   UNL     1      -6.403   8.331  66.141  1.00  0.00    -0.049 A  
ENDROOT
BRANCH   6  22
HETATM   22  C   UNL     1     -10.667   7.866  70.492  1.00  0.00    -0.233 A  
HETATM   23  C   UNL     1     -11.778   6.665  72.327  1.00  0.00    -0.305 A  
HETATM   24  C   UNL     1     -10.619   6.803  73.057  1.00  0.00    -0.267 A  
HETATM   25  C   UNL     1      -9.521   7.460  72.555  1.00  0.00    -0.152 A  
HETATM   26  C   UNL     1      -9.010   6.642  74.486  1.00  0.00    -0.188 C  
HETATM   27  C   UNL     1      -9.518   8.017  71.295  1.00  0.00    -0.190 A  
HETATM   28  O   UNL     1     -10.400   6.302  74.303  1.00  0.00    -0.314 OA 
HETATM   29  C   UNL     1     -11.794   7.186  71.029  1.00  0.00    -0.373 A  
HETATM   30  O   UNL     1      -8.470   7.450  73.420  1.00  0.00    -0.119 OA 
ENDBRANCH   6  22
TORSDOF 1
ENDMDL
MODEL       65
REMARK 921   NORMALIZED FREE ENERGY PREDICTED BY IDOCK:   -5.43 KCAL/MOL
REMARK 922        TOTAL FREE ENERGY PREDICTED BY IDOCK:   -5.79 KCAL/MOL
REMARK 923 INTER-LIGAND FREE ENERGY PREDICTED BY IDOCK:   -5.82 KCAL/MOL
REMARK 924 INTRA-LIGAND FREE ENERGY PREDICTED BY IDOCK:    0.03 KCAL/MOL
REMARK 927      BINDING AFFINITY PREDICTED BY RF-SCORE:    0.00 PKD
ROOT
HETATM    1  C   UNL     1     -10.159   8.364  66.512  1.00  0.00    -0.247 C  
HETATM    2  C   UNL     1      -9.003   7.464  66.013  1.00  0.00    -0.156 C  
HETATM    3  C   UNL     1      -9.225   6.068  66.481  1.00  0.00    -0.158 A  
HETATM    4  C   UNL     1     -10.088   5.786  67.523  1.00  0.00    -0.171 A  
HETATM    5  N   UNL     1     -10.120   4.423  67.676  1.00  0.00    -0.046 NA 
HETATM    6  C   UNL     1     -10.908   6.779  68.321  1.00  0.00    -0.226 C  
HETATM    7  N   UNL     1     -10.440   8.152  67.955  1.00  0.00    -0.208 N  
HETATM    8  O   UNL     1      -9.748  10.013  64.805  1.00  0.00    -0.305 OA 
HETATM    9  C   UNL     1      -9.228   3.830  66.806  1.00  0.00    -0.177 A  
HETATM   10  H   UNL     1     -10.715   3.922  68.336  1.00  0.00     0.000 HD 
HETATM   11  C   UNL     1     -10.085   9.114  68.884  1.00  0.00    -0.197 C  
HETATM   12  C   UNL     1      -8.889   2.481  66.649  1.00  0.00    -0.140 A  
HETATM   13  C   UNL     1      -8.662   4.844  66.033  1.00  0.00    -0.124 A  
HETATM   14  C   UNL     1      -7.942   2.161  65.671  1.00  0.00    -0.078 A  
HETATM   15  O   UNL     1     -10.053   8.953  70.103  1.00  0.00    -0.179 OA 
HETATM   16  C   UNL     1      -9.453  12.120  66.518  1.00  0.00    -0.231 C  
HETATM   17  C   UNL     1      -9.717  10.497  68.362  1.00  0.00    -0.159 C  
HETATM   18  C   UNL     1      -9.901   9.788  66.008  1.00  0.00    -0.274 C  
HETATM   19  C   UNL     1      -7.367   3.151  64.878  1.00  0.00    -0.071 A  
HETATM   20  N   UNL     1      -9.840  10.791  66.950  1.00  0.00    -0.182 N  
HETATM   21  C   UNL     1      -7.721   4.495  65.045  1.00  0.00    -0.081 A  
ENDROOT
BRANCH   6  22
HETATM   22  C   UNL     1     -11.009   6.457  69.805  1.00  0.00    -0.417 A  
HETATM   23  C   UNL     1     -12.285   6.376  71.905  1.00  0.00    -0.332 A  
HETATM   24  C   UNL     1     -11.276   5.604  72.434  1.00  0.00    -0.280 A  
HETATM   25  C   UNL     1     -10.157   5.276  71.706  1.00  0.00    -0.200 A  
HETATM   26  C   UNL     1     -10.051   4.277  73.616  1.00  0.00    -0.145 C  
HETATM   27  C   UNL     1      -9.983   5.700  70.406  1.00  0.00    -0.267 A  
HETATM   28  O   UNL     1     -11.262   5.058  73.680  1.00  0.00    -0.315 OA 
HETATM   29  C   UNL     1     -12.157   6.790  70.575  1.00  0.00    -0.332 A  
HETATM   30  O   UNL     1      -9.302   4.477  72.400  1.00  0.00    -0.123 OA 
ENDBRANCH   6  22
TORSDOF 1
ENDMDL
MODEL       66
REMARK 921   NORMALIZED FREE ENERGY PREDICTED BY IDOCK:   -5.40 KCAL/MOL
REMARK 922        TOTAL FREE ENERGY PREDICTED BY IDOCK:   -5.77 KCAL/MOL
REMARK 923 INTER-LIGAND FREE ENERGY PREDICTED BY IDOCK:   -6.00 KCAL/MOL
REMARK 924 INTRA-LIGAND FREE ENERGY PREDICTED BY IDOCK:    0.23 KCAL/MOL
REMARK 927      BINDING AFFINITY PREDICTED BY RF-SCORE:    0.00 PKD
ROOT
HETATM    1  C   UNL     1      -7.077  13.400  69.552  1.00  0.00     0.220 C  
HETATM    2  C   UNL     1      -6.119  14.238  68.671  1.00  0.00    -0.088 C  
HETATM    3  C   UNL     1      -6.902  15.264  67.926  1.00  0.00    -0.167 A  
HETATM    4  C   UNL     1      -8.269  15.151  67.765  1.00  0.00    -0.150 A  
HETATM    5  N   UNL     1      -8.701  16.267  67.095  1.00  0.00    -0.184 NA 
HETATM    6  C   UNL     1      -9.158  14.039  68.284  1.00  0.00    -0.191 C  
HETATM    7  N   UNL     1      -8.271  12.947  68.792  1.00  0.00     0.033 N  
HETATM    8  O   UNL     1      -5.293  12.710  71.014  1.00  0.00    -0.159 OA 
HETATM    9  C   UNL     1      -7.621  17.055  66.748  1.00  0.00    -0.238 A  
HETATM   10  H   UNL     1      -9.675  16.483  66.883  1.00  0.00     0.000 HD 
HETATM   11  C   UNL     1      -8.404  11.619  68.427  1.00  0.00    -0.157 C  
HETATM   12  C   UNL     1      -7.579  18.248  66.016  1.00  0.00    -0.229 A  
HETATM   13  C   UNL     1      -6.478  16.451  67.273  1.00  0.00    -0.222 A  
HETATM   14  C   UNL     1      -6.327  18.840  65.817  1.00  0.00    -0.276 A  
HETATM   15  O   UNL     1      -9.213  11.180  67.612  1.00  0.00    -0.148 OA 
HETATM   16  C   UNL     1      -5.722  10.027  70.731  1.00  0.00    -0.084 C  
HETATM   17  C   UNL     1      -7.484  10.608  69.100  1.00  0.00    -0.123 C  
HETATM   18  C   UNL     1      -6.240  12.362  70.305  1.00  0.00     0.020 C  
HETATM   19  C   UNL     1      -5.171  18.266  66.337  1.00  0.00    -0.179 A  
HETATM   20  N   UNL     1      -6.585  11.038  70.149  1.00  0.00    -0.142 N  
HETATM   21  C   UNL     1      -5.232  17.075  67.070  1.00  0.00    -0.188 A  
ENDROOT
BRANCH   6  22
HETATM   22  C   UNL     1     -10.274  13.634  67.330  1.00  0.00    -0.241 A  
HETATM   23  C   UNL     1     -12.657  13.505  66.742  1.00  0.00    -0.042 A  
HETATM   24  C   UNL     1     -12.275  13.155  65.466  1.00  0.00    -0.461 A  
HETATM   25  C   UNL     1     -10.952  13.022  65.117  1.00  0.00    -0.295 A  
HETATM   26  C   UNL     1     -12.160  12.740  63.352  1.00  0.00    -0.534 C  
HETATM   27  C   UNL     1      -9.935  13.232  66.023  1.00  0.00    -0.297 A  
HETATM   28  O   UNL     1     -13.113  12.936  64.417  1.00  0.00    -0.686 OA 
HETATM   29  C   UNL     1     -11.647  13.763  67.674  1.00  0.00    -0.381 A  
HETATM   30  O   UNL     1     -10.791  12.708  63.803  1.00  0.00    -0.406 OA 
ENDBRANCH   6  22
TORSDOF 1
ENDMDL
MODEL       67
REMARK 921   NORMALIZED FREE ENERGY PREDICTED BY IDOCK:   -5.34 KCAL/MOL
REMARK 922        TOTAL FREE ENERGY PREDICTED BY IDOCK:   -5.70 KCAL/MOL
REMARK 923 INTER-LIGAND FREE ENERGY PREDICTED BY IDOCK:   -5.72 KCAL/MOL
REMARK 924 INTRA-LIGAND FREE ENERGY PREDICTED BY IDOCK:    0.03 KCAL/MOL
REMARK 927      BINDING AFFINITY PREDICTED BY RF-SCORE:    0.00 PKD
ROOT
HETATM    1  C   UNL     1      -9.344   9.663  70.186  1.00  0.00    -0.251 C  
HETATM    2  C   UNL     1      -8.904   8.480  69.290  1.00  0.00    -0.142 C  
HETATM    3  C   UNL     1      -7.996   8.981  68.221  1.00  0.00    -0.104 A  
HETATM    4  C   UNL     1      -7.945  10.320  67.887  1.00  0.00    -0.102 A  
HETATM    5  N   UNL     1      -6.983  10.470  66.920  1.00  0.00    -0.091 NA 
HETATM    6  C   UNL     1      -8.748  11.445  68.509  1.00  0.00    -0.149 C  
HETATM    7  N   UNL     1      -9.795  10.828  69.381  1.00  0.00    -0.145 N  
HETATM    8  O   UNL     1      -9.897   8.202  72.019  1.00  0.00    -0.191 OA 
HETATM    9  C   UNL     1      -6.474   9.236  66.567  1.00  0.00    -0.067 A  
HETATM   10  H   UNL     1      -6.687  11.361  66.522  1.00  0.00     0.000 HD 
HETATM   11  C   UNL     1     -11.138  11.154  69.316  1.00  0.00    -0.259 C  
HETATM   12  C   UNL     1      -5.524   8.902  65.596  1.00  0.00    -0.038 A  
HETATM   13  C   UNL     1      -7.087   8.284  67.382  1.00  0.00    -0.080 A  
HETATM   14  C   UNL     1      -5.190   7.551  65.455  1.00  0.00    -0.028 A  
HETATM   15  O   UNL     1     -11.645  11.934  68.512  1.00  0.00    -0.270 OA 
HETATM   16  C   UNL     1     -12.472   9.068  72.300  1.00  0.00    -0.357 C  
HETATM   17  C   UNL     1     -12.070  10.508  70.334  1.00  0.00    -0.329 C  
HETATM   18  C   UNL     1     -10.270   9.112  71.275  1.00  0.00    -0.329 C  
HETATM   19  C   UNL     1      -5.777   6.580  66.261  1.00  0.00    -0.014 A  
HETATM   20  N   UNL     1     -11.526   9.668  71.378  1.00  0.00    -0.380 N  
HETATM   21  C   UNL     1      -6.723   6.932  67.231  1.00  0.00    -0.063 A  
ENDROOT
BRANCH   6  22
HETATM   22  C   UNL     1      -9.213  12.504  67.518  1.00  0.00    -0.188 A  
HETATM   23  C   UNL     1     -10.327  13.144  65.422  1.00  0.00    -0.313 A  
HETATM   24  C   UNL     1     -10.305  14.448  65.864  1.00  0.00    -0.314 A  
HETATM   25  C   UNL     1      -9.745  14.795  67.070  1.00  0.00    -0.237 A  
HETATM   26  C   UNL     1     -10.628  16.556  66.191  1.00  0.00    -0.236 C  
HETATM   27  C   UNL     1      -9.176  13.858  67.906  1.00  0.00    -0.198 A  
HETATM   28  O   UNL     1     -10.837  15.517  65.212  1.00  0.00    -0.366 OA 
HETATM   29  C   UNL     1      -9.792  12.165  66.265  1.00  0.00    -0.250 A  
HETATM   30  O   UNL     1      -9.862  16.125  67.333  1.00  0.00    -0.233 OA 
ENDBRANCH   6  22
TORSDOF 1
ENDMDL
MODEL       68
REMARK 921   NORMALIZED FREE ENERGY PREDICTED BY IDOCK:   -5.25 KCAL/MOL
REMARK 922        TOTAL FREE ENERGY PREDICTED BY IDOCK:   -5.61 KCAL/MOL
REMARK 923 INTER-LIGAND FREE ENERGY PREDICTED BY IDOCK:   -5.48 KCAL/MOL
REMARK 924 INTRA-LIGAND FREE ENERGY PREDICTED BY IDOCK:   -0.12 KCAL/MOL
REMARK 927      BINDING AFFINITY PREDICTED BY RF-SCORE:    0.00 PKD
ROOT
HETATM    1  C   UNL     1      -8.872  15.313  68.314  1.00  0.00    -0.171 C  
HETATM    2  C   UNL     1      -9.441  15.372  66.876  1.00  0.00    -0.246 C  
HETATM    3  C   UNL     1      -9.899  14.014  66.469  1.00  0.00    -0.298 A  
HETATM    4  C   UNL     1      -9.468  12.880  67.130  1.00  0.00    -0.229 A  
HETATM    5  N   UNL     1     -10.104  11.804  66.564  1.00  0.00    -0.200 NA 
HETATM    6  C   UNL     1      -8.518  12.819  68.310  1.00  0.00    -0.161 C  
HETATM    7  N   UNL     1      -7.925  14.181  68.486  1.00  0.00    -0.142 N  
HETATM    8  O   UNL     1      -9.201  17.674  68.651  1.00  0.00    -0.282 OA 
HETATM    9  C   UNL     1     -10.872  12.220  65.495  1.00  0.00    -0.282 A  
HETATM   10  H   UNL     1     -10.021  10.840  66.886  1.00  0.00     0.000 HD 
HETATM   11  C   UNL     1      -6.566  14.417  68.596  1.00  0.00    -0.088 C  
HETATM   12  C   UNL     1     -11.642  11.470  64.599  1.00  0.00    -0.117 A  
HETATM   13  C   UNL     1     -10.770  13.609  65.423  1.00  0.00    -0.311 A  
HETATM   14  C   UNL     1     -12.330  12.166  63.599  1.00  0.00    -0.673 A  
HETATM   15  O   UNL     1      -5.683  13.565  68.507  1.00  0.00    -0.077 OA 
HETATM   16  C   UNL     1      -6.612  18.225  69.323  1.00  0.00    -0.236 C  
HETATM   17  C   UNL     1      -6.119  15.848  68.866  1.00  0.00    -0.118 C  
HETATM   18  C   UNL     1      -8.417  16.724  68.701  1.00  0.00    -0.259 C  
HETATM   19  C   UNL     1     -12.255  13.553  63.508  1.00  0.00    -0.410 A  
HETATM   20  N   UNL     1      -7.107  16.881  69.093  1.00  0.00    -0.235 N  
HETATM   21  C   UNL     1     -11.483  14.287  64.416  1.00  0.00    -0.321 A  
ENDROOT
BRANCH   6  22
HETATM   22  C   UNL     1      -7.550  11.644  68.273  1.00  0.00    -0.120 A  
HETATM   23  C   UNL     1      -6.483   9.704  69.341  1.00  0.00    -0.044 A  
HETATM   24  C   UNL     1      -6.004   9.344  68.101  1.00  0.00    -0.041 A  
HETATM   25  C   UNL     1      -6.257  10.098  66.981  1.00  0.00    -0.063 A  
HETATM   26  C   UNL     1      -5.184   8.323  66.386  1.00  0.00    -0.028 C  
HETATM   27  C   UNL     1      -7.002  11.256  67.033  1.00  0.00    -0.126 A  
HETATM   28  O   UNL     1      -5.279   8.228  67.823  1.00  0.00    -0.032 OA 
HETATM   29  C   UNL     1      -7.276  10.854  69.422  1.00  0.00    -0.126 A  
HETATM   30  O   UNL     1      -5.727   9.548  65.854  1.00  0.00    -0.047 OA 
ENDBRANCH   6  22
TORSDOF 1
ENDMDL
MODEL       69
REMARK 921   NORMALIZED FREE ENERGY PREDICTED BY IDOCK:   -5.16 KCAL/MOL
REMARK 922        TOTAL FREE ENERGY PREDICTED BY IDOCK:   -5.51 KCAL/MOL
REMARK 923 INTER-LIGAND FREE ENERGY PREDICTED BY IDOCK:   -6.17 KCAL/MOL
REMARK 924 INTRA-LIGAND FREE ENERGY PREDICTED BY IDOCK:    0.66 KCAL/MOL
REMARK 927      BINDING AFFINITY PREDICTED BY RF-SCORE:    0.00 PKD
ROOT
HETATM    1  C   UNL     1      -6.617  16.688  68.440  1.00  0.00    -0.140 C  
HETATM    2  C   UNL     1      -6.444  15.533  69.455  1.00  0.00    -0.165 C  
HETATM    3  C   UNL     1      -6.761  14.238  68.791  1.00  0.00    -0.095 A  
HETATM    4  C   UNL     1      -7.485  14.189  67.616  1.00  0.00    -0.178 A  
HETATM    5  N   UNL     1      -7.560  12.875  67.230  1.00  0.00    -0.306 NA 
HETATM    6  C   UNL     1      -8.048  15.365  66.843  1.00  0.00    -0.224 C  
HETATM    7  N   UNL     1      -7.901  16.583  67.699  1.00  0.00    -0.155 N  
HETATM    8  O   UNL     1      -5.187  18.154  69.706  1.00  0.00    -0.185 OA 
HETATM    9  C   UNL     1      -6.967  12.070  68.182  1.00  0.00    -0.079 A  
HETATM   10  H   UNL     1      -7.989  12.542  66.367  1.00  0.00     0.000 HD 
HETATM   11  C   UNL     1      -8.937  17.461  67.969  1.00  0.00    -0.255 C  
HETATM   12  C   UNL     1      -6.857  10.676  68.236  1.00  0.00    -0.068 A  
HETATM   13  C   UNL     1      -6.444  12.907  69.168  1.00  0.00    -0.108 A  
HETATM   14  C   UNL     1      -6.190  10.122  69.334  1.00  0.00    -0.046 A  
HETATM   15  O   UNL     1     -10.101  17.327  67.597  1.00  0.00    -0.289 OA 
HETATM   16  C   UNL     1      -7.004  20.179  69.946  1.00  0.00     0.008 C  
HETATM   17  C   UNL     1      -8.610  18.708  68.781  1.00  0.00    -0.260 C  
HETATM   18  C   UNL     1      -6.278  18.001  69.153  1.00  0.00    -0.237 C  
HETATM   19  C   UNL     1      -5.649  10.932  70.328  1.00  0.00    -0.089 A  
HETATM   20  N   UNL     1      -7.240  18.986  69.156  1.00  0.00    -0.302 N  
HETATM   21  C   UNL     1      -5.765  12.325  70.256  1.00  0.00    -0.167 A  
ENDROOT
BRANCH   6  22
HETATM   22  C   UNL     1      -9.419  15.113  66.232  1.00  0.00    -0.341 A  
HETATM   23  C   UNL     1     -11.163  15.628  64.577  1.00  0.00    -0.337 A  
HETATM   24  C   UNL     1     -11.791  14.459  64.945  1.00  0.00    -0.417 A  
HETATM   25  C   UNL     1     -11.286  13.644  65.928  1.00  0.00    -0.304 A  
HETATM   26  C   UNL     1     -13.023  12.693  65.073  1.00  0.00     0.059 C  
HETATM   27  C   UNL     1     -10.123  13.949  66.602  1.00  0.00    -0.273 A  
HETATM   28  O   UNL     1     -12.927  13.959  64.388  1.00  0.00    -0.519 OA 
HETATM   29  C   UNL     1      -9.959  15.946  65.215  1.00  0.00    -0.121 A  
HETATM   30  O   UNL     1     -12.036  12.524  66.110  1.00  0.00    -0.571 OA 
ENDBRANCH   6  22
TORSDOF 1
ENDMDL
MODEL       70
REMARK 921   NORMALIZED FREE ENERGY PREDICTED BY IDOCK:   -5.06 KCAL/MOL
REMARK 922        TOTAL FREE ENERGY PREDICTED BY IDOCK:   -5.41 KCAL/MOL
REMARK 923 INTER-LIGAND FREE ENERGY PREDICTED BY IDOCK:   -7.47 KCAL/MOL
REMARK 924 INTRA-LIGAND FREE ENERGY PREDICTED BY IDOCK:    2.07 KCAL/MOL
REMARK 927      BINDING AFFINITY PREDICTED BY RF-SCORE:    0.00 PKD
ROOT
HETATM    1  C   UNL     1     -10.174  14.304  65.884  1.00  0.00    -0.324 C  
HETATM    2  C   UNL     1     -10.413  15.780  65.487  1.00  0.00    -0.425 C  
HETATM    3  C   UNL     1     -10.255  16.647  66.688  1.00  0.00    -0.304 A  
HETATM    4  C   UNL     1     -10.314  16.127  67.966  1.00  0.00    -0.271 A  
HETATM    5  N   UNL     1     -10.077  17.154  68.843  1.00  0.00    -0.310 NA 
HETATM    6  C   UNL     1     -10.533  14.677  68.349  1.00  0.00    -0.243 C  
HETATM    7  N   UNL     1     -10.925  13.934  67.111  1.00  0.00    -0.287 N  
HETATM    8  O   UNL     1      -9.668  13.669  63.617  1.00  0.00     1.260 OA 
HETATM    9  C   UNL     1      -9.951  18.343  68.153  1.00  0.00    -0.364 A  
HETATM   10  H   UNL     1     -10.005  17.054  69.856  1.00  0.00     0.000 HD 
HETATM   11  C   UNL     1     -12.034  13.110  67.030  1.00  0.00    -0.355 C  
HETATM   12  C   UNL     1      -9.759  19.643  68.633  1.00  0.00    -0.486 A  
HETATM   13  C   UNL     1     -10.045  18.048  66.793  1.00  0.00    -0.357 A  
HETATM   14  C   UNL     1      -9.661  20.673  67.692  1.00  0.00    -0.445 A  
HETATM   15  O   UNL     1     -12.857  12.930  67.926  1.00  0.00     0.758 OA 
HETATM   16  C   UNL     1     -11.544  11.690  63.455  1.00  0.00    -0.305 C  
HETATM   17  C   UNL     1     -12.251  12.347  65.729  1.00  0.00    -0.203 C  
HETATM   18  C   UNL     1     -10.338  13.443  64.627  1.00  0.00    -0.381 C  
HETATM   19  C   UNL     1      -9.741  20.408  66.327  1.00  0.00    -0.356 A  
HETATM   20  N   UNL     1     -11.263  12.425  64.674  1.00  0.00    -0.300 N  
HETATM   21  C   UNL     1      -9.929  19.100  65.864  1.00  0.00    -0.245 A  
ENDROOT
BRANCH   6  22
HETATM   22  C   UNL     1     -11.410  14.481  69.578  1.00  0.00    -0.313 A  
HETATM   23  C   UNL     1     -12.540  13.021  71.202  1.00  0.00    -0.388 A  
HETATM   24  C   UNL     1     -12.766  14.137  71.977  1.00  0.00    -0.306 A  
HETATM   25  C   UNL     1     -12.361  15.388  71.580  1.00  0.00    -0.377 A  
HETATM   26  C   UNL     1     -13.206  15.536  73.559  1.00  0.00    -0.406 C  
HETATM   27  C   UNL     1     -11.704  15.598  70.386  1.00  0.00    -0.379 A  
HETATM   28  O   UNL     1     -13.365  14.149  73.198  1.00  0.00    -0.634 OA 
HETATM   29  C   UNL     1     -11.841  13.195  70.003  1.00  0.00    -0.360 A  
HETATM   30  O   UNL     1     -12.648  16.345  72.504  1.00  0.00    -0.366 OA 
ENDBRANCH   6  22
TORSDOF 1
ENDMDL
MODEL       71
REMARK 921   NORMALIZED FREE ENERGY PREDICTED BY IDOCK:   -5.03 KCAL/MOL
REMARK 922        TOTAL FREE ENERGY PREDICTED BY IDOCK:   -5.37 KCAL/MOL
REMARK 923 INTER-LIGAND FREE ENERGY PREDICTED BY IDOCK:   -5.31 KCAL/MOL
REMARK 924 INTRA-LIGAND FREE ENERGY PREDICTED BY IDOCK:   -0.07 KCAL/MOL
REMARK 927      BINDING AFFINITY PREDICTED BY RF-SCORE:    0.00 PKD
ROOT
HETATM    1  C   UNL     1     -12.032  12.738  69.360  1.00  0.00    -0.263 C  
HETATM    2  C   UNL     1     -10.522  12.849  69.040  1.00  0.00    -0.022 C  
HETATM    3  C   UNL     1     -10.003  11.513  68.635  1.00  0.00    -0.207 A  
HETATM    4  C   UNL     1     -10.690  10.352  68.931  1.00  0.00    -0.224 A  
HETATM    5  N   UNL     1      -9.994   9.306  68.381  1.00  0.00    -0.169 NA 
HETATM    6  C   UNL     1     -12.009  10.238  69.669  1.00  0.00    -0.060 C  
HETATM    7  N   UNL     1     -12.325  11.582  70.246  1.00  0.00    -0.294 N  
HETATM    8  O   UNL     1     -12.383  15.096  69.017  1.00  0.00    -0.157 OA 
HETATM    9  C   UNL     1      -8.825   9.768  67.810  1.00  0.00    -0.129 A  
HETATM   10  H   UNL     1     -10.294   8.332  68.393  1.00  0.00     0.000 HD 
HETATM   11  C   UNL     1     -12.667  11.786  71.572  1.00  0.00    -0.295 C  
HETATM   12  C   UNL     1      -7.790   9.061  67.188  1.00  0.00    -0.099 A  
HETATM   13  C   UNL     1      -8.814  11.157  67.945  1.00  0.00    -0.136 A  
HETATM   14  C   UNL     1      -6.711   9.798  66.689  1.00  0.00    -0.079 A  
HETATM   15  O   UNL     1     -12.700  10.918  72.443  1.00  0.00     0.055 OA 
HETATM   16  C   UNL     1     -13.494  15.572  71.467  1.00  0.00    -0.494 C  
HETATM   17  C   UNL     1     -13.052  13.199  71.990  1.00  0.00    -0.376 C  
HETATM   18  C   UNL     1     -12.533  14.128  69.766  1.00  0.00    -0.216 C  
HETATM   19  C   UNL     1      -6.678  11.185  66.799  1.00  0.00    -0.135 A  
HETATM   20  N   UNL     1     -13.143  14.246  70.995  1.00  0.00    -0.344 N  
HETATM   21  C   UNL     1      -7.724  11.878  67.421  1.00  0.00    -0.158 A  
ENDROOT
BRANCH   6  22
HETATM   22  C   UNL     1     -12.098   9.045  70.610  1.00  0.00    -0.075 A  
HETATM   23  C   UNL     1     -13.336   7.149  71.568  1.00  0.00    -0.413 A  
HETATM   24  C   UNL     1     -12.150   6.709  72.111  1.00  0.00    -0.259 A  
HETATM   25  C   UNL     1     -10.976   7.402  71.943  1.00  0.00    -0.233 A  
HETATM   26  C   UNL     1     -10.549   5.575  73.009  1.00  0.00    -0.239 C  
HETATM   27  C   UNL     1     -10.918   8.576  71.222  1.00  0.00    -0.316 A  
HETATM   28  O   UNL     1     -11.980   5.565  72.826  1.00  0.00    -0.237 OA 
HETATM   29  C   UNL     1     -13.304   8.316  70.797  1.00  0.00     0.437 A  
HETATM   30  O   UNL     1      -9.917   6.778  72.527  1.00  0.00    -0.168 OA 
ENDBRANCH   6  22
TORSDOF 1
ENDMDL
MODEL       72
REMARK 921   NORMALIZED FREE ENERGY PREDICTED BY IDOCK:   -5.00 KCAL/MOL
REMARK 922        TOTAL FREE ENERGY PREDICTED BY IDOCK:   -5.34 KCAL/MOL
REMARK 923 INTER-LIGAND FREE ENERGY PREDICTED BY IDOCK:   -5.21 KCAL/MOL
REMARK 924 INTRA-LIGAND FREE ENERGY PREDICTED BY IDOCK:   -0.12 KCAL/MOL
REMARK 927      BINDING AFFINITY PREDICTED BY RF-SCORE:    0.00 PKD
ROOT
HETATM    1  C   UNL     1     -10.064   8.397  70.668  1.00  0.00    -0.193 C  
HETATM    2  C   UNL     1     -10.435   6.924  70.368  1.00  0.00    -0.229 C  
HETATM    3  C   UNL     1      -9.388   6.317  69.500  1.00  0.00    -0.147 A  
HETATM    4  C   UNL     1      -8.506   7.099  68.780  1.00  0.00    -0.126 A  
HETATM    5  N   UNL     1      -7.638   6.257  68.133  1.00  0.00    -0.100 NA 
HETATM    6  C   UNL     1      -8.449   8.614  68.747  1.00  0.00    -0.129 C  
HETATM    7  N   UNL     1      -9.673   9.129  69.436  1.00  0.00    -0.166 N  
HETATM    8  O   UNL     1     -11.448   8.452  72.638  1.00  0.00    -0.380 OA 
HETATM    9  C   UNL     1      -7.999   4.944  68.359  1.00  0.00    -0.085 A  
HETATM   10  H   UNL     1      -6.842   6.556  67.569  1.00  0.00     0.000 HD 
HETATM   11  C   UNL     1     -10.519  10.078  68.889  1.00  0.00    -0.210 C  
HETATM   12  C   UNL     1      -7.441   3.761  67.861  1.00  0.00    -0.066 A  
HETATM   13  C   UNL     1      -9.090   4.956  69.228  1.00  0.00    -0.145 A  
HETATM   14  C   UNL     1      -8.018   2.553  68.267  1.00  0.00    -0.064 A  
HETATM   15  O   UNL     1     -10.411  10.569  67.766  1.00  0.00    -0.189 OA 
HETATM   16  C   UNL     1     -12.930  10.617  71.877  1.00  0.00    -0.437 C  
HETATM   17  C   UNL     1     -11.673  10.573  69.751  1.00  0.00    -0.281 C  
HETATM   18  C   UNL     1     -11.157   8.986  71.566  1.00  0.00    -0.349 C  
HETATM   19  C   UNL     1      -9.101   2.533  69.142  1.00  0.00    -0.188 A  
HETATM   20  N   UNL     1     -11.795  10.122  71.121  1.00  0.00    -0.371 N  
HETATM   21  C   UNL     1      -9.644   3.726  69.633  1.00  0.00    -0.242 A  
ENDROOT
BRANCH   6  22
HETATM   22  C   UNL     1      -8.130   9.198  67.378  1.00  0.00    -0.107 A  
HETATM   23  C   UNL     1      -6.833  10.706  65.933  1.00  0.00    -0.115 A  
HETATM   24  C   UNL     1      -7.363  10.045  64.847  1.00  0.00    -0.140 A  
HETATM   25  C   UNL     1      -8.259   9.014  64.994  1.00  0.00    -0.153 A  
HETATM   26  C   UNL     1      -7.801   9.233  62.897  1.00  0.00    -0.129 C  
HETATM   27  C   UNL     1      -8.677   8.582  66.234  1.00  0.00    -0.164 A  
HETATM   28  O   UNL     1      -7.061  10.289  63.544  1.00  0.00    -0.132 OA 
HETATM   29  C   UNL     1      -7.208  10.266  67.207  1.00  0.00    -0.089 A  
HETATM   30  O   UNL     1      -8.629   8.474  63.801  1.00  0.00    -0.083 OA 
ENDBRANCH   6  22
TORSDOF 1
ENDMDL
MODEL       73
REMARK 921   NORMALIZED FREE ENERGY PREDICTED BY IDOCK:   -4.95 KCAL/MOL
REMARK 922        TOTAL FREE ENERGY PREDICTED BY IDOCK:   -5.28 KCAL/MOL
REMARK 923 INTER-LIGAND FREE ENERGY PREDICTED BY IDOCK:   -5.68 KCAL/MOL
REMARK 924 INTRA-LIGAND FREE ENERGY PREDICTED BY IDOCK:    0.40 KCAL/MOL
REMARK 927      BINDING AFFINITY PREDICTED BY RF-SCORE:    0.00 PKD
ROOT
HETATM    1  C   UNL     1     -10.547  14.729  65.120  1.00  0.00    -0.417 C  
HETATM    2  C   UNL     1     -11.098  15.954  65.890  1.00  0.00    -0.053 C  
HETATM    3  C   UNL     1      -9.984  16.624  66.617  1.00  0.00    -0.290 A  
HETATM    4  C   UNL     1      -8.792  15.973  66.866  1.00  0.00    -0.231 A  
HETATM    5  N   UNL     1      -7.957  16.862  67.494  1.00  0.00    -0.167 NA 
HETATM    6  C   UNL     1      -8.427  14.556  66.470  1.00  0.00     0.165 C  
HETATM    7  N   UNL     1      -9.672  13.888  65.976  1.00  0.00    -0.280 N  
HETATM    8  O   UNL     1     -12.412  14.718  63.597  1.00  0.00    -0.726 OA 
HETATM    9  C   UNL     1      -8.623  18.049  67.727  1.00  0.00    -0.244 A  
HETATM   10  H   UNL     1      -6.988  16.675  67.750  1.00  0.00     0.000 HD 
HETATM   11  C   UNL     1     -10.112  12.656  66.428  1.00  0.00    -0.253 C  
HETATM   12  C   UNL     1      -8.190  19.207  68.382  1.00  0.00    -0.384 A  
HETATM   13  C   UNL     1      -9.897  17.928  67.172  1.00  0.00    -0.308 A  
HETATM   14  C   UNL     1      -9.089  20.275  68.469  1.00  0.00     0.095 A  
HETATM   15  O   UNL     1      -9.581  11.990  67.315  1.00  0.00    -0.180 OA 
HETATM   16  C   UNL     1     -13.141  12.128  64.066  1.00  0.00    -0.049 C  
HETATM   17  C   UNL     1     -11.347  12.062  65.762  1.00  0.00    -0.331 C  
HETATM   18  C   UNL     1     -11.716  14.070  64.381  1.00  0.00    -0.397 C  
HETATM   19  C   UNL     1     -10.364  20.188  67.916  1.00  0.00    -0.459 A  
HETATM   20  N   UNL     1     -11.955  12.738  64.637  1.00  0.00    -0.372 N  
HETATM   21  C   UNL     1     -10.779  19.022  67.260  1.00  0.00    -0.556 A  
ENDROOT
BRANCH   6  22
HETATM   22  C   UNL     1      -7.609  13.806  67.512  1.00  0.00    -0.185 A  
HETATM   23  C   UNL     1      -7.012  13.343  69.851  1.00  0.00     0.402 A  
HETATM   24  C   UNL     1      -6.323  12.237  69.408  1.00  0.00    -0.118 A  
HETATM   25  C   UNL     1      -6.246  11.919  68.073  1.00  0.00    -0.055 A  
HETATM   26  C   UNL     1      -5.272  10.363  69.208  1.00  0.00    -0.038 C  
HETATM   27  C   UNL     1      -6.854  12.687  67.104  1.00  0.00    -0.028 A  
HETATM   28  O   UNL     1      -5.682  11.332  70.195  1.00  0.00    -0.089 OA 
HETATM   29  C   UNL     1      -7.674  14.122  68.896  1.00  0.00    -0.091 A  
HETATM   30  O   UNL     1      -5.552  10.769  67.853  1.00  0.00    -0.043 OA 
ENDBRANCH   6  22
TORSDOF 1
ENDMDL
MODEL       74
REMARK 921   NORMALIZED FREE ENERGY PREDICTED BY IDOCK:   -4.93 KCAL/MOL
REMARK 922        TOTAL FREE ENERGY PREDICTED BY IDOCK:   -5.26 KCAL/MOL
REMARK 923 INTER-LIGAND FREE ENERGY PREDICTED BY IDOCK:   -5.61 KCAL/MOL
REMARK 924 INTRA-LIGAND FREE ENERGY PREDICTED BY IDOCK:    0.35 KCAL/MOL
REMARK 927      BINDING AFFINITY PREDICTED BY RF-SCORE:    0.00 PKD
ROOT
HETATM    1  C   UNL     1      -9.451  15.432  65.791  1.00  0.00    -0.290 C  
HETATM    2  C   UNL     1      -9.448  16.652  66.743  1.00  0.00    -0.260 C  
HETATM    3  C   UNL     1      -8.140  16.723  67.452  1.00  0.00    -0.190 A  
HETATM    4  C   UNL     1      -7.299  15.630  67.524  1.00  0.00    -0.185 A  
HETATM    5  N   UNL     1      -6.162  16.025  68.184  1.00  0.00    -0.112 NA 
HETATM    6  C   UNL     1      -7.539  14.255  66.933  1.00  0.00     0.433 C  
HETATM    7  N   UNL     1      -8.959  14.203  66.467  1.00  0.00    -0.171 N  
HETATM    8  O   UNL     1     -11.207  16.365  64.433  1.00  0.00    -0.807 OA 
HETATM    9  C   UNL     1      -6.295  17.331  68.610  1.00  0.00    -0.173 A  
HETATM   10  H   UNL     1      -5.340  15.440  68.336  1.00  0.00     0.000 HD 
HETATM   11  C   UNL     1      -9.840  13.190  66.802  1.00  0.00    -0.251 C  
HETATM   12  C   UNL     1      -5.419  18.124  69.361  1.00  0.00    -0.208 A  
HETATM   13  C   UNL     1      -7.527  17.797  68.149  1.00  0.00    -0.237 A  
HETATM   14  C   UNL     1      -5.817  19.434  69.648  1.00  0.00    -0.281 A  
HETATM   15  O   UNL     1      -9.594  12.251  67.558  1.00  0.00    -0.178 OA 
HETATM   16  C   UNL     1     -12.893  14.226  64.648  1.00  0.00     0.058 C  
HETATM   17  C   UNL     1     -11.227  13.226  66.173  1.00  0.00    -0.296 C  
HETATM   18  C   UNL     1     -10.805  15.393  65.076  1.00  0.00    -0.444 C  
HETATM   19  C   UNL     1      -7.036  19.930  69.193  1.00  0.00    -0.318 A  
HETATM   20  N   UNL     1     -11.547  14.238  65.190  1.00  0.00    -0.340 N  
HETATM   21  C   UNL     1      -7.898  19.125  68.440  1.00  0.00    -0.370 A  
ENDROOT
BRANCH   6  22
HETATM   22  C   UNL     1      -7.057  13.106  67.809  1.00  0.00    -0.148 A  
HETATM   23  C   UNL     1      -6.198  10.817  68.071  1.00  0.00    -0.057 A  
HETATM   24  C   UNL     1      -5.915  11.124  69.383  1.00  0.00    -0.057 A  
HETATM   25  C   UNL     1      -6.202  12.358  69.916  1.00  0.00    -0.102 A  
HETATM   26  C   UNL     1      -5.170  11.188  71.407  1.00  0.00    -0.027 C  
HETATM   27  C   UNL     1      -6.787  13.357  69.169  1.00  0.00    -0.076 A  
HETATM   28  O   UNL     1      -5.311  10.299  70.279  1.00  0.00    -0.041 OA 
HETATM   29  C   UNL     1      -6.758  11.823  67.275  1.00  0.00    -0.133 A  
HETATM   30  O   UNL     1      -5.808  12.466  71.214  1.00  0.00    -0.349 OA 
ENDBRANCH   6  22
TORSDOF 1
ENDMDL
MODEL       75
REMARK 921   NORMALIZED FREE ENERGY PREDICTED BY IDOCK:   -4.91 KCAL/MOL
REMARK 922        TOTAL FREE ENERGY PREDICTED BY IDOCK:   -5.25 KCAL/MOL
REMARK 923 INTER-LIGAND FREE ENERGY PREDICTED BY IDOCK:   -5.34 KCAL/MOL
REMARK 924 INTRA-LIGAND FREE ENERGY PREDICTED BY IDOCK:    0.10 KCAL/MOL
REMARK 927      BINDING AFFINITY PREDICTED BY RF-SCORE:    0.00 PKD
ROOT
HETATM    1  C   UNL     1     -11.827  12.735  66.027  1.00  0.00    -0.439 C  
HETATM    2  C   UNL     1     -11.717  11.725  67.195  1.00  0.00    -0.267 C  
HETATM    3  C   UNL     1     -12.091  12.400  68.469  1.00  0.00    -0.126 A  
HETATM    4  C   UNL     1     -12.103  13.777  68.580  1.00  0.00    -0.292 A  
HETATM    5  N   UNL     1     -12.541  14.087  69.842  1.00  0.00    -0.386 NA 
HETATM    6  C   UNL     1     -11.761  14.780  67.496  1.00  0.00    -0.348 C  
HETATM    7  N   UNL     1     -11.165  14.026  66.350  1.00  0.00    -0.313 N  
HETATM    8  O   UNL     1     -12.028  10.979  64.392  1.00  0.00     0.553 OA 
HETATM    9  C   UNL     1     -12.730  12.931  70.572  1.00  0.00    -0.017 A  
HETATM   10  H   UNL     1     -12.702  15.033  70.190  1.00  0.00     0.000 HD 
HETATM   11  C   UNL     1      -9.968  14.367  65.746  1.00  0.00    -0.329 C  
HETATM   12  C   UNL     1     -13.115  12.767  71.908  1.00  0.00    -0.474 A  
HETATM   13  C   UNL     1     -12.467  11.855  69.725  1.00  0.00    -0.011 A  
HETATM   14  C   UNL     1     -13.234  11.459  72.390  1.00  0.00     0.229 A  
HETATM   15  O   UNL     1      -9.224  15.280  66.102  1.00  0.00    -0.298 OA 
HETATM   16  C   UNL     1      -9.934  11.800  62.841  1.00  0.00    -0.077 C  
HETATM   17  C   UNL     1      -9.537  13.560  64.529  1.00  0.00     0.779 C  
HETATM   18  C   UNL     1     -11.441  12.008  64.735  1.00  0.00    -0.298 C  
HETATM   19  C   UNL     1     -12.988  10.365  71.565  1.00  0.00    -0.562 A  
HETATM   20  N   UNL     1     -10.416  12.545  63.988  1.00  0.00    -0.399 N  
HETATM   21  C   UNL     1     -12.608  10.548  70.230  1.00  0.00    -0.306 A  
ENDROOT
BRANCH   6  22
HETATM   22  C   UNL     1     -10.995  15.999  67.993  1.00  0.00    -0.341 A  
HETATM   23  C   UNL     1      -9.062  17.007  69.129  1.00  0.00    -0.058 A  
HETATM   24  C   UNL     1      -9.469  18.228  68.639  1.00  0.00    -0.327 A  
HETATM   25  C   UNL     1     -10.602  18.358  67.872  1.00  0.00    -0.353 A  
HETATM   26  C   UNL     1      -9.625  20.278  67.987  1.00  0.00    -0.251 C  
HETATM   27  C   UNL     1     -11.393  17.277  67.550  1.00  0.00     0.402 A  
HETATM   28  O   UNL     1      -8.819  19.410  68.810  1.00  0.00    -0.366 OA 
HETATM   29  C   UNL     1      -9.823  15.884  68.788  1.00  0.00    -0.216 A  
HETATM   30  O   UNL     1     -10.804  19.639  67.458  1.00  0.00    -0.452 OA 
ENDBRANCH   6  22
TORSDOF 1
ENDMDL
MODEL       76
REMARK 921   NORMALIZED FREE ENERGY PREDICTED BY IDOCK:   -4.84 KCAL/MOL
REMARK 922        TOTAL FREE ENERGY PREDICTED BY IDOCK:   -5.17 KCAL/MOL
REMARK 923 INTER-LIGAND FREE ENERGY PREDICTED BY IDOCK:   -5.21 KCAL/MOL
REMARK 924 INTRA-LIGAND FREE ENERGY PREDICTED BY IDOCK:    0.04 KCAL/MOL
REMARK 927      BINDING AFFINITY PREDICTED BY RF-SCORE:    0.00 PKD
ROOT
HETATM    1  C   UNL     1     -11.751   7.326  71.438  1.00  0.00    -0.287 C  
HETATM    2  C   UNL     1     -12.095   8.650  72.162  1.00  0.00    -0.451 C  
HETATM    3  C   UNL     1     -11.892   9.792  71.227  1.00  0.00    -0.481 A  
HETATM    4  C   UNL     1     -11.126   9.662  70.086  1.00  0.00    -0.269 A  
HETATM    5  N   UNL     1     -11.178  10.856  69.413  1.00  0.00    -0.250 NA 
HETATM    6  C   UNL     1     -10.404   8.417  69.611  1.00  0.00    -0.218 C  
HETATM    7  N   UNL     1     -10.454   7.412  70.717  1.00  0.00    -0.211 N  
HETATM    8  O   UNL     1     -13.067   6.023  72.977  1.00  0.00     0.902 OA 
HETATM    9  C   UNL     1     -11.898  11.778  70.146  1.00  0.00    -0.324 A  
HETATM   10  H   UNL     1     -10.750  11.036  68.505  1.00  0.00     0.000 HD 
HETATM   11  C   UNL     1      -9.342   6.744  71.199  1.00  0.00    -0.159 C  
HETATM   12  C   UNL     1     -12.162  13.126  69.880  1.00  0.00    -0.293 A  
HETATM   13  C   UNL     1     -12.369  11.128  71.287  1.00  0.00    -0.402 A  
HETATM   14  C   UNL     1     -12.934  13.830  70.811  1.00  0.00    -0.238 A  
HETATM   15  O   UNL     1      -8.183   6.927  70.828  1.00  0.00    -0.119 OA 
HETATM   16  C   UNL     1     -11.051   4.329  73.705  1.00  0.00    -0.267 C  
HETATM   17  C   UNL     1      -9.566   5.680  72.266  1.00  0.00    -0.151 C  
HETATM   18  C   UNL     1     -11.976   6.175  72.425  1.00  0.00    -0.190 C  
HETATM   19  C   UNL     1     -13.427  13.205  71.953  1.00  0.00    -0.513 A  
HETATM   20  N   UNL     1     -10.912   5.335  72.669  1.00  0.00    -0.251 N  
HETATM   21  C   UNL     1     -13.156  11.854  72.201  1.00  0.00    -0.327 A  
ENDROOT
BRANCH   6  22
HETATM   22  C   UNL     1      -9.042   8.685  68.984  1.00  0.00    -0.145 A  
HETATM   23  C   UNL     1      -6.795   9.679  69.067  1.00  0.00    -0.050 A  
HETATM   24  C   UNL     1      -6.472   8.925  67.961  1.00  0.00    -0.057 A  
HETATM   25  C   UNL     1      -7.385   8.094  67.359  1.00  0.00    -0.089 A  
HETATM   26  C   UNL     1      -5.482   7.854  66.371  1.00  0.00    -0.025 C  
HETATM   27  C   UNL     1      -8.675   7.966  67.828  1.00  0.00    -0.127 A  
HETATM   28  O   UNL     1      -5.252   8.878  67.361  1.00  0.00    -0.033 OA 
HETATM   29  C   UNL     1      -8.085   9.542  69.591  1.00  0.00    -0.128 A  
HETATM   30  O   UNL     1      -6.853   7.413  66.308  1.00  0.00    -0.058 OA 
ENDBRANCH   6  22
TORSDOF 1
ENDMDL
MODEL       77
REMARK 921   NORMALIZED FREE ENERGY PREDICTED BY IDOCK:   -4.84 KCAL/MOL
REMARK 922        TOTAL FREE ENERGY PREDICTED BY IDOCK:   -5.17 KCAL/MOL
REMARK 923 INTER-LIGAND FREE ENERGY PREDICTED BY IDOCK:   -5.20 KCAL/MOL
REMARK 924 INTRA-LIGAND FREE ENERGY PREDICTED BY IDOCK:    0.03 KCAL/MOL
REMARK 927      BINDING AFFINITY PREDICTED BY RF-SCORE:    0.00 PKD
ROOT
HETATM    1  C   UNL     1      -9.426   8.146  70.881  1.00  0.00    -0.162 C  
HETATM    2  C   UNL     1      -9.305   9.653  70.551  1.00  0.00    -0.227 C  
HETATM    3  C   UNL     1     -10.007   9.937  69.269  1.00  0.00    -0.217 A  
HETATM    4  C   UNL     1     -10.313   8.929  68.376  1.00  0.00    -0.200 A  
HETATM    5  N   UNL     1     -11.002   9.494  67.332  1.00  0.00    -0.393 NA 
HETATM    6  C   UNL     1     -10.011   7.452  68.531  1.00  0.00    -0.165 C  
HETATM    7  N   UNL     1      -9.099   7.296  69.707  1.00  0.00    -0.142 N  
HETATM    8  O   UNL     1      -9.004   8.519  73.222  1.00  0.00    -0.275 OA 
HETATM    9  C   UNL     1     -11.070  10.863  67.500  1.00  0.00    -0.310 A  
HETATM   10  H   UNL     1     -11.404   8.980  66.549  1.00  0.00     0.000 HD 
HETATM   11  C   UNL     1      -7.914   6.583  69.669  1.00  0.00    -0.120 C  
HETATM   12  C   UNL     1     -11.623  11.842  66.667  1.00  0.00    -0.337 A  
HETATM   13  C   UNL     1     -10.462  11.165  68.719  1.00  0.00    -0.227 A  
HETATM   14  C   UNL     1     -11.552  13.172  67.096  1.00  0.00    -0.410 A  
HETATM   15  O   UNL     1      -7.437   6.044  68.672  1.00  0.00    -0.083 OA 
HETATM   16  C   UNL     1      -6.897   6.790  73.405  1.00  0.00    -0.075 C  
HETATM   17  C   UNL     1      -7.140   6.435  70.972  1.00  0.00    -0.070 C  
HETATM   18  C   UNL     1      -8.700   7.892  72.206  1.00  0.00    -0.147 C  
HETATM   19  C   UNL     1     -10.961  13.502  68.313  1.00  0.00    -0.280 A  
HETATM   20  N   UNL     1      -7.697   6.947  72.205  1.00  0.00    -0.092 N  
HETATM   21  C   UNL     1     -10.416  12.509  69.136  1.00  0.00     0.071 A  
ENDROOT
BRANCH   6  22
HETATM   22  C   UNL     1      -9.597   6.759  67.240  1.00  0.00    -0.165 A  
HETATM   23  C   UNL     1      -8.175   6.613  65.240  1.00  0.00    -0.133 A  
HETATM   24  C   UNL     1      -8.659   5.339  65.046  1.00  0.00    -0.150 A  
HETATM   25  C   UNL     1      -9.591   4.783  65.889  1.00  0.00    -0.180 A  
HETATM   26  C   UNL     1      -9.005   3.298  64.436  1.00  0.00    -0.116 C  
HETATM   27  C   UNL     1     -10.093   5.467  66.974  1.00  0.00    -0.234 A  
HETATM   28  O   UNL     1      -8.275   4.484  64.060  1.00  0.00    -0.096 OA 
HETATM   29  C   UNL     1      -8.636   7.320  66.355  1.00  0.00    -0.141 A  
HETATM   30  O   UNL     1      -9.906   3.505  65.543  1.00  0.00    -0.123 OA 
ENDBRANCH   6  22
TORSDOF 1
ENDMDL
MODEL       78
REMARK 921   NORMALIZED FREE ENERGY PREDICTED BY IDOCK:   -4.83 KCAL/MOL
REMARK 922        TOTAL FREE ENERGY PREDICTED BY IDOCK:   -5.16 KCAL/MOL
REMARK 923 INTER-LIGAND FREE ENERGY PREDICTED BY IDOCK:   -8.89 KCAL/MOL
REMARK 924 INTRA-LIGAND FREE ENERGY PREDICTED BY IDOCK:    3.73 KCAL/MOL
REMARK 927      BINDING AFFINITY PREDICTED BY RF-SCORE:    0.00 PKD
ROOT
HETATM    1  C   UNL     1      -9.646   8.284  68.633  1.00  0.00    -0.149 C  
HETATM    2  C   UNL     1     -10.051   8.546  67.162  1.00  0.00    -0.331 C  
HETATM    3  C   UNL     1     -10.323   9.998  66.976  1.00  0.00    -0.305 A  
HETATM    4  C   UNL     1     -10.571  10.830  68.050  1.00  0.00    -0.207 A  
HETATM    5  N   UNL     1     -10.724  12.103  67.563  1.00  0.00    -0.226 NA 
HETATM    6  C   UNL     1     -10.607  10.439  69.514  1.00  0.00    -0.246 C  
HETATM    7  N   UNL     1     -10.574   8.945  69.587  1.00  0.00    -0.226 N  
HETATM    8  O   UNL     1      -8.542   6.219  68.069  1.00  0.00    -0.117 OA 
HETATM    9  C   UNL     1     -10.662  12.090  66.184  1.00  0.00    -0.275 A  
HETATM   10  H   UNL     1     -10.863  12.936  68.135  1.00  0.00     0.000 HD 
HETATM   11  C   UNL     1     -11.471   8.193  70.325  1.00  0.00    -0.065 C  
HETATM   12  C   UNL     1     -10.818  13.137  65.269  1.00  0.00    -0.314 A  
HETATM   13  C   UNL     1     -10.396  10.778  65.791  1.00  0.00    -0.295 A  
HETATM   14  C   UNL     1     -10.698  12.831  63.909  1.00  0.00    -0.443 A  
HETATM   15  O   UNL     1     -12.427   8.639  70.957  1.00  0.00    -0.230 OA 
HETATM   16  C   UNL     1      -9.950   4.663  69.817  1.00  0.00    -0.225 C  
HETATM   17  C   UNL     1     -11.252   6.686  70.376  1.00  0.00    -0.344 C  
HETATM   18  C   UNL     1      -9.369   6.785  68.787  1.00  0.00    -0.132 C  
HETATM   19  C   UNL     1     -10.423  11.533  63.487  1.00  0.00    -0.486 A  
HETATM   20  N   UNL     1     -10.084   6.105  69.748  1.00  0.00    -0.172 N  
HETATM   21  C   UNL     1     -10.265  10.498  64.417  1.00  0.00    -0.337 A  
ENDROOT
BRANCH   6  22
HETATM   22  C   UNL     1     -11.686  11.145  70.324  1.00  0.00    -0.431 A  
HETATM   23  C   UNL     1     -13.277  11.202  72.197  1.00  0.00    -0.297 A  
HETATM   24  C   UNL     1     -13.441  12.548  71.956  1.00  0.00    -0.387 A  
HETATM   25  C   UNL     1     -12.782  13.185  70.933  1.00  0.00    -0.233 A  
HETATM   26  C   UNL     1     -13.894  14.655  72.055  1.00  0.00    -0.461 C  
HETATM   27  C   UNL     1     -11.920  12.516  70.091  1.00  0.00    -0.377 A  
HETATM   28  O   UNL     1     -14.215  13.397  72.684  1.00  0.00    -0.747 OA 
HETATM   29  C   UNL     1     -12.380  10.502  71.384  1.00  0.00    -0.477 A  
HETATM   30  O   UNL     1     -13.053  14.518  70.891  1.00  0.00    -0.355 OA 
ENDBRANCH   6  22
TORSDOF 1
ENDMDL
MODEL       79
REMARK 921   NORMALIZED FREE ENERGY PREDICTED BY IDOCK:   -4.81 KCAL/MOL
REMARK 922        TOTAL FREE ENERGY PREDICTED BY IDOCK:   -5.14 KCAL/MOL
REMARK 923 INTER-LIGAND FREE ENERGY PREDICTED BY IDOCK:   -5.88 KCAL/MOL
REMARK 924 INTRA-LIGAND FREE ENERGY PREDICTED BY IDOCK:    0.74 KCAL/MOL
REMARK 927      BINDING AFFINITY PREDICTED BY RF-SCORE:    0.00 PKD
ROOT
HETATM    1  C   UNL     1      -7.915  14.721  69.503  1.00  0.00    -0.014 C  
HETATM    2  C   UNL     1      -7.440  16.031  68.830  1.00  0.00    -0.176 C  
HETATM    3  C   UNL     1      -8.585  16.665  68.119  1.00  0.00    -0.200 A  
HETATM    4  C   UNL     1      -9.720  15.948  67.796  1.00  0.00    -0.220 A  
HETATM    5  N   UNL     1     -10.605  16.815  67.207  1.00  0.00    -0.306 NA 
HETATM    6  C   UNL     1      -9.987  14.485  68.090  1.00  0.00    -0.220 C  
HETATM    7  N   UNL     1      -8.707  13.877  68.571  1.00  0.00    -0.164 N  
HETATM    8  O   UNL     1      -6.087  14.743  71.071  1.00  0.00    -0.086 OA 
HETATM    9  C   UNL     1     -10.023  18.059  67.069  1.00  0.00    -0.329 A  
HETATM   10  H   UNL     1     -11.552  16.575  66.914  1.00  0.00     0.000 HD 
HETATM   11  C   UNL     1      -8.168  12.713  68.052  1.00  0.00    -0.167 C  
HETATM   12  C   UNL     1     -10.527  19.225  66.481  1.00  0.00    -0.552 A  
HETATM   13  C   UNL     1      -8.756  17.994  67.649  1.00  0.00    -0.247 A  
HETATM   14  C   UNL     1      -9.708  20.358  66.487  1.00  0.00    -0.449 A  
HETATM   15  O   UNL     1      -8.628  12.071  67.109  1.00  0.00    -0.168 OA 
HETATM   16  C   UNL     1      -5.159  12.249  70.453  1.00  0.00    -0.103 C  
HETATM   17  C   UNL     1      -6.907  12.167  68.709  1.00  0.00    -0.095 C  
HETATM   18  C   UNL     1      -6.716  14.100  70.228  1.00  0.00     0.084 C  
HETATM   19  C   UNL     1      -8.443  20.326  67.066  1.00  0.00    -0.388 A  
HETATM   20  N   UNL     1      -6.374  12.809  69.892  1.00  0.00    -0.081 N  
HETATM   21  C   UNL     1      -7.956  19.153  67.655  1.00  0.00    -0.290 A  
ENDROOT
BRANCH   6  22
HETATM   22  C   UNL     1     -10.725  13.749  66.980  1.00  0.00    -0.283 A  
HETATM   23  C   UNL     1     -12.105  11.872  66.192  1.00  0.00     0.255 A  
HETATM   24  C   UNL     1     -12.302  12.570  65.022  1.00  0.00    -0.453 A  
HETATM   25  C   UNL     1     -11.728  13.800  64.806  1.00  0.00    -0.381 A  
HETATM   26  C   UNL     1     -13.004  13.333  63.129  1.00  0.00     1.013 C  
HETATM   27  C   UNL     1     -10.923  14.404  65.748  1.00  0.00    -0.314 A  
HETATM   28  O   UNL     1     -13.083  12.172  63.982  1.00  0.00    -0.723 OA 
HETATM   29  C   UNL     1     -11.324  12.476  67.184  1.00  0.00    -0.381 A  
HETATM   30  O   UNL     1     -12.080  14.333  63.605  1.00  0.00    -0.437 OA 
ENDBRANCH   6  22
TORSDOF 1
ENDMDL
MODEL       80
REMARK 921   NORMALIZED FREE ENERGY PREDICTED BY IDOCK:   -4.80 KCAL/MOL
REMARK 922        TOTAL FREE ENERGY PREDICTED BY IDOCK:   -5.12 KCAL/MOL
REMARK 923 INTER-LIGAND FREE ENERGY PREDICTED BY IDOCK:   -5.54 KCAL/MOL
REMARK 924 INTRA-LIGAND FREE ENERGY PREDICTED BY IDOCK:    0.42 KCAL/MOL
REMARK 927      BINDING AFFINITY PREDICTED BY RF-SCORE:    0.00 PKD
ROOT
HETATM    1  C   UNL     1      -7.771  12.025  69.326  1.00  0.00     0.319 C  
HETATM    2  C   UNL     1      -6.724  13.165  69.295  1.00  0.00    -0.061 C  
HETATM    3  C   UNL     1      -7.406  14.455  68.998  1.00  0.00    -0.127 A  
HETATM    4  C   UNL     1      -8.668  14.492  68.437  1.00  0.00    -0.175 A  
HETATM    5  N   UNL     1      -9.041  15.808  68.341  1.00  0.00    -0.183 NA 
HETATM    6  C   UNL     1      -9.527  13.304  68.051  1.00  0.00    -0.219 C  
HETATM    7  N   UNL     1      -8.677  12.077  68.150  1.00  0.00    -0.173 N  
HETATM    8  O   UNL     1      -6.343  10.611  70.653  1.00  0.00    -0.280 OA 
HETATM    9  C   UNL     1      -8.006  16.622  68.754  1.00  0.00    -0.239 A  
HETATM   10  H   UNL     1      -9.950  16.137  68.014  1.00  0.00     0.000 HD 
HETATM   11  C   UNL     1      -8.563  11.139  67.139  1.00  0.00    -0.139 C  
HETATM   12  C   UNL     1      -7.917  18.019  68.776  1.00  0.00    -0.255 A  
HETATM   13  C   UNL     1      -6.969  15.794  69.185  1.00  0.00    -0.174 A  
HETATM   14  C   UNL     1      -6.730  18.584  69.256  1.00  0.00    -0.252 A  
HETATM   15  O   UNL     1      -9.088  11.218  66.029  1.00  0.00    -0.200 OA 
HETATM   16  C   UNL     1      -6.382   8.486  68.937  1.00  0.00    -0.045 C  
HETATM   17  C   UNL     1      -7.733   9.894  67.423  1.00  0.00    -0.091 C  
HETATM   18  C   UNL     1      -7.036  10.718  69.640  1.00  0.00    -0.136 C  
HETATM   19  C   UNL     1      -5.683  17.782  69.703  1.00  0.00    -0.234 A  
HETATM   20  N   UNL     1      -7.179   9.682  68.743  1.00  0.00    -0.071 N  
HETATM   21  C   UNL     1      -5.791  16.387  69.677  1.00  0.00    -0.180 A  
ENDROOT
BRANCH   6  22
HETATM   22  C   UNL     1     -10.315  13.495  66.763  1.00  0.00    -0.264 A  
HETATM   23  C   UNL     1     -10.554  14.452  64.511  1.00  0.00    -0.186 A  
HETATM   24  C   UNL     1     -11.622  13.606  64.315  1.00  0.00    -0.382 A  
HETATM   25  C   UNL     1     -12.053  12.745  65.296  1.00  0.00    -0.457 A  
HETATM   26  C   UNL     1     -13.215  12.391  63.513  1.00  0.00     0.420 C  
HETATM   27  C   UNL     1     -11.441  12.679  66.529  1.00  0.00    -0.409 A  
HETATM   28  O   UNL     1     -12.343  13.487  63.168  1.00  0.00    -0.712 OA 
HETATM   29  C   UNL     1      -9.887  14.382  65.738  1.00  0.00    -0.330 A  
HETATM   30  O   UNL     1     -13.096  11.972  64.887  1.00  0.00    -0.303 OA 
ENDBRANCH   6  22
TORSDOF 1
ENDMDL
MODEL       81
REMARK 921   NORMALIZED FREE ENERGY PREDICTED BY IDOCK:   -4.80 KCAL/MOL
REMARK 922        TOTAL FREE ENERGY PREDICTED BY IDOCK:   -5.12 KCAL/MOL
REMARK 923 INTER-LIGAND FREE ENERGY PREDICTED BY IDOCK:   -5.18 KCAL/MOL
REMARK 924 INTRA-LIGAND FREE ENERGY PREDICTED BY IDOCK:    0.06 KCAL/MOL
REMARK 927      BINDING AFFINITY PREDICTED BY RF-SCORE:    0.00 PKD
ROOT
HETATM    1  C   UNL     1      -7.768   9.754  68.770  1.00  0.00    -0.081 C  
HETATM    2  C   UNL     1      -9.158  10.384  69.031  1.00  0.00    -0.193 C  
HETATM    3  C   UNL     1      -9.962   9.470  69.888  1.00  0.00    -0.259 A  
HETATM    4  C   UNL     1      -9.632   8.136  70.029  1.00  0.00    -0.171 A  
HETATM    5  N   UNL     1     -10.518   7.581  70.918  1.00  0.00    -0.212 NA 
HETATM    6  C   UNL     1      -8.469   7.413  69.379  1.00  0.00    -0.133 C  
HETATM    7  N   UNL     1      -7.877   8.330  68.357  1.00  0.00    -0.116 N  
HETATM    8  O   UNL     1      -6.786  11.889  68.244  1.00  0.00    -0.057 OA 
HETATM    9  C   UNL     1     -11.463   8.517  71.286  1.00  0.00    -0.277 A  
HETATM   10  H   UNL     1     -10.482   6.619  71.256  1.00  0.00     0.000 HD 
HETATM   11  C   UNL     1      -7.629   7.962  67.047  1.00  0.00    -0.100 C  
HETATM   12  C   UNL     1     -12.578   8.384  72.122  1.00  0.00    -0.412 A  
HETATM   13  C   UNL     1     -11.127   9.718  70.662  1.00  0.00    -0.398 A  
HETATM   14  C   UNL     1     -13.373   9.518  72.325  1.00  0.00    -0.526 A  
HETATM   15  O   UNL     1      -7.910   6.874  66.546  1.00  0.00    -0.102 OA 
HETATM   16  C   UNL     1      -5.842  11.163  65.785  1.00  0.00     0.013 C  
HETATM   17  C   UNL     1      -6.935   8.978  66.149  1.00  0.00    -0.085 C  
HETATM   18  C   UNL     1      -6.968  10.721  67.891  1.00  0.00    -0.073 C  
HETATM   19  C   UNL     1     -13.056  10.733  71.723  1.00  0.00    -0.573 A  
HETATM   20  N   UNL     1      -6.475  10.234  66.701  1.00  0.00    -0.072 N  
HETATM   21  C   UNL     1     -11.935  10.849  70.894  1.00  0.00    -0.416 A  
ENDROOT
BRANCH   6  22
HETATM   22  C   UNL     1      -8.789   5.993  68.929  1.00  0.00    -0.120 A  
HETATM   23  C   UNL     1     -10.156   4.401  67.649  1.00  0.00    -0.038 A  
HETATM   24  C   UNL     1      -9.188   3.450  67.888  1.00  0.00    -0.189 A  
HETATM   25  C   UNL     1      -8.068   3.729  68.633  1.00  0.00    -0.073 A  
HETATM   26  C   UNL     1      -7.904   1.717  67.872  1.00  0.00    -0.058 C  
HETATM   27  C   UNL     1      -7.848   4.974  69.182  1.00  0.00    -0.080 A  
HETATM   28  O   UNL     1      -9.193   2.175  67.415  1.00  0.00    -0.150 OA 
HETATM   29  C   UNL     1      -9.943   5.686  68.160  1.00  0.00    -0.186 A  
HETATM   30  O   UNL     1      -7.223   2.666  68.717  1.00  0.00    -0.047 OA 
ENDBRANCH   6  22
TORSDOF 1
ENDMDL
MODEL       82
REMARK 921   NORMALIZED FREE ENERGY PREDICTED BY IDOCK:   -4.73 KCAL/MOL
REMARK 922        TOTAL FREE ENERGY PREDICTED BY IDOCK:   -5.05 KCAL/MOL
REMARK 923 INTER-LIGAND FREE ENERGY PREDICTED BY IDOCK:   -4.96 KCAL/MOL
REMARK 924 INTRA-LIGAND FREE ENERGY PREDICTED BY IDOCK:   -0.09 KCAL/MOL
REMARK 927      BINDING AFFINITY PREDICTED BY RF-SCORE:    0.00 PKD
ROOT
HETATM    1  C   UNL     1     -10.216   9.818  66.174  1.00  0.00    -0.208 C  
HETATM    2  C   UNL     1      -9.042   9.115  65.452  1.00  0.00    -0.271 C  
HETATM    3  C   UNL     1      -8.951   7.703  65.914  1.00  0.00    -0.144 A  
HETATM    4  C   UNL     1      -9.554   7.287  67.085  1.00  0.00    -0.160 A  
HETATM    5  N   UNL     1      -9.341   5.937  67.204  1.00  0.00    -0.114 NA 
HETATM    6  C   UNL     1     -10.364   8.137  68.044  1.00  0.00    -0.211 C  
HETATM    7  N   UNL     1     -10.193   9.567  67.638  1.00  0.00    -0.205 N  
HETATM    8  O   UNL     1     -10.389  11.508  64.468  1.00  0.00    -0.262 OA 
HETATM    9  C   UNL     1      -8.539   5.494  66.172  1.00  0.00    -0.129 A  
HETATM   10  H   UNL     1      -9.720   5.348  67.946  1.00  0.00     0.000 HD 
HETATM   11  C   UNL     1      -9.833  10.575  68.515  1.00  0.00    -0.168 C  
HETATM   12  C   UNL     1      -8.025   4.217  65.920  1.00  0.00    -0.094 A  
HETATM   13  C   UNL     1      -8.292   6.585  65.338  1.00  0.00    -0.140 A  
HETATM   14  C   UNL     1      -7.232   4.052  64.779  1.00  0.00    -0.067 A  
HETATM   15  O   UNL     1      -9.555  10.423  69.703  1.00  0.00    -0.200 OA 
HETATM   16  C   UNL     1     -10.127  13.639  66.157  1.00  0.00    -0.306 C  
HETATM   17  C   UNL     1      -9.791  11.998  67.973  1.00  0.00    -0.199 C  
HETATM   18  C   UNL     1     -10.284  11.264  65.671  1.00  0.00    -0.253 C  
HETATM   19  C   UNL     1      -6.976   5.120  63.924  1.00  0.00    -0.048 A  
HETATM   20  N   UNL     1     -10.213  12.265  66.614  1.00  0.00    -0.214 N  
HETATM   21  C   UNL     1      -7.502   6.390  64.188  1.00  0.00    -0.084 A  
ENDROOT
BRANCH   6  22
HETATM   22  C   UNL     1     -10.141   7.806  69.513  1.00  0.00    -0.194 A  
HETATM   23  C   UNL     1     -11.003   7.399  71.780  1.00  0.00    -0.264 A  
HETATM   24  C   UNL     1      -9.756   6.923  72.118  1.00  0.00    -0.148 A  
HETATM   25  C   UNL     1      -8.721   6.898  71.215  1.00  0.00    -0.134 A  
HETATM   26  C   UNL     1      -8.057   5.970  73.046  1.00  0.00    -0.113 C  
HETATM   27  C   UNL     1      -8.872   7.348  69.921  1.00  0.00    -0.141 A  
HETATM   28  O   UNL     1      -9.404   6.405  73.325  1.00  0.00    -0.131 OA 
HETATM   29  C   UNL     1     -11.199   7.827  70.462  1.00  0.00    -0.267 A  
HETATM   30  O   UNL     1      -7.588   6.356  71.738  1.00  0.00    -0.092 OA 
ENDBRANCH   6  22
TORSDOF 1
ENDMDL
MODEL       83
REMARK 921   NORMALIZED FREE ENERGY PREDICTED BY IDOCK:   -4.65 KCAL/MOL
REMARK 922        TOTAL FREE ENERGY PREDICTED BY IDOCK:   -4.97 KCAL/MOL
REMARK 923 INTER-LIGAND FREE ENERGY PREDICTED BY IDOCK:   -4.85 KCAL/MOL
REMARK 924 INTRA-LIGAND FREE ENERGY PREDICTED BY IDOCK:   -0.12 KCAL/MOL
REMARK 927      BINDING AFFINITY PREDICTED BY RF-SCORE:    0.00 PKD
ROOT
HETATM    1  C   UNL     1      -8.523   9.289  67.367  1.00  0.00    -0.122 C  
HETATM    2  C   UNL     1      -7.811   8.045  66.782  1.00  0.00    -0.103 C  
HETATM    3  C   UNL     1      -8.505   6.813  67.248  1.00  0.00    -0.120 A  
HETATM    4  C   UNL     1      -9.348   6.830  68.342  1.00  0.00    -0.124 A  
HETATM    5  N   UNL     1      -9.872   5.569  68.481  1.00  0.00    -0.137 NA 
HETATM    6  C   UNL     1      -9.697   8.027  69.204  1.00  0.00    -0.163 C  
HETATM    7  N   UNL     1      -8.778   9.144  68.824  1.00  0.00    -0.131 N  
HETATM    8  O   UNL     1      -7.634  10.731  65.656  1.00  0.00    -0.131 OA 
HETATM    9  C   UNL     1      -9.313   4.722  67.546  1.00  0.00    -0.138 A  
HETATM   10  H   UNL     1     -10.570   5.299  69.173  1.00  0.00     0.000 HD 
HETATM   11  C   UNL     1      -8.040   9.875  69.738  1.00  0.00    -0.176 C  
HETATM   12  C   UNL     1      -9.505   3.349  67.352  1.00  0.00    -0.220 A  
HETATM   13  C   UNL     1      -8.459   5.484  66.749  1.00  0.00    -0.111 A  
HETATM   14  C   UNL     1      -8.800   2.739  66.308  1.00  0.00    -0.146 A  
HETATM   15  O   UNL     1      -7.999   9.670  70.950  1.00  0.00    -0.307 OA 
HETATM   16  C   UNL     1      -6.484  12.521  67.369  1.00  0.00    -0.153 C  
HETATM   17  C   UNL     1      -7.220  11.044  69.207  1.00  0.00    -0.124 C  
HETATM   18  C   UNL     1      -7.789  10.535  66.863  1.00  0.00    -0.117 C  
HETATM   19  C   UNL     1      -7.949   3.476  65.490  1.00  0.00    -0.093 A  
HETATM   20  N   UNL     1      -7.308  11.412  67.811  1.00  0.00    -0.094 N  
HETATM   21  C   UNL     1      -7.772   4.849  65.696  1.00  0.00    -0.087 A  
ENDROOT
BRANCH   6  22
HETATM   22  C   UNL     1      -9.824   7.712  70.688  1.00  0.00    -0.182 A  
HETATM   23  C   UNL     1     -11.038   7.858  72.821  1.00  0.00    -0.462 A  
HETATM   24  C   UNL     1     -10.188   6.894  73.317  1.00  0.00    -0.258 A  
HETATM   25  C   UNL     1      -9.176   6.362  72.556  1.00  0.00    -0.139 A  
HETATM   26  C   UNL     1      -9.222   5.337  74.455  1.00  0.00    -0.118 C  
HETATM   27  C   UNL     1      -8.953   6.759  71.256  1.00  0.00    -0.139 A  
HETATM   28  O   UNL     1     -10.253   6.341  74.557  1.00  0.00    -0.330 OA 
HETATM   29  C   UNL     1     -10.863   8.255  71.491  1.00  0.00    -0.308 A  
HETATM   30  O   UNL     1      -8.478   5.401  73.221  1.00  0.00    -0.117 OA 
ENDBRANCH   6  22
TORSDOF 1
ENDMDL
MODEL       84
REMARK 921   NORMALIZED FREE ENERGY PREDICTED BY IDOCK:   -4.59 KCAL/MOL
REMARK 922        TOTAL FREE ENERGY PREDICTED BY IDOCK:   -4.91 KCAL/MOL
REMARK 923 INTER-LIGAND FREE ENERGY PREDICTED BY IDOCK:   -4.79 KCAL/MOL
REMARK 924 INTRA-LIGAND FREE ENERGY PREDICTED BY IDOCK:   -0.12 KCAL/MOL
REMARK 927      BINDING AFFINITY PREDICTED BY RF-SCORE:    0.00 PKD
ROOT
HETATM    1  C   UNL     1     -10.968   9.700  68.892  1.00  0.00    -0.121 C  
HETATM    2  C   UNL     1      -9.697  10.394  68.345  1.00  0.00    -0.167 C  
HETATM    3  C   UNL     1      -8.787   9.370  67.760  1.00  0.00    -0.124 A  
HETATM    4  C   UNL     1      -8.916   8.030  68.069  1.00  0.00    -0.130 A  
HETATM    5  N   UNL     1      -7.982   7.344  67.335  1.00  0.00    -0.111 NA 
HETATM    6  C   UNL     1      -9.939   7.403  68.995  1.00  0.00    -0.176 C  
HETATM    7  N   UNL     1     -10.635   8.511  69.719  1.00  0.00    -0.225 N  
HETATM    8  O   UNL     1     -12.247  11.738  68.794  1.00  0.00    -0.367 OA 
HETATM    9  C   UNL     1      -7.198   8.230  66.624  1.00  0.00    -0.081 A  
HETATM   10  H   UNL     1      -7.880   6.329  67.318  1.00  0.00     0.000 HD 
HETATM   11  C   UNL     1     -10.790   8.552  71.094  1.00  0.00    -0.243 C  
HETATM   12  C   UNL     1      -6.099   7.988  65.792  1.00  0.00    -0.038 A  
HETATM   13  C   UNL     1      -7.695   9.511  66.864  1.00  0.00    -0.098 A  
HETATM   14  C   UNL     1      -5.490   9.093  65.187  1.00  0.00    -0.042 A  
HETATM   15  O   UNL     1     -10.334   7.731  71.888  1.00  0.00    -0.197 OA 
HETATM   16  C   UNL     1     -13.004  11.718  71.419  1.00  0.00    -0.306 C  
HETATM   17  C   UNL     1     -11.604   9.699  71.678  1.00  0.00    -0.336 C  
HETATM   18  C   UNL     1     -11.881  10.781  69.480  1.00  0.00    -0.308 C  
HETATM   19  C   UNL     1      -5.970  10.382  65.400  1.00  0.00    -0.131 A  
HETATM   20  N   UNL     1     -12.263  10.639  70.795  1.00  0.00    -0.341 N  
HETATM   21  C   UNL     1      -7.073  10.606  66.231  1.00  0.00    -0.137 A  
ENDROOT
BRANCH   6  22
HETATM   22  C   UNL     1      -9.397   6.259  69.842  1.00  0.00    -0.158 A  
HETATM   23  C   UNL     1      -9.535   3.952  70.680  1.00  0.00    -0.244 A  
HETATM   24  C   UNL     1      -8.251   4.098  71.156  1.00  0.00    -0.073 A  
HETATM   25  C   UNL     1      -7.556   5.274  71.014  1.00  0.00    -0.088 A  
HETATM   26  C   UNL     1      -6.254   3.812  71.922  1.00  0.00    -0.014 C  
HETATM   27  C   UNL     1      -8.101   6.373  70.386  1.00  0.00    -0.117 A  
HETATM   28  O   UNL     1      -7.519   3.133  71.775  1.00  0.00    -0.045 OA 
HETATM   29  C   UNL     1     -10.103   5.036  70.003  1.00  0.00    -0.342 A  
HETATM   30  O   UNL     1      -6.295   5.196  71.519  1.00  0.00    -0.028 OA 
ENDBRANCH   6  22
TORSDOF 1
ENDMDL
MODEL       85
REMARK 921   NORMALIZED FREE ENERGY PREDICTED BY IDOCK:   -4.58 KCAL/MOL
REMARK 922        TOTAL FREE ENERGY PREDICTED BY IDOCK:   -4.90 KCAL/MOL
REMARK 923 INTER-LIGAND FREE ENERGY PREDICTED BY IDOCK:   -5.21 KCAL/MOL
REMARK 924 INTRA-LIGAND FREE ENERGY PREDICTED BY IDOCK:    0.31 KCAL/MOL
REMARK 927      BINDING AFFINITY PREDICTED BY RF-SCORE:    0.00 PKD
ROOT
HETATM    1  C   UNL     1     -11.082  12.298  69.723  1.00  0.00     0.149 C  
HETATM    2  C   UNL     1     -11.994  11.144  70.206  1.00  0.00    -0.460 C  
HETATM    3  C   UNL     1     -11.263   9.852  70.085  1.00  0.00    -0.347 A  
HETATM    4  C   UNL     1     -10.147   9.727  69.281  1.00  0.00    -0.198 A  
HETATM    5  N   UNL     1      -9.672   8.448  69.427  1.00  0.00    -0.175 NA 
HETATM    6  C   UNL     1      -9.508  10.811  68.435  1.00  0.00    -0.174 C  
HETATM    7  N   UNL     1     -10.437  11.983  68.421  1.00  0.00    -0.213 N  
HETATM    8  O   UNL     1     -12.339  13.943  70.952  1.00  0.00    -0.341 OA 
HETATM    9  C   UNL     1     -10.514   7.724  70.246  1.00  0.00    -0.225 A  
HETATM   10  H   UNL     1      -8.822   8.087  68.993  1.00  0.00     0.000 HD 
HETATM   11  C   UNL     1     -10.850  12.621  67.265  1.00  0.00    -0.248 C  
HETATM   12  C   UNL     1     -10.456   6.379  70.627  1.00  0.00    -0.269 A  
HETATM   13  C   UNL     1     -11.516   8.590  70.685  1.00  0.00    -0.249 A  
HETATM   14  C   UNL     1     -11.456   5.906  71.484  1.00  0.00    -0.216 A  
HETATM   15  O   UNL     1     -10.559  12.281  66.119  1.00  0.00    -0.239 OA 
HETATM   16  C   UNL     1     -12.866  15.551  68.808  1.00  0.00     1.171 C  
HETATM   17  C   UNL     1     -11.723  13.860  67.417  1.00  0.00    -0.389 C  
HETATM   18  C   UNL     1     -11.862  13.609  69.865  1.00  0.00    -0.320 C  
HETATM   19  C   UNL     1     -12.463   6.749  71.946  1.00  0.00    -0.355 A  
HETATM   20  N   UNL     1     -12.011  14.382  68.736  1.00  0.00    -0.316 N  
HETATM   21  C   UNL     1     -12.502   8.093  71.559  1.00  0.00    -0.333 A  
ENDROOT
BRANCH   6  22
HETATM   22  C   UNL     1      -8.987  10.327  67.089  1.00  0.00    -0.145 A  
HETATM   23  C   UNL     1      -9.365   9.376  64.854  1.00  0.00    -0.218 A  
HETATM   24  C   UNL     1      -8.068   9.717  64.540  1.00  0.00    -0.146 A  
HETATM   25  C   UNL     1      -7.238  10.320  65.454  1.00  0.00    -0.143 A  
HETATM   26  C   UNL     1      -6.202  10.188  63.566  1.00  0.00    -0.138 C  
HETATM   27  C   UNL     1      -7.654  10.618  66.733  1.00  0.00    -0.120 A  
HETATM   28  O   UNL     1      -7.471   9.543  63.331  1.00  0.00    -0.104 OA 
HETATM   29  C   UNL     1      -9.831   9.701  66.132  1.00  0.00    -0.334 A  
HETATM   30  O   UNL     1      -6.014  10.607  64.933  1.00  0.00    -0.117 OA 
ENDBRANCH   6  22
TORSDOF 1
ENDMDL
MODEL       86
REMARK 921   NORMALIZED FREE ENERGY PREDICTED BY IDOCK:   -4.54 KCAL/MOL
REMARK 922        TOTAL FREE ENERGY PREDICTED BY IDOCK:   -4.86 KCAL/MOL
REMARK 923 INTER-LIGAND FREE ENERGY PREDICTED BY IDOCK:   -4.73 KCAL/MOL
REMARK 924 INTRA-LIGAND FREE ENERGY PREDICTED BY IDOCK:   -0.12 KCAL/MOL
REMARK 927      BINDING AFFINITY PREDICTED BY RF-SCORE:    0.00 PKD
ROOT
HETATM    1  C   UNL     1      -8.334   9.098  66.225  1.00  0.00    -0.119 C  
HETATM    2  C   UNL     1      -9.742   9.549  66.683  1.00  0.00    -0.270 C  
HETATM    3  C   UNL     1      -9.888   9.309  68.145  1.00  0.00    -0.185 A  
HETATM    4  C   UNL     1      -9.049   8.445  68.821  1.00  0.00    -0.143 A  
HETATM    5  N   UNL     1      -9.396   8.483  70.148  1.00  0.00    -0.158 NA 
HETATM    6  C   UNL     1      -7.906   7.641  68.235  1.00  0.00    -0.121 C  
HETATM    7  N   UNL     1      -7.992   7.749  66.745  1.00  0.00    -0.106 N  
HETATM    8  O   UNL     1      -8.412  10.492  64.264  1.00  0.00    -0.176 OA 
HETATM    9  C   UNL     1     -10.499   9.294  70.323  1.00  0.00    -0.228 A  
HETATM   10  H   UNL     1      -8.910   7.986  70.895  1.00  0.00     0.000 HD 
HETATM   11  C   UNL     1      -7.966   6.658  65.894  1.00  0.00    -0.112 C  
HETATM   12  C   UNL     1     -11.225   9.584  71.484  1.00  0.00    -0.437 A  
HETATM   13  C   UNL     1     -10.819   9.837  69.079  1.00  0.00    -0.223 A  
HETATM   14  C   UNL     1     -12.312  10.456  71.367  1.00  0.00    -0.500 A  
HETATM   15  O   UNL     1      -7.928   5.479  66.244  1.00  0.00    -0.103 OA 
HETATM   16  C   UNL     1      -7.926   8.486  62.475  1.00  0.00    -0.151 C  
HETATM   17  C   UNL     1      -7.967   6.933  64.396  1.00  0.00    -0.093 C  
HETATM   18  C   UNL     1      -8.218   9.364  64.721  1.00  0.00    -0.145 C  
HETATM   19  C   UNL     1     -12.649  11.021  70.140  1.00  0.00    -0.281 A  
HETATM   20  N   UNL     1      -7.899   8.296  63.913  1.00  0.00    -0.141 N  
HETATM   21  C   UNL     1     -11.909  10.725  68.989  1.00  0.00    -0.325 A  
ENDROOT
BRANCH   6  22
HETATM   22  C   UNL     1      -7.762   6.241  68.818  1.00  0.00    -0.100 A  
HETATM   23  C   UNL     1      -6.389   4.448  69.789  1.00  0.00    -0.028 A  
HETATM   24  C   UNL     1      -7.557   3.808  70.139  1.00  0.00    -0.048 A  
HETATM   25  C   UNL     1      -8.790   4.332  69.833  1.00  0.00    -0.081 A  
HETATM   26  C   UNL     1      -9.075   2.541  71.003  1.00  0.00    -0.109 C  
HETATM   27  C   UNL     1      -8.928   5.526  69.160  1.00  0.00    -0.120 A  
HETATM   28  O   UNL     1      -7.647   2.640  70.832  1.00  0.00    -0.036 OA 
HETATM   29  C   UNL     1      -6.496   5.682  69.139  1.00  0.00    -0.042 A  
HETATM   30  O   UNL     1      -9.811   3.563  70.300  1.00  0.00    -0.152 OA 
ENDBRANCH   6  22
TORSDOF 1
ENDMDL
MODEL       87
REMARK 921   NORMALIZED FREE ENERGY PREDICTED BY IDOCK:   -4.45 KCAL/MOL
REMARK 922        TOTAL FREE ENERGY PREDICTED BY IDOCK:   -4.76 KCAL/MOL
REMARK 923 INTER-LIGAND FREE ENERGY PREDICTED BY IDOCK:   -4.64 KCAL/MOL
REMARK 924 INTRA-LIGAND FREE ENERGY PREDICTED BY IDOCK:   -0.12 KCAL/MOL
REMARK 927      BINDING AFFINITY PREDICTED BY RF-SCORE:    0.00 PKD
ROOT
HETATM    1  C   UNL     1      -9.823   8.116  70.146  1.00  0.00    -0.184 C  
HETATM    2  C   UNL     1     -10.500   6.908  70.837  1.00  0.00    -0.233 C  
HETATM    3  C   UNL     1      -9.825   5.651  70.409  1.00  0.00    -0.253 A  
HETATM    4  C   UNL     1      -9.037   5.606  69.276  1.00  0.00    -0.113 A  
HETATM    5  N   UNL     1      -8.516   4.340  69.183  1.00  0.00    -0.080 NA 
HETATM    6  C   UNL     1      -8.736   6.751  68.329  1.00  0.00    -0.123 C  
HETATM    7  N   UNL     1      -9.640   7.887  68.689  1.00  0.00    -0.153 N  
HETATM    8  O   UNL     1     -10.632   9.654  71.813  1.00  0.00    -0.097 OA 
HETATM    9  C   UNL     1      -9.024   3.547  70.193  1.00  0.00    -0.107 A  
HETATM   10  H   UNL     1      -7.851   4.031  68.474  1.00  0.00     0.000 HD 
HETATM   11  C   UNL     1     -10.425   8.564  67.772  1.00  0.00    -0.223 C  
HETATM   12  C   UNL     1      -8.817   2.188  70.456  1.00  0.00    -0.129 A  
HETATM   13  C   UNL     1      -9.840   4.354  70.986  1.00  0.00    -0.260 A  
HETATM   14  C   UNL     1      -9.467   1.639  71.567  1.00  0.00    -0.185 A  
HETATM   15  O   UNL     1     -10.525   8.288  66.577  1.00  0.00    -0.255 OA 
HETATM   16  C   UNL     1     -11.873  11.340  70.058  1.00  0.00    -0.367 C  
HETATM   17  C   UNL     1     -11.223   9.760  68.274  1.00  0.00    -0.012 C  
HETATM   18  C   UNL     1     -10.537   9.389  70.613  1.00  0.00    -0.290 C  
HETATM   19  C   UNL     1     -10.280   2.421  72.382  1.00  0.00    -0.219 A  
HETATM   20  N   UNL     1     -11.067  10.209  69.641  1.00  0.00    -0.249 N  
HETATM   21  C   UNL     1     -10.472   3.780  72.107  1.00  0.00    -0.036 A  
ENDROOT
BRANCH   6  22
HETATM   22  C   UNL     1      -8.682   6.351  66.861  1.00  0.00    -0.115 A  
HETATM   23  C   UNL     1      -7.544   6.321  64.682  1.00  0.00    -0.098 A  
HETATM   24  C   UNL     1      -8.457   5.376  64.271  1.00  0.00    -0.092 A  
HETATM   25  C   UNL     1      -9.465   4.936  65.096  1.00  0.00    -0.058 A  
HETATM   26  C   UNL     1      -9.540   3.809  63.257  1.00  0.00    -0.137 C  
HETATM   27  C   UNL     1      -9.618   5.414  66.379  1.00  0.00    -0.172 A  
HETATM   28  O   UNL     1      -8.467   4.754  63.061  1.00  0.00    -0.103 OA 
HETATM   29  C   UNL     1      -7.649   6.798  65.993  1.00  0.00    -0.086 A  
HETATM   30  O   UNL     1     -10.232   3.976  64.511  1.00  0.00    -0.213 OA 
ENDBRANCH   6  22
TORSDOF 1
ENDMDL
MODEL       88
REMARK 921   NORMALIZED FREE ENERGY PREDICTED BY IDOCK:   -4.41 KCAL/MOL
REMARK 922        TOTAL FREE ENERGY PREDICTED BY IDOCK:   -4.72 KCAL/MOL
REMARK 923 INTER-LIGAND FREE ENERGY PREDICTED BY IDOCK:   -4.59 KCAL/MOL
REMARK 924 INTRA-LIGAND FREE ENERGY PREDICTED BY IDOCK:   -0.13 KCAL/MOL
REMARK 927      BINDING AFFINITY PREDICTED BY RF-SCORE:    0.00 PKD
ROOT
HETATM    1  C   UNL     1      -7.498  10.483  69.274  1.00  0.00    -0.122 C  
HETATM    2  C   UNL     1      -9.035  10.462  69.091  1.00  0.00    -0.188 C  
HETATM    3  C   UNL     1      -9.662   9.774  70.254  1.00  0.00    -0.279 A  
HETATM    4  C   UNL     1      -8.929   8.952  71.087  1.00  0.00    -0.241 A  
HETATM    5  N   UNL     1      -9.765   8.520  72.085  1.00  0.00    -0.296 NA 
HETATM    6  C   UNL     1      -7.453   8.625  70.975  1.00  0.00    -0.090 C  
HETATM    7  N   UNL     1      -6.970   9.148  69.659  1.00  0.00    -0.053 N  
HETATM    8  O   UNL     1      -7.241  12.343  67.767  1.00  0.00    -0.096 OA 
HETATM    9  C   UNL     1     -11.046   8.983  71.859  1.00  0.00    -0.363 A  
HETATM   10  H   UNL     1      -9.483   7.941  72.876  1.00  0.00     0.000 HD 
HETATM   11  C   UNL     1      -6.254   8.391  68.749  1.00  0.00    -0.045 C  
HETATM   12  C   UNL     1     -12.224   8.751  72.578  1.00  0.00    -0.347 A  
HETATM   13  C   UNL     1     -11.004   9.787  70.719  1.00  0.00    -0.406 A  
HETATM   14  C   UNL     1     -13.394   9.362  72.116  1.00  0.00    -0.545 A  
HETATM   15  O   UNL     1      -5.976   7.199  68.874  1.00  0.00    -0.021 OA 
HETATM   16  C   UNL     1      -5.459  11.111  66.103  1.00  0.00    -0.143 C  
HETATM   17  C   UNL     1      -5.750   9.090  67.493  1.00  0.00    -0.039 C  
HETATM   18  C   UNL     1      -6.888  11.201  68.066  1.00  0.00    -0.067 C  
HETATM   19  C   UNL     1     -13.381  10.177  70.988  1.00  0.00    -0.333 A  
HETATM   20  N   UNL     1      -5.944  10.515  67.333  1.00  0.00    -0.052 N  
HETATM   21  C   UNL     1     -12.193  10.402  70.283  1.00  0.00    -0.349 A  
ENDROOT
BRANCH   6  22
HETATM   22  C   UNL     1      -7.104   7.182  71.314  1.00  0.00    -0.069 A  
HETATM   23  C   UNL     1      -5.738   5.525  72.511  1.00  0.00    -0.023 A  
HETATM   24  C   UNL     1      -6.662   4.571  72.147  1.00  0.00    -0.042 A  
HETATM   25  C   UNL     1      -7.758   4.880  71.379  1.00  0.00    -0.088 A  
HETATM   26  C   UNL     1      -7.885   2.804  71.953  1.00  0.00    -0.053 C  
HETATM   27  C   UNL     1      -7.997   6.161  70.931  1.00  0.00    -0.116 A  
HETATM   28  O   UNL     1      -6.633   3.259  72.507  1.00  0.00    -0.017 OA 
HETATM   29  C   UNL     1      -5.973   6.843  72.105  1.00  0.00    -0.038 A  
HETATM   30  O   UNL     1      -8.562   3.803  71.165  1.00  0.00    -0.074 OA 
ENDBRANCH   6  22
TORSDOF 1
ENDMDL
MODEL       89
REMARK 921   NORMALIZED FREE ENERGY PREDICTED BY IDOCK:   -4.40 KCAL/MOL
REMARK 922        TOTAL FREE ENERGY PREDICTED BY IDOCK:   -4.71 KCAL/MOL
REMARK 923 INTER-LIGAND FREE ENERGY PREDICTED BY IDOCK:   -4.80 KCAL/MOL
REMARK 924 INTRA-LIGAND FREE ENERGY PREDICTED BY IDOCK:    0.09 KCAL/MOL
REMARK 927      BINDING AFFINITY PREDICTED BY RF-SCORE:    0.00 PKD
ROOT
HETATM    1  C   UNL     1      -9.552  14.154  65.911  1.00  0.00    -0.178 C  
HETATM    2  C   UNL     1      -9.385  15.337  66.895  1.00  0.00    -0.255 C  
HETATM    3  C   UNL     1      -8.057  15.241  67.563  1.00  0.00    -0.192 A  
HETATM    4  C   UNL     1      -7.342  14.060  67.579  1.00  0.00    -0.170 A  
HETATM    5  N   UNL     1      -6.150  14.305  68.212  1.00  0.00    -0.107 NA 
HETATM    6  C   UNL     1      -7.752  12.738  66.960  1.00  0.00     0.012 C  
HETATM    7  N   UNL     1      -9.182  12.859  66.538  1.00  0.00    -0.218 N  
HETATM    8  O   UNL     1     -11.231  15.318  64.636  1.00  0.00    -0.396 OA 
HETATM    9  C   UNL     1      -6.123  15.605  68.677  1.00  0.00    -0.100 A  
HETATM   10  H   UNL     1      -5.395  13.628  68.322  1.00  0.00     0.000 HD 
HETATM   11  C   UNL     1     -10.161  11.941  66.874  1.00  0.00    -0.208 C  
HETATM   12  C   UNL     1      -5.142  16.272  69.420  1.00  0.00    -0.116 A  
HETATM   13  C   UNL     1      -7.307  16.219  68.268  1.00  0.00    -0.146 A  
HETATM   14  C   UNL     1      -5.382  17.609  69.754  1.00  0.00    -0.211 A  
HETATM   15  O   UNL     1     -10.001  10.958  67.597  1.00  0.00    -0.169 OA 
HETATM   16  C   UNL     1     -13.139  13.374  64.847  1.00  0.00     0.063 C  
HETATM   17  C   UNL     1     -11.553  12.150  66.292  1.00  0.00    -0.360 C  
HETATM   18  C   UNL     1     -10.923  14.288  65.239  1.00  0.00    -0.343 C  
HETATM   19  C   UNL     1      -6.550  18.251  69.352  1.00  0.00    -0.213 A  
HETATM   20  N   UNL     1     -11.786  13.220  65.346  1.00  0.00    -0.329 N  
HETATM   21  C   UNL     1      -7.518  17.570  68.605  1.00  0.00    -0.265 A  
ENDROOT
BRANCH   6  22
HETATM   22  C   UNL     1      -7.378  11.517  67.789  1.00  0.00    -0.096 A  
HETATM   23  C   UNL     1      -6.637   9.179  67.958  1.00  0.00    -0.060 A  
HETATM   24  C   UNL     1      -6.425   9.392  69.301  1.00  0.00    -0.044 A  
HETATM   25  C   UNL     1      -6.692  10.603  69.893  1.00  0.00    -0.147 A  
HETATM   26  C   UNL     1      -5.810   9.298  71.367  1.00  0.00    -0.070 C  
HETATM   27  C   UNL     1      -7.185  11.672  69.176  1.00  0.00    -0.064 A  
HETATM   28  O   UNL     1      -5.916   8.487  70.179  1.00  0.00    -0.030 OA 
HETATM   29  C   UNL     1      -7.100  10.256  67.195  1.00  0.00    -0.089 A  
HETATM   30  O   UNL     1      -6.378  10.614  71.217  1.00  0.00    -0.300 OA 
ENDBRANCH   6  22
TORSDOF 1
ENDMDL
MODEL       90
REMARK 921   NORMALIZED FREE ENERGY PREDICTED BY IDOCK:   -4.34 KCAL/MOL
REMARK 922        TOTAL FREE ENERGY PREDICTED BY IDOCK:   -4.65 KCAL/MOL
REMARK 923 INTER-LIGAND FREE ENERGY PREDICTED BY IDOCK:   -4.93 KCAL/MOL
REMARK 924 INTRA-LIGAND FREE ENERGY PREDICTED BY IDOCK:    0.28 KCAL/MOL
REMARK 927      BINDING AFFINITY PREDICTED BY RF-SCORE:    0.00 PKD
ROOT
HETATM    1  C   UNL     1      -8.428   6.891  70.889  1.00  0.00    -0.135 C  
HETATM    2  C   UNL     1      -8.558   5.644  69.981  1.00  0.00    -0.122 C  
HETATM    3  C   UNL     1      -8.281   6.028  68.569  1.00  0.00    -0.110 A  
HETATM    4  C   UNL     1      -8.332   7.345  68.157  1.00  0.00    -0.124 A  
HETATM    5  N   UNL     1      -7.975   7.380  66.833  1.00  0.00    -0.113 NA 
HETATM    6  C   UNL     1      -8.657   8.555  69.011  1.00  0.00    -0.130 C  
HETATM    7  N   UNL     1      -9.159   8.058  70.330  1.00  0.00    -0.147 N  
HETATM    8  O   UNL     1      -8.068   5.550  72.855  1.00  0.00    -0.107 OA 
HETATM    9  C   UNL     1      -7.778   6.096  66.365  1.00  0.00    -0.102 A  
HETATM   10  H   UNL     1      -7.872   8.228  66.276  1.00  0.00     0.000 HD 
HETATM   11  C   UNL     1     -10.335   8.492  70.915  1.00  0.00    -0.199 C  
HETATM   12  C   UNL     1      -7.459   5.649  65.078  1.00  0.00    -0.078 A  
HETATM   13  C   UNL     1      -7.950   5.228  67.444  1.00  0.00    -0.100 A  
HETATM   14  C   UNL     1      -7.312   4.271  64.890  1.00  0.00    -0.072 A  
HETATM   15  O   UNL     1     -11.134   9.281  70.413  1.00  0.00    -0.238 OA 
HETATM   16  C   UNL     1     -10.109   6.635  74.312  1.00  0.00    -0.351 C  
HETATM   17  C   UNL     1     -10.667   7.963  72.305  1.00  0.00    -0.283 C  
HETATM   18  C   UNL     1      -8.714   6.459  72.330  1.00  0.00    -0.120 C  
HETATM   19  C   UNL     1      -7.469   3.381  65.949  1.00  0.00    -0.076 A  
HETATM   20  N   UNL     1      -9.719   7.120  73.001  1.00  0.00    -0.165 N  
HETATM   21  C   UNL     1      -7.783   3.846  67.231  1.00  0.00    -0.080 A  
ENDROOT
BRANCH   6  22
HETATM   22  C   UNL     1      -9.497   9.611  68.306  1.00  0.00    -0.145 A  
HETATM   23  C   UNL     1     -11.272  10.243  66.727  1.00  0.00     0.204 A  
HETATM   24  C   UNL     1     -11.213  11.518  67.244  1.00  0.00    -0.301 A  
HETATM   25  C   UNL     1     -10.325  11.856  68.236  1.00  0.00    -0.201 A  
HETATM   26  C   UNL     1     -11.581  13.563  67.826  1.00  0.00    -0.339 C  
HETATM   27  C   UNL     1      -9.446  10.940  68.771  1.00  0.00    -0.196 A  
HETATM   28  O   UNL     1     -12.010  12.559  66.882  1.00  0.00    -0.507 OA 
HETATM   29  C   UNL     1     -10.419   9.280  67.276  1.00  0.00    -0.334 A  
HETATM   30  O   UNL     1     -10.456  13.152  68.629  1.00  0.00    -0.253 OA 
ENDBRANCH   6  22
TORSDOF 1
ENDMDL
MODEL       91
REMARK 921   NORMALIZED FREE ENERGY PREDICTED BY IDOCK:   -4.32 KCAL/MOL
REMARK 922        TOTAL FREE ENERGY PREDICTED BY IDOCK:   -4.62 KCAL/MOL
REMARK 923 INTER-LIGAND FREE ENERGY PREDICTED BY IDOCK:   -4.98 KCAL/MOL
REMARK 924 INTRA-LIGAND FREE ENERGY PREDICTED BY IDOCK:    0.36 KCAL/MOL
REMARK 927      BINDING AFFINITY PREDICTED BY RF-SCORE:    0.00 PKD
ROOT
HETATM    1  C   UNL     1      -9.394   9.049  66.974  1.00  0.00    -0.150 C  
HETATM    2  C   UNL     1     -10.707   9.811  66.672  1.00  0.00    -0.106 C  
HETATM    3  C   UNL     1     -10.387  11.206  66.262  1.00  0.00    -0.299 A  
HETATM    4  C   UNL     1      -9.159  11.776  66.540  1.00  0.00    -0.203 A  
HETATM    5  N   UNL     1      -9.151  13.033  65.991  1.00  0.00    -0.442 NA 
HETATM    6  C   UNL     1      -7.996  11.125  67.263  1.00  0.00    -0.137 C  
HETATM    7  N   UNL     1      -8.487   9.839  67.848  1.00  0.00    -0.124 N  
HETATM    8  O   UNL     1     -10.441   6.906  66.646  1.00  0.00    -0.223 OA 
HETATM    9  C   UNL     1     -10.384  13.312  65.436  1.00  0.00    -0.306 A  
HETATM   10  H   UNL     1      -8.352  13.667  65.991  1.00  0.00     0.000 HD 
HETATM   11  C   UNL     1      -8.302   9.477  69.170  1.00  0.00    -0.125 C  
HETATM   12  C   UNL     1     -10.847  14.480  64.820  1.00  0.00    -0.410 A  
HETATM   13  C   UNL     1     -11.175  12.172  65.582  1.00  0.00    -0.381 A  
HETATM   14  C   UNL     1     -12.161  14.481  64.339  1.00  0.00    -0.492 A  
HETATM   15  O   UNL     1      -7.772  10.175  70.034  1.00  0.00    -0.170 OA 
HETATM   16  C   UNL     1      -9.760   5.885  69.087  1.00  0.00    -0.140 C  
HETATM   17  C   UNL     1      -8.777   8.094  69.596  1.00  0.00    -0.142 C  
HETATM   18  C   UNL     1      -9.760   7.620  67.385  1.00  0.00    -0.161 C  
HETATM   19  C   UNL     1     -12.970  13.355  64.462  1.00  0.00     0.078 A  
HETATM   20  N   UNL     1      -9.307   7.178  68.608  1.00  0.00    -0.135 N  
HETATM   21  C   UNL     1     -12.489  12.193  65.076  1.00  0.00    -0.099 A  
ENDROOT
BRANCH   6  22
HETATM   22  C   UNL     1      -7.236  12.060  68.193  1.00  0.00    -0.090 A  
HETATM   23  C   UNL     1      -5.171  12.741  69.339  1.00  0.00    -0.075 A  
HETATM   24  C   UNL     1      -5.793  13.927  69.657  1.00  0.00    -0.107 A  
HETATM   25  C   UNL     1      -7.091  14.185  69.288  1.00  0.00    -0.079 A  
HETATM   26  C   UNL     1      -6.286  15.944  70.243  1.00  0.00     0.012 C  
HETATM   27  C   UNL     1      -7.843  13.273  68.580  1.00  0.00    -0.110 A  
HETATM   28  O   UNL     1      -5.225  14.970  70.319  1.00  0.00    -0.106 OA 
HETATM   29  C   UNL     1      -5.894  11.809  68.587  1.00  0.00    -0.049 A  
HETATM   30  O   UNL     1      -7.502  15.426  69.666  1.00  0.00    -0.209 OA 
ENDBRANCH   6  22
TORSDOF 1
ENDMDL
MODEL       92
REMARK 921   NORMALIZED FREE ENERGY PREDICTED BY IDOCK:   -4.26 KCAL/MOL
REMARK 922        TOTAL FREE ENERGY PREDICTED BY IDOCK:   -4.56 KCAL/MOL
REMARK 923 INTER-LIGAND FREE ENERGY PREDICTED BY IDOCK:   -4.65 KCAL/MOL
REMARK 924 INTRA-LIGAND FREE ENERGY PREDICTED BY IDOCK:    0.09 KCAL/MOL
REMARK 927      BINDING AFFINITY PREDICTED BY RF-SCORE:    0.00 PKD
ROOT
HETATM    1  C   UNL     1      -7.409   8.815  69.865  1.00  0.00    -0.052 C  
HETATM    2  C   UNL     1      -8.379   8.698  71.065  1.00  0.00    -0.193 C  
HETATM    3  C   UNL     1      -8.765   7.272  71.252  1.00  0.00    -0.127 A  
HETATM    4  C   UNL     1      -8.599   6.342  70.245  1.00  0.00    -0.138 A  
HETATM    5  N   UNL     1      -8.990   5.122  70.738  1.00  0.00    -0.132 NA 
HETATM    6  C   UNL     1      -8.030   6.589  68.862  1.00  0.00    -0.111 C  
HETATM    7  N   UNL     1      -7.906   8.068  68.679  1.00  0.00    -0.116 N  
HETATM    8  O   UNL     1      -6.534  10.918  70.644  1.00  0.00    -0.335 OA 
HETATM    9  C   UNL     1      -9.483   5.269  72.019  1.00  0.00    -0.145 A  
HETATM   10  H   UNL     1      -8.925   4.239  70.233  1.00  0.00     0.000 HD 
HETATM   11  C   UNL     1      -8.400   8.750  67.581  1.00  0.00    -0.114 C  
HETATM   12  C   UNL     1     -10.038   4.316  72.881  1.00  0.00    -0.212 A  
HETATM   13  C   UNL     1      -9.340   6.611  72.370  1.00  0.00    -0.147 A  
HETATM   14  C   UNL     1     -10.458   4.752  74.142  1.00  0.00    -0.335 A  
HETATM   15  O   UNL     1      -9.042   8.250  66.660  1.00  0.00    -0.148 OA 
HETATM   16  C   UNL     1      -7.056  12.305  68.349  1.00  0.00    -0.094 C  
HETATM   17  C   UNL     1      -8.114  10.244  67.492  1.00  0.00    -0.110 C  
HETATM   18  C   UNL     1      -7.028  10.290  69.705  1.00  0.00    -0.129 C  
HETATM   19  C   UNL     1     -10.318   6.083  74.525  1.00  0.00    -0.241 A  
HETATM   20  N   UNL     1      -7.270  10.877  68.483  1.00  0.00    -0.085 N  
HETATM   21  C   UNL     1      -9.757   7.022  73.651  1.00  0.00    -0.283 A  
ENDROOT
BRANCH   6  22
HETATM   22  C   UNL     1      -8.726   5.813  67.752  1.00  0.00    -0.107 A  
HETATM   23  C   UNL     1     -10.751   5.210  66.494  1.00  0.00    -0.262 A  
HETATM   24  C   UNL     1      -9.935   4.622  65.554  1.00  0.00    -0.183 A  
HETATM   25  C   UNL     1      -8.568   4.597  65.695  1.00  0.00    -0.124 A  
HETATM   26  C   UNL     1      -9.077   3.731  63.786  1.00  0.00    -0.116 C  
HETATM   27  C   UNL     1      -7.937   5.160  66.783  1.00  0.00    -0.104 A  
HETATM   28  O   UNL     1     -10.347   4.040  64.395  1.00  0.00    -0.222 OA 
HETATM   29  C   UNL     1     -10.139   5.825  67.591  1.00  0.00    -0.205 A  
HETATM   30  O   UNL     1      -7.948   4.003  64.640  1.00  0.00    -0.085 OA 
ENDBRANCH   6  22
TORSDOF 1
ENDMDL
MODEL       93
REMARK 921   NORMALIZED FREE ENERGY PREDICTED BY IDOCK:   -4.20 KCAL/MOL
REMARK 922        TOTAL FREE ENERGY PREDICTED BY IDOCK:   -4.50 KCAL/MOL
REMARK 923 INTER-LIGAND FREE ENERGY PREDICTED BY IDOCK:   -4.57 KCAL/MOL
REMARK 924 INTRA-LIGAND FREE ENERGY PREDICTED BY IDOCK:    0.08 KCAL/MOL
REMARK 927      BINDING AFFINITY PREDICTED BY RF-SCORE:    0.00 PKD
ROOT
HETATM    1  C   UNL     1      -9.077   7.986  68.993  1.00  0.00    -0.144 C  
HETATM    2  C   UNL     1     -10.169   7.483  69.967  1.00  0.00    -0.215 C  
HETATM    3  C   UNL     1      -9.846   6.095  70.400  1.00  0.00    -0.214 A  
HETATM    4  C   UNL     1      -8.959   5.307  69.693  1.00  0.00    -0.107 A  
HETATM    5  N   UNL     1      -8.829   4.120  70.368  1.00  0.00    -0.081 NA 
HETATM    6  C   UNL     1      -8.206   5.689  68.434  1.00  0.00    -0.103 C  
HETATM    7  N   UNL     1      -8.773   6.982  67.940  1.00  0.00    -0.126 N  
HETATM    8  O   UNL     1      -9.613  10.294  69.419  1.00  0.00    -0.213 OA 
HETATM    9  C   UNL     1      -9.683   4.100  71.453  1.00  0.00    -0.181 A  
HETATM   10  H   UNL     1      -8.196   3.364  70.107  1.00  0.00     0.000 HD 
HETATM   11  C   UNL     1      -9.189   7.190  66.637  1.00  0.00    -0.160 C  
HETATM   12  C   UNL     1      -9.926   3.084  72.384  1.00  0.00    -0.235 A  
HETATM   13  C   UNL     1     -10.324   5.338  71.503  1.00  0.00    -0.287 A  
HETATM   14  C   UNL     1     -10.855   3.345  73.398  1.00  0.00    -0.311 A  
HETATM   15  O   UNL     1      -9.202   6.340  65.748  1.00  0.00    -0.090 OA 
HETATM   16  C   UNL     1     -10.046  10.967  66.808  1.00  0.00    -0.220 C  
HETATM   17  C   UNL     1      -9.657   8.590  66.261  1.00  0.00    -0.236 C  
HETATM   18  C   UNL     1      -9.438   9.414  68.574  1.00  0.00    -0.145 C  
HETATM   19  C   UNL     1     -11.502   4.574  73.479  1.00  0.00    -0.287 A  
HETATM   20  N   UNL     1      -9.563   9.665  67.225  1.00  0.00    -0.159 N  
HETATM   21  C   UNL     1     -11.243   5.581  72.541  1.00  0.00    -0.330 A  
ENDROOT
BRANCH   6  22
HETATM   22  C   UNL     1      -8.073   4.562  67.419  1.00  0.00    -0.101 A  
HETATM   23  C   UNL     1      -9.024   2.667  66.174  1.00  0.00    -0.139 A  
HETATM   24  C   UNL     1      -7.909   2.699  65.367  1.00  0.00    -0.078 A  
HETATM   25  C   UNL     1      -6.893   3.601  65.570  1.00  0.00    -0.053 A  
HETATM   26  C   UNL     1      -6.458   2.467  63.787  1.00  0.00    -0.029 C  
HETATM   27  C   UNL     1      -6.932   4.526  66.592  1.00  0.00    -0.063 A  
HETATM   28  O   UNL     1      -7.686   1.900  64.288  1.00  0.00    -0.062 OA 
HETATM   29  C   UNL     1      -9.112   3.618  67.196  1.00  0.00    -0.189 A  
HETATM   30  O   UNL     1      -5.905   3.489  64.641  1.00  0.00    -0.017 OA 
ENDBRANCH   6  22
TORSDOF 1
ENDMDL
MODEL       94
REMARK 921   NORMALIZED FREE ENERGY PREDICTED BY IDOCK:   -4.14 KCAL/MOL
REMARK 922        TOTAL FREE ENERGY PREDICTED BY IDOCK:   -4.43 KCAL/MOL
REMARK 923 INTER-LIGAND FREE ENERGY PREDICTED BY IDOCK:   -4.46 KCAL/MOL
REMARK 924 INTRA-LIGAND FREE ENERGY PREDICTED BY IDOCK:    0.02 KCAL/MOL
REMARK 927      BINDING AFFINITY PREDICTED BY RF-SCORE:    0.00 PKD
ROOT
HETATM    1  C   UNL     1      -9.749   8.390  70.270  1.00  0.00    -0.172 C  
HETATM    2  C   UNL     1     -10.327   7.007  70.656  1.00  0.00    -0.223 C  
HETATM    3  C   UNL     1      -9.394   5.938  70.205  1.00  0.00    -0.180 A  
HETATM    4  C   UNL     1      -8.428   6.180  69.247  1.00  0.00    -0.119 A  
HETATM    5  N   UNL     1      -7.700   5.028  69.092  1.00  0.00    -0.075 NA 
HETATM    6  C   UNL     1      -8.163   7.490  68.532  1.00  0.00    -0.125 C  
HETATM    7  N   UNL     1      -9.288   8.421  68.857  1.00  0.00    -0.147 N  
HETATM    8  O   UNL     1     -11.069   9.521  71.937  1.00  0.00    -0.290 OA 
HETATM    9  C   UNL     1      -8.235   4.024  69.874  1.00  0.00    -0.057 A  
HETATM   10  H   UNL     1      -6.883   4.928  68.488  1.00  0.00     0.000 HD 
HETATM   11  C   UNL     1     -10.006   9.119  67.903  1.00  0.00    -0.186 C  
HETATM   12  C   UNL     1      -7.857   2.682  69.993  1.00  0.00    -0.049 A  
HETATM   13  C   UNL     1      -9.294   4.576  70.595  1.00  0.00    -0.223 A  
HETATM   14  C   UNL     1      -8.586   1.881  70.878  1.00  0.00    -0.091 A  
HETATM   15  O   UNL     1      -9.857   9.024  66.686  1.00  0.00    -0.203 OA 
HETATM   16  C   UNL     1     -12.253  11.277  70.211  1.00  0.00    -0.345 C  
HETATM   17  C   UNL     1     -11.062  10.101  68.395  1.00  0.00    -0.218 C  
HETATM   18  C   UNL     1     -10.730   9.464  70.753  1.00  0.00    -0.305 C  
HETATM   19  C   UNL     1      -9.641   2.406  71.618  1.00  0.00    -0.213 A  
HETATM   20  N   UNL     1     -11.215  10.346  69.813  1.00  0.00    -0.272 N  
HETATM   21  C   UNL     1     -10.003   3.752  71.490  1.00  0.00    -0.195 A  
ENDROOT
BRANCH   6  22
HETATM   22  C   UNL     1      -7.797   7.337  67.062  1.00  0.00    -0.112 A  
HETATM   23  C   UNL     1      -8.206   6.385  64.833  1.00  0.00    -0.110 A  
HETATM   24  C   UNL     1      -7.297   7.290  64.331  1.00  0.00    -0.085 A  
HETATM   25  C   UNL     1      -6.635   8.177  65.144  1.00  0.00    -0.052 A  
HETATM   26  C   UNL     1      -6.096   8.588  63.096  1.00  0.00    -0.082 C  
HETATM   27  C   UNL     1      -6.844   8.214  66.506  1.00  0.00    -0.067 A  
HETATM   28  O   UNL     1      -6.970   7.443  63.020  1.00  0.00    -0.063 OA 
HETATM   29  C   UNL     1      -8.469   6.423  66.206  1.00  0.00    -0.131 A  
HETATM   30  O   UNL     1      -5.812   9.006  64.446  1.00  0.00    -0.067 OA 
ENDBRANCH   6  22
TORSDOF 1
ENDMDL
MODEL       95
REMARK 921   NORMALIZED FREE ENERGY PREDICTED BY IDOCK:   -4.14 KCAL/MOL
REMARK 922        TOTAL FREE ENERGY PREDICTED BY IDOCK:   -4.43 KCAL/MOL
REMARK 923 INTER-LIGAND FREE ENERGY PREDICTED BY IDOCK:   -4.52 KCAL/MOL
REMARK 924 INTRA-LIGAND FREE ENERGY PREDICTED BY IDOCK:    0.08 KCAL/MOL
REMARK 927      BINDING AFFINITY PREDICTED BY RF-SCORE:    0.00 PKD
ROOT
HETATM    1  C   UNL     1     -10.592   9.617  67.151  1.00  0.00    -0.228 C  
HETATM    2  C   UNL     1      -9.600   9.107  66.078  1.00  0.00    -0.342 C  
HETATM    3  C   UNL     1      -9.304   7.668  66.321  1.00  0.00    -0.189 A  
HETATM    4  C   UNL     1      -9.558   7.076  67.543  1.00  0.00    -0.130 A  
HETATM    5  N   UNL     1      -9.237   5.747  67.435  1.00  0.00    -0.110 NA 
HETATM    6  C   UNL     1     -10.146   7.740  68.772  1.00  0.00    -0.196 C  
HETATM    7  N   UNL     1     -10.177   9.215  68.521  1.00  0.00    -0.193 N  
HETATM    8  O   UNL     1     -11.304  11.455  65.768  1.00  0.00    -0.173 OA 
HETATM    9  C   UNL     1      -8.701   5.492  66.188  1.00  0.00    -0.133 A  
HETATM   10  H   UNL     1      -9.374   5.050  68.166  1.00  0.00     0.000 HD 
HETATM   11  C   UNL     1      -9.668  10.154  69.401  1.00  0.00    -0.229 C  
HETATM   12  C   UNL     1      -8.188   4.303  65.658  1.00  0.00    -0.109 A  
HETATM   13  C   UNL     1      -8.745   6.684  65.464  1.00  0.00    -0.051 A  
HETATM   14  C   UNL     1      -7.706   4.335  64.345  1.00  0.00    -0.084 A  
HETATM   15  O   UNL     1      -9.085   9.903  70.454  1.00  0.00    -0.170 OA 
HETATM   16  C   UNL     1     -10.752  13.409  67.595  1.00  0.00    -0.247 C  
HETATM   17  C   UNL     1      -9.857  11.624  69.049  1.00  0.00     0.052 C  
HETATM   18  C   UNL     1     -10.877  11.095  66.868  1.00  0.00    -0.279 C  
HETATM   19  C   UNL     1      -7.747   5.507  63.594  1.00  0.00    -0.089 A  
HETATM   20  N   UNL     1     -10.630  11.993  67.883  1.00  0.00    -0.196 N  
HETATM   21  C   UNL     1      -8.267   6.686  64.139  1.00  0.00     0.049 A  
ENDROOT
BRANCH   6  22
HETATM   22  C   UNL     1      -9.534   7.277  70.087  1.00  0.00    -0.165 A  
HETATM   23  C   UNL     1      -7.583   6.662  71.450  1.00  0.00    -0.093 A  
HETATM   24  C   UNL     1      -8.399   6.712  72.557  1.00  0.00    -0.113 A  
HETATM   25  C   UNL     1      -9.737   7.009  72.457  1.00  0.00    -0.149 A  
HETATM   26  C   UNL     1      -9.231   6.814  74.546  1.00  0.00    -0.210 C  
HETATM   27  C   UNL     1     -10.337   7.274  71.245  1.00  0.00    -0.204 A  
HETATM   28  O   UNL     1      -8.006   6.516  73.845  1.00  0.00    -0.103 OA 
HETATM   29  C   UNL     1      -8.152   6.964  70.209  1.00  0.00    -0.120 A  
HETATM   30  O   UNL     1     -10.353   7.043  73.670  1.00  0.00    -0.313 OA 
ENDBRANCH   6  22
TORSDOF 1
ENDMDL
MODEL       96
REMARK 921   NORMALIZED FREE ENERGY PREDICTED BY IDOCK:   -4.11 KCAL/MOL
REMARK 922        TOTAL FREE ENERGY PREDICTED BY IDOCK:   -4.39 KCAL/MOL
REMARK 923 INTER-LIGAND FREE ENERGY PREDICTED BY IDOCK:   -4.42 KCAL/MOL
REMARK 924 INTRA-LIGAND FREE ENERGY PREDICTED BY IDOCK:    0.02 KCAL/MOL
REMARK 927      BINDING AFFINITY PREDICTED BY RF-SCORE:    0.00 PKD
ROOT
HETATM    1  C   UNL     1     -10.868   9.545  69.388  1.00  0.00    -0.206 C  
HETATM    2  C   UNL     1      -9.602  10.364  69.739  1.00  0.00    -0.067 C  
HETATM    3  C   UNL     1      -8.636  10.291  68.608  1.00  0.00    -0.128 A  
HETATM    4  C   UNL     1      -8.729   9.307  67.643  1.00  0.00    -0.116 A  
HETATM    5  N   UNL     1      -7.745   9.541  66.717  1.00  0.00    -0.098 NA 
HETATM    6  C   UNL     1      -9.764   8.202  67.566  1.00  0.00    -0.161 C  
HETATM    7  N   UNL     1     -10.525   8.202  68.854  1.00  0.00    -0.209 N  
HETATM    8  O   UNL     1     -12.213  10.746  70.984  1.00  0.00    -0.342 OA 
HETATM    9  C   UNL     1      -6.967  10.609  67.116  1.00  0.00    -0.088 A  
HETATM   10  H   UNL     1      -7.608   9.004  65.860  1.00  0.00     0.000 HD 
HETATM   11  C   UNL     1     -10.733   7.070  69.623  1.00  0.00    -0.241 C  
HETATM   12  C   UNL     1      -5.829  11.163  66.518  1.00  0.00    -0.143 A  
HETATM   13  C   UNL     1      -7.517  11.107  68.298  1.00  0.00    -0.094 A  
HETATM   14  C   UNL     1      -5.237  12.262  67.150  1.00  0.00    -0.053 A  
HETATM   15  O   UNL     1     -10.279   5.952  69.384  1.00  0.00    -0.183 OA 
HETATM   16  C   UNL     1     -13.067   8.539  72.348  1.00  0.00    -0.297 C  
HETATM   17  C   UNL     1     -11.608   7.211  70.861  1.00  0.00    -0.311 C  
HETATM   18  C   UNL     1     -11.840   9.648  70.568  1.00  0.00    -0.215 C  
HETATM   19  C   UNL     1      -5.769  12.787  68.324  1.00  0.00    -0.069 A  
HETATM   20  N   UNL     1     -12.265   8.469  71.141  1.00  0.00    -0.271 N  
HETATM   21  C   UNL     1      -6.910  12.223  68.906  1.00  0.00    -0.096 A  
ENDROOT
BRANCH   6  22
HETATM   22  C   UNL     1      -9.215   6.864  67.090  1.00  0.00    -0.153 A  
HETATM   23  C   UNL     1      -7.538   5.069  67.193  1.00  0.00    -0.088 A  
HETATM   24  C   UNL     1      -8.381   4.301  66.421  1.00  0.00    -0.105 A  
HETATM   25  C   UNL     1      -9.588   4.780  65.971  1.00  0.00    -0.180 A  
HETATM   26  C   UNL     1      -9.407   2.712  65.384  1.00  0.00    -0.060 C  
HETATM   27  C   UNL     1     -10.023   6.054  66.266  1.00  0.00    -0.085 A  
HETATM   28  O   UNL     1      -8.161   3.013  66.044  1.00  0.00    -0.084 OA 
HETATM   29  C   UNL     1      -7.968   6.353  67.543  1.00  0.00    -0.116 A  
HETATM   30  O   UNL     1     -10.282   3.851  65.258  1.00  0.00    -0.159 OA 
ENDBRANCH   6  22
TORSDOF 1
ENDMDL
MODEL       97
REMARK 921   NORMALIZED FREE ENERGY PREDICTED BY IDOCK:   -4.07 KCAL/MOL
REMARK 922        TOTAL FREE ENERGY PREDICTED BY IDOCK:   -4.35 KCAL/MOL
REMARK 923 INTER-LIGAND FREE ENERGY PREDICTED BY IDOCK:   -4.38 KCAL/MOL
REMARK 924 INTRA-LIGAND FREE ENERGY PREDICTED BY IDOCK:    0.02 KCAL/MOL
REMARK 927      BINDING AFFINITY PREDICTED BY RF-SCORE:    0.00 PKD
ROOT
HETATM    1  C   UNL     1      -8.398   8.266  66.882  1.00  0.00    -0.114 C  
HETATM    2  C   UNL     1      -7.840   7.292  65.817  1.00  0.00    -0.108 C  
HETATM    3  C   UNL     1      -8.697   6.075  65.761  1.00  0.00    -0.155 A  
HETATM    4  C   UNL     1      -9.556   5.750  66.793  1.00  0.00    -0.147 A  
HETATM    5  N   UNL     1     -10.241   4.621  66.422  1.00  0.00    -0.263 NA 
HETATM    6  C   UNL     1      -9.766   6.522  68.080  1.00  0.00    -0.118 C  
HETATM    7  N   UNL     1      -8.702   7.570  68.160  1.00  0.00    -0.123 N  
HETATM    8  O   UNL     1      -7.292  10.156  65.883  1.00  0.00    -0.109 OA 
HETATM    9  C   UNL     1      -9.776   4.167  65.204  1.00  0.00    -0.197 A  
HETATM   10  H   UNL     1     -10.984   4.181  66.965  1.00  0.00     0.000 HD 
HETATM   11  C   UNL     1      -7.896   7.762  69.269  1.00  0.00    -0.116 C  
HETATM   12  C   UNL     1     -10.139   3.031  64.471  1.00  0.00     0.002 A  
HETATM   13  C   UNL     1      -8.813   5.074  64.760  1.00  0.00    -0.128 A  
HETATM   14  C   UNL     1      -9.496   2.817  63.247  1.00  0.00    -0.095 A  
HETATM   15  O   UNL     1      -7.910   7.075  70.289  1.00  0.00    -0.101 OA 
HETATM   16  C   UNL     1      -5.959  10.925  68.139  1.00  0.00    -0.049 C  
HETATM   17  C   UNL     1      -6.920   8.931  69.236  1.00  0.00    -0.057 C  
HETATM   18  C   UNL     1      -7.497   9.505  66.909  1.00  0.00    -0.094 C  
HETATM   19  C   UNL     1      -8.539   3.710  62.775  1.00  0.00    -0.086 A  
HETATM   20  N   UNL     1      -6.929   9.847  68.115  1.00  0.00    -0.075 N  
HETATM   21  C   UNL     1      -8.191   4.844  63.518  1.00  0.00    -0.111 A  
ENDROOT
BRANCH   6  22
HETATM   22  C   UNL     1      -9.965   5.646  69.309  1.00  0.00    -0.251 A  
HETATM   23  C   UNL     1      -9.305   3.748  70.726  1.00  0.00    -0.218 A  
HETATM   24  C   UNL     1     -10.158   4.234  71.692  1.00  0.00    -0.146 A  
HETATM   25  C   UNL     1     -10.911   5.365  71.491  1.00  0.00    -0.148 A  
HETATM   26  C   UNL     1     -11.221   4.684  73.515  1.00  0.00    -0.316 C  
HETATM   27  C   UNL     1     -10.855   6.078  70.313  1.00  0.00    -0.398 A  
HETATM   28  O   UNL     1     -10.338   3.704  72.932  1.00  0.00    -0.156 OA 
HETATM   29  C   UNL     1      -9.197   4.471  69.533  1.00  0.00    -0.192 A  
HETATM   30  O   UNL     1     -11.656   5.694  72.581  1.00  0.00    -0.307 OA 
ENDBRANCH   6  22
TORSDOF 1
ENDMDL
MODEL       98
REMARK 921   NORMALIZED FREE ENERGY PREDICTED BY IDOCK:   -4.00 KCAL/MOL
REMARK 922        TOTAL FREE ENERGY PREDICTED BY IDOCK:   -4.28 KCAL/MOL
REMARK 923 INTER-LIGAND FREE ENERGY PREDICTED BY IDOCK:   -4.19 KCAL/MOL
REMARK 924 INTRA-LIGAND FREE ENERGY PREDICTED BY IDOCK:   -0.09 KCAL/MOL
REMARK 927      BINDING AFFINITY PREDICTED BY RF-SCORE:    0.00 PKD
ROOT
HETATM    1  C   UNL     1      -6.870   8.564  65.080  1.00  0.00    -0.068 C  
HETATM    2  C   UNL     1      -8.247   9.176  64.726  1.00  0.00    -0.150 C  
HETATM    3  C   UNL     1      -8.852   9.774  65.949  1.00  0.00    -0.175 A  
HETATM    4  C   UNL     1      -8.414   9.429  67.213  1.00  0.00    -0.125 A  
HETATM    5  N   UNL     1      -9.119  10.183  68.116  1.00  0.00    -0.127 NA 
HETATM    6  C   UNL     1      -7.311   8.448  67.558  1.00  0.00    -0.093 C  
HETATM    7  N   UNL     1      -6.939   7.723  66.303  1.00  0.00    -0.062 N  
HETATM    8  O   UNL     1      -6.125   8.658  62.793  1.00  0.00    -0.086 OA 
HETATM    9  C   UNL     1     -10.063  10.945  67.458  1.00  0.00    -0.184 A  
HETATM   10  H   UNL     1      -8.969  10.180  69.125  1.00  0.00     0.000 HD 
HETATM   11  C   UNL     1      -6.860   6.344  66.208  1.00  0.00    -0.057 C  
HETATM   12  C   UNL     1     -11.032  11.814  67.972  1.00  0.00    -0.274 A  
HETATM   13  C   UNL     1      -9.905  10.716  66.091  1.00  0.00    -0.268 A  
HETATM   14  C   UNL     1     -11.865  12.468  67.058  1.00  0.00    -0.394 A  
HETATM   15  O   UNL     1      -7.136   5.550  67.106  1.00  0.00    -0.070 OA 
HETATM   16  C   UNL     1      -5.503   6.005  62.593  1.00  0.00    -0.021 C  
HETATM   17  C   UNL     1      -6.377   5.755  64.889  1.00  0.00    -0.037 C  
HETATM   18  C   UNL     1      -6.275   7.965  63.801  1.00  0.00    -0.062 C  
HETATM   19  C   UNL     1     -11.724  12.267  65.688  1.00  0.00    -0.440 A  
HETATM   20  N   UNL     1      -5.929   6.633  63.829  1.00  0.00    -0.030 N  
HETATM   21  C   UNL     1     -10.746  11.397  65.190  1.00  0.00    -0.332 A  
ENDROOT
BRANCH   6  22
HETATM   22  C   UNL     1      -7.594   7.597  68.788  1.00  0.00    -0.102 A  
HETATM   23  C   UNL     1      -6.876   6.570  70.903  1.00  0.00    -0.063 A  
HETATM   24  C   UNL     1      -8.199   6.288  71.162  1.00  0.00    -0.123 A  
HETATM   25  C   UNL     1      -9.195   6.617  70.275  1.00  0.00    -0.156 A  
HETATM   26  C   UNL     1     -10.101   5.786  72.048  1.00  0.00    -0.185 C  
HETATM   27  C   UNL     1      -8.929   7.248  69.079  1.00  0.00    -0.134 A  
HETATM   28  O   UNL     1      -8.681   5.703  72.291  1.00  0.00    -0.131 OA 
HETATM   29  C   UNL     1      -6.576   7.245  69.716  1.00  0.00    -0.040 A  
HETATM   30  O   UNL     1     -10.432   6.286  70.737  1.00  0.00    -0.205 OA 
ENDBRANCH   6  22
TORSDOF 1
ENDMDL
MODEL       99
REMARK 921   NORMALIZED FREE ENERGY PREDICTED BY IDOCK:   -3.95 KCAL/MOL
REMARK 922        TOTAL FREE ENERGY PREDICTED BY IDOCK:   -4.23 KCAL/MOL
REMARK 923 INTER-LIGAND FREE ENERGY PREDICTED BY IDOCK:   -4.85 KCAL/MOL
REMARK 924 INTRA-LIGAND FREE ENERGY PREDICTED BY IDOCK:    0.62 KCAL/MOL
REMARK 927      BINDING AFFINITY PREDICTED BY RF-SCORE:    0.00 PKD
ROOT
HETATM    1  C   UNL     1     -11.128   5.763  71.565  1.00  0.00    -0.214 C  
HETATM    2  C   UNL     1     -11.337   7.205  72.087  1.00  0.00    -0.301 C  
HETATM    3  C   UNL     1     -11.367   8.148  70.935  1.00  0.00    -0.286 A  
HETATM    4  C   UNL     1     -10.863   7.793  69.699  1.00  0.00    -0.184 A  
HETATM    5  N   UNL     1     -11.086   8.842  68.843  1.00  0.00    -0.426 NA 
HETATM    6  C   UNL     1     -10.233   6.468  69.319  1.00  0.00    -0.187 C  
HETATM    7  N   UNL     1     -10.020   5.688  70.578  1.00  0.00    -0.193 N  
HETATM    8  O   UNL     1     -12.051   4.795  73.568  1.00  0.00     0.042 OA 
HETATM    9  C   UNL     1     -11.650   9.898  69.530  1.00  0.00     0.001 A  
HETATM   10  H   UNL     1     -10.868   8.841  67.847  1.00  0.00     0.000 HD 
HETATM   11  C   UNL     1      -8.816   5.101  70.922  1.00  0.00    -0.134 C  
HETATM   12  C   UNL     1     -11.996  11.178  69.082  1.00  0.00    -0.413 A  
HETATM   13  C   UNL     1     -11.849   9.481  70.847  1.00  0.00    -0.385 A  
HETATM   14  C   UNL     1     -12.563  12.057  70.010  1.00  0.00     0.060 A  
HETATM   15  O   UNL     1      -7.769   5.189  70.282  1.00  0.00    -0.068 OA 
HETATM   16  C   UNL     1      -9.888   3.229  74.144  1.00  0.00    -0.115 C  
HETATM   17  C   UNL     1      -8.780   4.259  72.191  1.00  0.00    -0.108 C  
HETATM   18  C   UNL     1     -11.108   4.821  72.774  1.00  0.00    -0.170 C  
HETATM   19  C   UNL     1     -12.783  11.666  71.328  1.00  0.00    -0.444 A  
HETATM   20  N   UNL     1      -9.999   4.021  72.933  1.00  0.00    -0.141 N  
HETATM   21  C   UNL     1     -12.435  10.380  71.759  1.00  0.00    -0.400 A  
ENDROOT
BRANCH   6  22
HETATM   22  C   UNL     1      -9.046   6.588  68.373  1.00  0.00    -0.123 A  
HETATM   23  C   UNL     1      -7.540   5.633  66.681  1.00  0.00    -0.092 A  
HETATM   24  C   UNL     1      -7.067   6.906  66.451  1.00  0.00    -0.074 A  
HETATM   25  C   UNL     1      -7.533   7.989  67.155  1.00  0.00    -0.092 A  
HETATM   26  C   UNL     1      -6.150   8.689  65.654  1.00  0.00    -0.052 C  
HETATM   27  C   UNL     1      -8.499   7.865  68.130  1.00  0.00    -0.124 A  
HETATM   28  O   UNL     1      -6.143   7.253  65.516  1.00  0.00    -0.036 OA 
HETATM   29  C   UNL     1      -8.549   5.479  67.637  1.00  0.00    -0.108 A  
HETATM   30  O   UNL     1      -6.965   9.157  66.748  1.00  0.00    -0.079 OA 
ENDBRANCH   6  22
TORSDOF 1
ENDMDL
MODEL      100
REMARK 921   NORMALIZED FREE ENERGY PREDICTED BY IDOCK:   -3.79 KCAL/MOL
REMARK 922        TOTAL FREE ENERGY PREDICTED BY IDOCK:   -4.06 KCAL/MOL
REMARK 923 INTER-LIGAND FREE ENERGY PREDICTED BY IDOCK:   -3.93 KCAL/MOL
REMARK 924 INTRA-LIGAND FREE ENERGY PREDICTED BY IDOCK:   -0.13 KCAL/MOL
REMARK 927      BINDING AFFINITY PREDICTED BY RF-SCORE:    0.00 PKD
ROOT
HETATM    1  C   UNL     1      -8.379  10.567  68.649  1.00  0.00    -0.132 C  
HETATM    2  C   UNL     1      -9.549  10.150  69.572  1.00  0.00    -0.243 C  
HETATM    3  C   UNL     1      -9.420   8.706  69.914  1.00  0.00    -0.168 A  
HETATM    4  C   UNL     1      -8.629   7.856  69.166  1.00  0.00    -0.138 A  
HETATM    5  N   UNL     1      -8.670   6.620  69.761  1.00  0.00    -0.139 NA 
HETATM    6  C   UNL     1      -7.804   8.217  67.947  1.00  0.00    -0.122 C  
HETATM    7  N   UNL     1      -8.185   9.603  67.534  1.00  0.00    -0.114 N  
HETATM    8  O   UNL     1      -8.618  12.892  69.224  1.00  0.00     0.568 OA 
HETATM    9  C   UNL     1      -9.543   6.642  70.830  1.00  0.00    -0.175 A  
HETATM   10  H   UNL     1      -8.136   5.806  69.458  1.00  0.00     0.000 HD 
HETATM   11  C   UNL     1      -8.541   9.949  66.243  1.00  0.00    -0.128 C  
HETATM   12  C   UNL     1      -9.939   5.608  71.687  1.00  0.00    -0.222 A  
HETATM   13  C   UNL     1     -10.017   7.948  70.956  1.00  0.00    -0.200 A  
HETATM   14  C   UNL     1     -10.847   5.922  72.703  1.00  0.00    -0.290 A  
HETATM   15  O   UNL     1      -8.645   9.169  65.298  1.00  0.00    -0.147 OA 
HETATM   16  C   UNL     1      -8.900  13.787  66.659  1.00  0.00    -0.067 C  
HETATM   17  C   UNL     1      -8.813  11.420  65.957  1.00  0.00    -0.174 C  
HETATM   18  C   UNL     1      -8.540  12.055  68.323  1.00  0.00    -0.174 C  
HETATM   19  C   UNL     1     -11.330   7.218  72.859  1.00  0.00    -0.290 A  
HETATM   20  N   UNL     1      -8.601  12.408  66.993  1.00  0.00    -0.193 N  
HETATM   21  C   UNL     1     -10.921   8.241  71.996  1.00  0.00    -0.374 A  
ENDROOT
BRANCH   6  22
HETATM   22  C   UNL     1      -7.797   7.151  66.859  1.00  0.00    -0.107 A  
HETATM   23  C   UNL     1      -6.598   5.720  65.259  1.00  0.00    -0.043 A  
HETATM   24  C   UNL     1      -7.767   5.012  65.089  1.00  0.00    -0.083 A  
HETATM   25  C   UNL     1      -8.923   5.353  65.749  1.00  0.00    -0.158 A  
HETATM   26  C   UNL     1      -9.281   3.547  64.623  1.00  0.00    -0.139 C  
HETATM   27  C   UNL     1      -8.978   6.421  66.618  1.00  0.00    -0.145 A  
HETATM   28  O   UNL     1      -7.921   3.910  64.306  1.00  0.00    -0.084 OA 
HETATM   29  C   UNL     1      -6.612   6.786  66.165  1.00  0.00    -0.051 A  
HETATM   30  O   UNL     1      -9.949   4.504  65.470  1.00  0.00    -0.195 OA 
ENDBRANCH   6  22
TORSDOF 1
ENDMDL
MODEL      101
REMARK 921   NORMALIZED FREE ENERGY PREDICTED BY IDOCK:   -3.57 KCAL/MOL
REMARK 922        TOTAL FREE ENERGY PREDICTED BY IDOCK:   -3.83 KCAL/MOL
REMARK 923 INTER-LIGAND FREE ENERGY PREDICTED BY IDOCK:   -3.79 KCAL/MOL
REMARK 924 INTRA-LIGAND FREE ENERGY PREDICTED BY IDOCK:   -0.04 KCAL/MOL
REMARK 927      BINDING AFFINITY PREDICTED BY RF-SCORE:    0.00 PKD
ROOT
HETATM    1  C   UNL     1      -8.749  11.794  65.271  1.00  0.00     0.442 C  
HETATM    2  C   UNL     1     -10.020  12.545  65.736  1.00  0.00    -0.272 C  
HETATM    3  C   UNL     1      -9.799  13.091  67.104  1.00  0.00    -0.230 A  
HETATM    4  C   UNL     1      -8.791  12.611  67.918  1.00  0.00    -0.182 A  
HETATM    5  N   UNL     1      -8.808  13.347  69.076  1.00  0.00    -0.297 NA 
HETATM    6  C   UNL     1      -7.796  11.518  67.586  1.00  0.00    -0.125 C  
HETATM    7  N   UNL     1      -8.243  10.867  66.316  1.00  0.00    -0.162 N  
HETATM    8  O   UNL     1      -9.349  12.007  62.948  1.00  0.00    -0.257 OA 
HETATM    9  C   UNL     1      -9.865  14.235  69.054  1.00  0.00    -0.067 A  
HETATM   10  H   UNL     1      -8.139  13.251  69.840  1.00  0.00     0.000 HD 
HETATM   11  C   UNL     1      -8.384   9.499  66.163  1.00  0.00    -0.115 C  
HETATM   12  C   UNL     1     -10.298  15.138  70.031  1.00  0.00    -0.180 A  
HETATM   13  C   UNL     1     -10.495  14.103  67.816  1.00  0.00    -0.246 A  
HETATM   14  C   UNL     1     -11.412  15.929  69.732  1.00  0.00    -0.342 A  
HETATM   15  O   UNL     1      -8.220   8.661  67.049  1.00  0.00    -0.105 OA 
HETATM   16  C   UNL     1      -9.237   9.337  62.384  1.00  0.00     0.027 C  
HETATM   17  C   UNL     1      -8.757   8.979  64.781  1.00  0.00    -0.153 C  
HETATM   18  C   UNL     1      -9.009  11.252  63.861  1.00  0.00     0.092 C  
HETATM   19  C   UNL     1     -12.056  15.827  68.502  1.00  0.00     0.045 A  
HETATM   20  N   UNL     1      -8.856   9.897  63.667  1.00  0.00    -0.218 N  
HETATM   21  C   UNL     1     -11.606  14.922  67.534  1.00  0.00    -0.355 A  
ENDROOT
BRANCH   6  22
HETATM   22  C   UNL     1      -7.465  10.598  68.753  1.00  0.00    -0.104 A  
HETATM   23  C   UNL     1      -5.845   9.591  70.305  1.00  0.00    -0.044 A  
HETATM   24  C   UNL     1      -6.911   9.148  71.056  1.00  0.00    -0.099 A  
HETATM   25  C   UNL     1      -8.211   9.388  70.680  1.00  0.00    -0.168 A  
HETATM   26  C   UNL     1      -8.221   8.396  72.596  1.00  0.00    -0.126 C  
HETATM   27  C   UNL     1      -8.522  10.086  69.533  1.00  0.00    -0.186 A  
HETATM   28  O   UNL     1      -6.827   8.471  72.233  1.00  0.00    -0.093 OA 
HETATM   29  C   UNL     1      -6.127  10.337  69.155  1.00  0.00    -0.037 A  
HETATM   30  O   UNL     1      -9.109   8.898  71.577  1.00  0.00    -0.233 OA 
ENDBRANCH   6  22
TORSDOF 1
ENDMDL
MODEL      102
REMARK 921   NORMALIZED FREE ENERGY PREDICTED BY IDOCK:   -3.52 KCAL/MOL
REMARK 922        TOTAL FREE ENERGY PREDICTED BY IDOCK:   -3.77 KCAL/MOL
REMARK 923 INTER-LIGAND FREE ENERGY PREDICTED BY IDOCK:   -3.66 KCAL/MOL
REMARK 924 INTRA-LIGAND FREE ENERGY PREDICTED BY IDOCK:   -0.12 KCAL/MOL
REMARK 927      BINDING AFFINITY PREDICTED BY RF-SCORE:    0.00 PKD
ROOT
HETATM    1  C   UNL     1      -9.295  13.054  65.586  1.00  0.00     0.220 C  
HETATM    2  C   UNL     1      -9.002  13.769  66.927  1.00  0.00    -0.234 C  
HETATM    3  C   UNL     1      -7.940  13.028  67.662  1.00  0.00    -0.169 A  
HETATM    4  C   UNL     1      -7.627  11.719  67.351  1.00  0.00    -0.143 A  
HETATM    5  N   UNL     1      -6.582  11.341  68.155  1.00  0.00    -0.057 NA 
HETATM    6  C   UNL     1      -8.266  10.861  66.277  1.00  0.00    -0.165 C  
HETATM    7  N   UNL     1      -9.469  11.589  65.769  1.00  0.00    -0.232 N  
HETATM    8  O   UNL     1     -10.237  15.043  64.611  1.00  0.00    -0.208 OA 
HETATM    9  C   UNL     1      -6.274  12.358  69.036  1.00  0.00    -0.083 A  
HETATM   10  H   UNL     1      -6.104  10.441  68.109  1.00  0.00     0.000 HD 
HETATM   11  C   UNL     1     -10.725  11.017  65.663  1.00  0.00    -0.148 C  
HETATM   12  C   UNL     1      -5.325  12.397  70.064  1.00  0.00    -0.103 A  
HETATM   13  C   UNL     1      -7.106  13.437  68.736  1.00  0.00    -0.101 A  
HETATM   14  C   UNL     1      -5.225  13.578  70.807  1.00  0.00    -0.129 A  
HETATM   15  O   UNL     1     -11.022   9.878  66.020  1.00  0.00     0.232 OA 
HETATM   16  C   UNL     1     -12.633  13.917  63.937  1.00  0.00     0.003 C  
HETATM   17  C   UNL     1     -11.832  11.857  65.040  1.00  0.00    -0.146 C  
HETATM   18  C   UNL     1     -10.385  13.844  64.855  1.00  0.00    -0.406 C  
HETATM   19  C   UNL     1      -6.034  14.675  70.524  1.00  0.00    -0.172 A  
HETATM   20  N   UNL     1     -11.527  13.163  64.497  1.00  0.00    -0.337 N  
HETATM   21  C   UNL     1      -6.976  14.619  69.489  1.00  0.00    -0.165 A  
ENDROOT
BRANCH   6  22
HETATM   22  C   UNL     1      -8.458   9.403  66.674  1.00  0.00    -0.130 A  
HETATM   23  C   UNL     1      -8.274   7.001  66.188  1.00  0.00    -0.125 A  
HETATM   24  C   UNL     1      -8.545   6.759  67.516  1.00  0.00    -0.120 A  
HETATM   25  C   UNL     1      -8.788   7.780  68.403  1.00  0.00    -0.130 A  
HETATM   26  C   UNL     1      -8.775   5.915  69.489  1.00  0.00    -0.116 C  
HETATM   27  C   UNL     1      -8.773   9.102  68.015  1.00  0.00    -0.129 A  
HETATM   28  O   UNL     1      -8.575   5.536  68.111  1.00  0.00    -0.101 OA 
HETATM   29  C   UNL     1      -8.213   8.334  65.770  1.00  0.00    -0.123 A  
HETATM   30  O   UNL     1      -8.996   7.328  69.670  1.00  0.00    -0.141 OA 
ENDBRANCH   6  22
TORSDOF 1
ENDMDL
MODEL      103
REMARK 921   NORMALIZED FREE ENERGY PREDICTED BY IDOCK:   -3.31 KCAL/MOL
REMARK 922        TOTAL FREE ENERGY PREDICTED BY IDOCK:   -3.56 KCAL/MOL
REMARK 923 INTER-LIGAND FREE ENERGY PREDICTED BY IDOCK:   -3.60 KCAL/MOL
REMARK 924 INTRA-LIGAND FREE ENERGY PREDICTED BY IDOCK:    0.05 KCAL/MOL
REMARK 927      BINDING AFFINITY PREDICTED BY RF-SCORE:    0.00 PKD
ROOT
HETATM    1  C   UNL     1      -8.793  14.478  68.473  1.00  0.00    -0.182 C  
HETATM    2  C   UNL     1      -9.179  14.778  67.005  1.00  0.00    -0.248 C  
HETATM    3  C   UNL     1     -10.228  13.819  66.563  1.00  0.00    -0.284 A  
HETATM    4  C   UNL     1     -10.457  12.637  67.240  1.00  0.00    -0.228 A  
HETATM    5  N   UNL     1     -11.512  12.007  66.631  1.00  0.00    -0.422 NA 
HETATM    6  C   UNL     1      -9.730  12.140  68.474  1.00  0.00    -0.149 C  
HETATM    7  N   UNL     1      -8.548  13.029  68.694  1.00  0.00    -0.030 N  
HETATM    8  O   UNL     1      -7.920  16.697  68.806  1.00  0.00    -0.218 OA 
HETATM    9  C   UNL     1     -11.911  12.724  65.521  1.00  0.00    -0.449 A  
HETATM   10  H   UNL     1     -11.939  11.138  66.951  1.00  0.00     0.000 HD 
HETATM   11  C   UNL     1      -7.260  12.560  68.886  1.00  0.00    -0.050 C  
HETATM   12  C   UNL     1     -12.902  12.437  64.575  1.00  0.00    -0.305 A  
HETATM   13  C   UNL     1     -11.127  13.877  65.464  1.00  0.00    -0.304 A  
HETATM   14  C   UNL     1     -13.096  13.358  63.541  1.00  0.00     1.084 A  
HETATM   15  O   UNL     1      -6.916  11.380  68.844  1.00  0.00    -0.082 OA 
HETATM   16  C   UNL     1      -5.442  15.902  69.634  1.00  0.00    -0.121 C  
HETATM   17  C   UNL     1      -6.175  13.585  69.191  1.00  0.00    -0.097 C  
HETATM   18  C   UNL     1      -7.718  15.485  68.895  1.00  0.00    -0.175 C  
HETATM   19  C   UNL     1     -12.336  14.522  63.464  1.00  0.00     0.490 A  
HETATM   20  N   UNL     1      -6.527  14.978  69.366  1.00  0.00    -0.124 N  
HETATM   21  C   UNL     1     -11.351  14.796  64.421  1.00  0.00    -0.224 A  
ENDROOT
BRANCH   6  22
HETATM   22  C   UNL     1      -9.476  10.638  68.486  1.00  0.00    -0.176 A  
HETATM   23  C   UNL     1      -9.318   8.495  69.680  1.00  0.00    -0.157 A  
HETATM   24  C   UNL     1      -9.295   7.868  68.455  1.00  0.00    -0.140 A  
HETATM   25  C   UNL     1      -9.337   8.576  67.278  1.00  0.00    -0.149 A  
HETATM   26  C   UNL     1      -9.380   6.469  66.814  1.00  0.00    -0.156 C  
HETATM   27  C   UNL     1      -9.406   9.952  67.257  1.00  0.00    -0.167 A  
HETATM   28  O   UNL     1      -9.262   6.523  68.250  1.00  0.00    -0.119 OA 
HETATM   29  C   UNL     1      -9.427   9.890  69.693  1.00  0.00    -0.252 A  
HETATM   30  O   UNL     1      -9.343   7.766  66.185  1.00  0.00    -0.169 OA 
ENDBRANCH   6  22
TORSDOF 1
ENDMDL
MODEL      104
REMARK 921   NORMALIZED FREE ENERGY PREDICTED BY IDOCK:   -3.09 KCAL/MOL
REMARK 922        TOTAL FREE ENERGY PREDICTED BY IDOCK:   -3.32 KCAL/MOL
REMARK 923 INTER-LIGAND FREE ENERGY PREDICTED BY IDOCK:   -3.19 KCAL/MOL
REMARK 924 INTRA-LIGAND FREE ENERGY PREDICTED BY IDOCK:   -0.12 KCAL/MOL
REMARK 927      BINDING AFFINITY PREDICTED BY RF-SCORE:    0.00 PKD
ROOT
HETATM    1  C   UNL     1      -6.387   9.445  66.453  1.00  0.00    -0.065 C  
HETATM    2  C   UNL     1      -7.768   9.987  66.895  1.00  0.00    -0.096 C  
HETATM    3  C   UNL     1      -8.285   9.162  68.023  1.00  0.00    -0.112 A  
HETATM    4  C   UNL     1      -7.780   7.904  68.287  1.00  0.00    -0.121 A  
HETATM    5  N   UNL     1      -8.412   7.431  69.409  1.00  0.00    -0.132 NA 
HETATM    6  C   UNL     1      -6.682   7.186  67.529  1.00  0.00    -0.064 C  
HETATM    7  N   UNL     1      -6.402   7.969  66.285  1.00  0.00    -0.046 N  
HETATM    8  O   UNL     1      -5.779  11.539  65.432  1.00  0.00     0.111 OA 
HETATM    9  C   UNL     1      -9.376   8.329  69.820  1.00  0.00    -0.158 A  
HETATM   10  H   UNL     1      -8.202   6.546  69.870  1.00  0.00     0.000 HD 
HETATM   11  C   UNL     1      -6.361   7.410  65.020  1.00  0.00    -0.038 C  
HETATM   12  C   UNL     1     -10.292   8.242  70.875  1.00  0.00    -0.225 A  
HETATM   13  C   UNL     1      -9.306   9.434  68.972  1.00  0.00    -0.153 A  
HETATM   14  C   UNL     1     -11.163   9.320  71.066  1.00  0.00    -0.392 A  
HETATM   15  O   UNL     1      -6.600   6.234  64.751  1.00  0.00    -0.037 OA 
HETATM   16  C   UNL     1      -5.231  10.498  62.966  1.00  0.00    -0.156 C  
HETATM   17  C   UNL     1      -5.971   8.318  63.861  1.00  0.00    -0.067 C  
HETATM   18  C   UNL     1      -5.885  10.318  65.299  1.00  0.00    -0.125 C  
HETATM   19  C   UNL     1     -11.110  10.440  70.241  1.00  0.00    -0.379 A  
HETATM   20  N   UNL     1      -5.568   9.684  64.118  1.00  0.00    -0.072 N  
HETATM   21  C   UNL     1     -10.184  10.513  69.194  1.00  0.00    -0.241 A  
ENDROOT
BRANCH   6  22
HETATM   22  C   UNL     1      -6.910   5.690  67.366  1.00  0.00    -0.060 A  
HETATM   23  C   UNL     1      -6.119   3.366  67.510  1.00  0.00    -0.028 A  
HETATM   24  C   UNL     1      -7.424   2.961  67.340  1.00  0.00    -0.061 A  
HETATM   25  C   UNL     1      -8.445   3.864  67.167  1.00  0.00    -0.100 A  
HETATM   26  C   UNL     1      -9.289   1.880  67.260  1.00  0.00    -0.012 C  
HETATM   27  C   UNL     1      -8.223   5.223  67.153  1.00  0.00    -0.108 A  
HETATM   28  O   UNL     1      -7.864   1.674  67.354  1.00  0.00    -0.059 OA 
HETATM   29  C   UNL     1      -5.865   4.742  67.540  1.00  0.00    -0.022 A  
HETATM   30  O   UNL     1      -9.659   3.258  67.055  1.00  0.00    -0.173 OA 
ENDBRANCH   6  22
TORSDOF 1
ENDMDL
MODEL      105
REMARK 921   NORMALIZED FREE ENERGY PREDICTED BY IDOCK:   -2.84 KCAL/MOL
REMARK 922        TOTAL FREE ENERGY PREDICTED BY IDOCK:   -3.06 KCAL/MOL
REMARK 923 INTER-LIGAND FREE ENERGY PREDICTED BY IDOCK:   -2.95 KCAL/MOL
REMARK 924 INTRA-LIGAND FREE ENERGY PREDICTED BY IDOCK:   -0.10 KCAL/MOL
REMARK 927      BINDING AFFINITY PREDICTED BY RF-SCORE:    0.00 PKD
ROOT
HETATM    1  C   UNL     1      -8.648  16.682  66.931  1.00  0.00    -0.211 C  
HETATM    2  C   UNL     1      -8.010  17.005  68.303  1.00  0.00    -0.222 C  
HETATM    3  C   UNL     1      -7.614  15.736  68.976  1.00  0.00    -0.191 A  
HETATM    4  C   UNL     1      -8.140  14.520  68.587  1.00  0.00    -0.150 A  
HETATM    5  N   UNL     1      -7.543  13.547  69.348  1.00  0.00    -0.294 NA 
HETATM    6  C   UNL     1      -9.146  14.274  67.479  1.00  0.00    -0.193 C  
HETATM    7  N   UNL     1      -9.666  15.605  67.036  1.00  0.00    -0.224 N  
HETATM    8  O   UNL     1      -8.197  18.891  66.086  1.00  0.00    -0.377 OA 
HETATM    9  C   UNL     1      -6.704  14.127  70.278  1.00  0.00     0.084 A  
HETATM   10  H   UNL     1      -7.696  12.544  69.243  1.00  0.00     0.000 HD 
HETATM   11  C   UNL     1     -11.013  15.903  66.922  1.00  0.00    -0.172 C  
HETATM   12  C   UNL     1      -5.937  13.534  71.288  1.00  0.00     0.090 A  
HETATM   13  C   UNL     1      -6.720  15.504  70.055  1.00  0.00    -0.052 A  
HETATM   14  C   UNL     1      -5.165  14.377  72.094  1.00  0.00    -0.193 A  
HETATM   15  O   UNL     1     -11.938  15.149  67.220  1.00  0.00    -0.187 OA 
HETATM   16  C   UNL     1     -10.778  19.460  65.397  1.00  0.00     0.033 C  
HETATM   17  C   UNL     1     -11.387  17.271  66.368  1.00  0.00     0.979 C  
HETATM   18  C   UNL     1      -9.036  18.007  66.267  1.00  0.00    -0.178 C  
HETATM   19  C   UNL     1      -5.154  15.754  71.888  1.00  0.00     0.063 A  
HETATM   20  N   UNL     1     -10.352  18.165  65.893  1.00  0.00    -0.345 N  
HETATM   21  C   UNL     1      -5.923  16.330  70.870  1.00  0.00     0.498 A  
ENDROOT
BRANCH   6  22
HETATM   22  C   UNL     1     -10.178  13.201  67.798  1.00  0.00    -0.231 A  
HETATM   23  C   UNL     1     -11.355  11.117  67.239  1.00  0.00    -0.302 A  
HETATM   24  C   UNL     1     -11.850  11.106  68.523  1.00  0.00    -0.260 A  
HETATM   25  C   UNL     1     -11.553  12.103  69.421  1.00  0.00    -0.317 A  
HETATM   26  C   UNL     1     -12.723  10.595  70.429  1.00  0.00    -0.265 C  
HETATM   27  C   UNL     1     -10.744  13.168  69.089  1.00  0.00    -0.072 A  
HETATM   28  O   UNL     1     -12.636  10.137  69.064  1.00  0.00     0.361 OA 
HETATM   29  C   UNL     1     -10.498  12.164  66.882  1.00  0.00    -0.250 A  
HETATM   30  O   UNL     1     -12.111  11.883  70.643  1.00  0.00    -0.373 OA 
ENDBRANCH   6  22
TORSDOF 1
ENDMDL
MODEL      106
REMARK 921   NORMALIZED FREE ENERGY PREDICTED BY IDOCK:   -2.76 KCAL/MOL
REMARK 922        TOTAL FREE ENERGY PREDICTED BY IDOCK:   -2.96 KCAL/MOL
REMARK 923 INTER-LIGAND FREE ENERGY PREDICTED BY IDOCK:   -2.98 KCAL/MOL
REMARK 924 INTRA-LIGAND FREE ENERGY PREDICTED BY IDOCK:    0.02 KCAL/MOL
REMARK 927      BINDING AFFINITY PREDICTED BY RF-SCORE:    0.00 PKD
ROOT
HETATM    1  C   UNL     1      -7.304  11.362  68.004  1.00  0.00    -0.090 C  
HETATM    2  C   UNL     1      -7.516  10.620  69.346  1.00  0.00    -0.135 C  
HETATM    3  C   UNL     1      -6.954   9.245  69.245  1.00  0.00    -0.053 A  
HETATM    4  C   UNL     1      -6.697   8.659  68.021  1.00  0.00    -0.069 A  
HETATM    5  N   UNL     1      -6.137   7.430  68.259  1.00  0.00    -0.031 NA 
HETATM    6  C   UNL     1      -6.925   9.271  66.653  1.00  0.00    -0.081 C  
HETATM    7  N   UNL     1      -7.711  10.529  66.843  1.00  0.00    -0.110 N  
HETATM    8  O   UNL     1      -7.510  13.522  69.048  1.00  0.00    -0.065 OA 
HETATM    9  C   UNL     1      -6.106   7.181  69.616  1.00  0.00    -0.030 A  
HETATM   10  H   UNL     1      -5.793   6.794  67.539  1.00  0.00     0.000 HD 
HETATM   11  C   UNL     1      -8.865  10.827  66.140  1.00  0.00    -0.177 C  
HETATM   12  C   UNL     1      -5.676   6.045  70.311  1.00  0.00    -0.014 A  
HETATM   13  C   UNL     1      -6.603   8.315  70.259  1.00  0.00    -0.036 A  
HETATM   14  C   UNL     1      -5.757   6.072  71.707  1.00  0.00    -0.027 A  
HETATM   15  O   UNL     1      -9.417  10.087  65.327  1.00  0.00    -0.219 OA 
HETATM   16  C   UNL     1      -9.520  14.423  67.432  1.00  0.00    -0.207 C  
HETATM   17  C   UNL     1      -9.503  12.190  66.377  1.00  0.00    -0.233 C  
HETATM   18  C   UNL     1      -7.887  12.772  68.146  1.00  0.00    -0.146 C  
HETATM   19  C   UNL     1      -6.239   7.193  72.377  1.00  0.00    -0.044 A  
HETATM   20  N   UNL     1      -8.847  13.153  67.234  1.00  0.00    -0.200 N  
HETATM   21  C   UNL     1      -6.661   8.323  71.667  1.00  0.00    -0.061 A  
ENDROOT
BRANCH   6  22
HETATM   22  C   UNL     1      -7.436   8.290  65.606  1.00  0.00    -0.081 A  
HETATM   23  C   UNL     1      -7.478   7.431  63.303  1.00  0.00    -0.101 A  
HETATM   24  C   UNL     1      -8.151   6.327  63.776  1.00  0.00    -0.050 A  
HETATM   25  C   UNL     1      -8.484   6.196  65.103  1.00  0.00    -0.100 A  
HETATM   26  C   UNL     1      -9.058   4.391  64.069  1.00  0.00    -0.143 C  
HETATM   27  C   UNL     1      -8.163   7.160  66.034  1.00  0.00    -0.129 A  
HETATM   28  O   UNL     1      -8.531   5.251  63.037  1.00  0.00    -0.116 OA 
HETATM   29  C   UNL     1      -7.104   8.410  64.230  1.00  0.00    -0.082 A  
HETATM   30  O   UNL     1      -9.110   5.017  65.367  1.00  0.00    -0.157 OA 
ENDBRANCH   6  22
TORSDOF 1
ENDMDL
MODEL      107
REMARK 921   NORMALIZED FREE ENERGY PREDICTED BY IDOCK:   -2.53 KCAL/MOL
REMARK 922        TOTAL FREE ENERGY PREDICTED BY IDOCK:   -2.73 KCAL/MOL
REMARK 923 INTER-LIGAND FREE ENERGY PREDICTED BY IDOCK:   -5.08 KCAL/MOL
REMARK 924 INTRA-LIGAND FREE ENERGY PREDICTED BY IDOCK:    2.36 KCAL/MOL
REMARK 927      BINDING AFFINITY PREDICTED BY RF-SCORE:    0.00 PKD
ROOT
HETATM    1  C   UNL     1     -10.764   8.740  67.468  1.00  0.00    -0.143 C  
HETATM    2  C   UNL     1      -9.667   8.385  66.435  1.00  0.00    -0.312 C  
HETATM    3  C   UNL     1      -9.506   6.906  66.373  1.00  0.00    -0.170 A  
HETATM    4  C   UNL     1      -9.970   6.087  67.384  1.00  0.00    -0.141 A  
HETATM    5  N   UNL     1      -9.727   4.789  67.011  1.00  0.00    -0.171 NA 
HETATM    6  C   UNL     1     -10.679   6.519  68.653  1.00  0.00    -0.271 C  
HETATM    7  N   UNL     1     -10.574   8.008  68.747  1.00  0.00    -0.165 N  
HETATM    8  O   UNL     1     -11.148  10.898  66.472  1.00  0.00    -0.189 OA 
HETATM    9  C   UNL     1      -9.039   4.765  65.815  1.00  0.00    -0.142 A  
HETATM   10  H   UNL     1     -10.013   3.965  67.540  1.00  0.00     0.000 HD 
HETATM   11  C   UNL     1     -10.132   8.676  69.876  1.00  0.00    -0.194 C  
HETATM   12  C   UNL     1      -8.538   3.677  65.090  1.00  0.00    -0.113 A  
HETATM   13  C   UNL     1      -8.900   6.085  65.386  1.00  0.00    -0.042 A  
HETATM   14  C   UNL     1      -7.875   3.950  63.889  1.00  0.00    -0.084 A  
HETATM   15  O   UNL     1      -9.722   8.143  70.906  1.00  0.00    -0.163 OA 
HETATM   16  C   UNL     1     -10.728  12.339  68.755  1.00  0.00    -0.214 C  
HETATM   17  C   UNL     1     -10.170  10.198  69.854  1.00  0.00    -0.237 C  
HETATM   18  C   UNL     1     -10.906  10.265  67.502  1.00  0.00    -0.298 C  
HETATM   19  C   UNL     1      -7.730   5.257  63.431  1.00  0.00    -0.079 A  
HETATM   20  N   UNL     1     -10.744  10.889  68.719  1.00  0.00    -0.193 N  
HETATM   21  C   UNL     1      -8.241   6.332  64.166  1.00  0.00    -0.010 A  
ENDROOT
BRANCH   6  22
HETATM   22  C   UNL     1     -10.290   5.720  69.889  1.00  0.00    -0.330 A  
HETATM   23  C   UNL     1     -10.411   5.311  72.310  1.00  0.00    -0.273 A  
HETATM   24  C   UNL     1      -9.809   4.093  72.088  1.00  0.00    -0.169 A  
HETATM   25  C   UNL     1      -9.433   3.691  70.829  1.00  0.00    -0.168 A  
HETATM   26  C   UNL     1      -9.046   2.079  72.210  1.00  0.00    -0.075 C  
HETATM   27  C   UNL     1      -9.638   4.482  69.719  1.00  0.00    -0.270 A  
HETATM   28  O   UNL     1      -9.546   3.152  73.034  1.00  0.00    -0.097 OA 
HETATM   29  C   UNL     1     -10.669   6.121  71.199  1.00  0.00    -0.312 A  
HETATM   30  O   UNL     1      -8.891   2.442  70.823  1.00  0.00    -0.060 OA 
ENDBRANCH   6  22
TORSDOF 1
ENDMDL
MODEL      108
REMARK 921   NORMALIZED FREE ENERGY PREDICTED BY IDOCK:   -2.50 KCAL/MOL
REMARK 922        TOTAL FREE ENERGY PREDICTED BY IDOCK:   -2.69 KCAL/MOL
REMARK 923 INTER-LIGAND FREE ENERGY PREDICTED BY IDOCK:   -2.59 KCAL/MOL
REMARK 924 INTRA-LIGAND FREE ENERGY PREDICTED BY IDOCK:   -0.10 KCAL/MOL
REMARK 927      BINDING AFFINITY PREDICTED BY RF-SCORE:    0.00 PKD
ROOT
HETATM    1  C   UNL     1      -7.075   9.383  69.167  1.00  0.00    -0.062 C  
HETATM    2  C   UNL     1      -8.191   9.327  70.238  1.00  0.00    -0.187 C  
HETATM    3  C   UNL     1      -8.202   7.979  70.871  1.00  0.00    -0.103 A  
HETATM    4  C   UNL     1      -7.595   6.894  70.268  1.00  0.00    -0.091 A  
HETATM    5  N   UNL     1      -7.725   5.823  71.115  1.00  0.00    -0.106 NA 
HETATM    6  C   UNL     1      -6.857   6.884  68.944  1.00  0.00    -0.072 C  
HETATM    7  N   UNL     1      -7.109   8.197  68.273  1.00  0.00    -0.079 N  
HETATM    8  O   UNL     1      -6.978  11.788  69.247  1.00  0.00    -0.108 OA 
HETATM    9  C   UNL     1      -8.479   6.181  72.214  1.00  0.00    -0.116 A  
HETATM   10  H   UNL     1      -7.324   4.899  70.955  1.00  0.00     0.000 HD 
HETATM   11  C   UNL     1      -7.547   8.319  66.966  1.00  0.00    -0.092 C  
HETATM   12  C   UNL     1      -8.909   5.406  73.298  1.00  0.00    -0.118 A  
HETATM   13  C   UNL     1      -8.780   7.537  72.091  1.00  0.00    -0.140 A  
HETATM   14  C   UNL     1      -9.669   6.041  74.286  1.00  0.00    -0.221 A  
HETATM   15  O   UNL     1      -7.836   7.385  66.220  1.00  0.00    -0.100 OA 
HETATM   16  C   UNL     1      -7.403  12.174  66.576  1.00  0.00     0.352 C  
HETATM   17  C   UNL     1      -7.668   9.725  66.392  1.00  0.00    -0.102 C  
HETATM   18  C   UNL     1      -7.089  10.782  68.542  1.00  0.00    -0.070 C  
HETATM   19  C   UNL     1      -9.976   7.396  74.194  1.00  0.00    -0.033 A  
HETATM   20  N   UNL     1      -7.239  10.863  67.176  1.00  0.00    -0.098 N  
HETATM   21  C   UNL     1      -9.534   8.157  73.106  1.00  0.00    -0.316 A  
ENDROOT
BRANCH   6  22
HETATM   22  C   UNL     1      -7.084   5.629  68.112  1.00  0.00    -0.071 A  
HETATM   23  C   UNL     1      -6.236   3.798  66.708  1.00  0.00    -0.028 A  
HETATM   24  C   UNL     1      -7.465   3.190  66.840  1.00  0.00    -0.075 A  
HETATM   25  C   UNL     1      -8.485   3.769  67.555  1.00  0.00    -0.096 A  
HETATM   26  C   UNL     1      -9.132   1.821  66.887  1.00  0.00    -0.067 C  
HETATM   27  C   UNL     1      -8.337   4.987  68.182  1.00  0.00    -0.096 A  
HETATM   28  O   UNL     1      -7.810   1.977  66.332  1.00  0.00    -0.072 OA 
HETATM   29  C   UNL     1      -6.042   5.018  67.364  1.00  0.00    -0.030 A  
HETATM   30  O   UNL     1      -9.599   2.988  67.593  1.00  0.00    -0.190 OA 
ENDBRANCH   6  22
TORSDOF 1
ENDMDL
MODEL      109
REMARK 921   NORMALIZED FREE ENERGY PREDICTED BY IDOCK:   -2.49 KCAL/MOL
REMARK 922        TOTAL FREE ENERGY PREDICTED BY IDOCK:   -2.68 KCAL/MOL
REMARK 923 INTER-LIGAND FREE ENERGY PREDICTED BY IDOCK:   -3.97 KCAL/MOL
REMARK 924 INTRA-LIGAND FREE ENERGY PREDICTED BY IDOCK:    1.29 KCAL/MOL
REMARK 927      BINDING AFFINITY PREDICTED BY RF-SCORE:    0.00 PKD
ROOT
HETATM    1  C   UNL     1      -9.850  13.337  67.104  1.00  0.00    -0.237 C  
HETATM    2  C   UNL     1      -8.370  12.884  67.082  1.00  0.00    -0.158 C  
HETATM    3  C   UNL     1      -8.304  11.401  67.207  1.00  0.00    -0.149 A  
HETATM    4  C   UNL     1      -9.374  10.670  67.686  1.00  0.00    -0.146 A  
HETATM    5  N   UNL     1      -9.028   9.343  67.626  1.00  0.00    -0.119 NA 
HETATM    6  C   UNL     1     -10.716  11.209  68.137  1.00  0.00    -0.204 C  
HETATM    7  N   UNL     1     -10.606  12.699  68.213  1.00  0.00    -0.230 N  
HETATM    8  O   UNL     1      -9.336  15.421  66.013  1.00  0.00    -0.310 OA 
HETATM    9  C   UNL     1      -7.723   9.216  67.196  1.00  0.00    -0.098 A  
HETATM   10  H   UNL     1      -9.645   8.567  67.864  1.00  0.00     0.000 HD 
HETATM   11  C   UNL     1     -10.983  13.441  69.318  1.00  0.00    -0.109 C  
HETATM   12  C   UNL     1      -6.938   8.067  67.039  1.00  0.00    -0.074 A  
HETATM   13  C   UNL     1      -7.249  10.497  66.913  1.00  0.00    -0.106 A  
HETATM   14  C   UNL     1      -5.629   8.237  66.576  1.00  0.00    -0.035 A  
HETATM   15  O   UNL     1     -11.396  12.979  70.381  1.00  0.00     0.146 OA 
HETATM   16  C   UNL     1     -10.447  17.020  67.929  1.00  0.00    -0.354 C  
HETATM   17  C   UNL     1     -10.898  14.958  69.211  1.00  0.00    -0.266 C  
HETATM   18  C   UNL     1      -9.880  14.862  66.968  1.00  0.00    -0.237 C  
HETATM   19  C   UNL     1      -5.133   9.502  66.275  1.00  0.00    -0.039 A  
HETATM   20  N   UNL     1     -10.528  15.572  67.954  1.00  0.00    -0.260 N  
HETATM   21  C   UNL     1      -5.933  10.640  66.434  1.00  0.00    -0.098 A  
ENDROOT
BRANCH   6  22
HETATM   22  C   UNL     1     -11.299  10.498  69.351  1.00  0.00    -0.331 A  
HETATM   23  C   UNL     1     -11.048   9.041  71.315  1.00  0.00    -0.382 A  
HETATM   24  C   UNL     1     -12.304   9.441  71.714  1.00  0.00    -0.394 A  
HETATM   25  C   UNL     1     -13.056  10.315  70.967  1.00  0.00    -0.373 A  
HETATM   26  C   UNL     1     -14.119   9.880  72.794  1.00  0.00     0.627 C  
HETATM   27  C   UNL     1     -12.597  10.842  69.780  1.00  0.00    -0.150 A  
HETATM   28  O   UNL     1     -12.929   9.068  72.863  1.00  0.00    -0.328 OA 
HETATM   29  C   UNL     1     -10.537   9.589  70.134  1.00  0.00    -0.298 A  
HETATM   30  O   UNL     1     -14.248  10.608  71.556  1.00  0.00     0.738 OA 
ENDBRANCH   6  22
TORSDOF 1
ENDMDL
MODEL      110
REMARK 921   NORMALIZED FREE ENERGY PREDICTED BY IDOCK:   -2.26 KCAL/MOL
REMARK 922        TOTAL FREE ENERGY PREDICTED BY IDOCK:   -2.44 KCAL/MOL
REMARK 923 INTER-LIGAND FREE ENERGY PREDICTED BY IDOCK:   -3.45 KCAL/MOL
REMARK 924 INTRA-LIGAND FREE ENERGY PREDICTED BY IDOCK:    1.01 KCAL/MOL
REMARK 927      BINDING AFFINITY PREDICTED BY RF-SCORE:    0.00 PKD
ROOT
HETATM    1  C   UNL     1      -8.372   9.673  64.310  1.00  0.00    -0.168 C  
HETATM    2  C   UNL     1      -9.821  10.156  64.558  1.00  0.00    -0.334 C  
HETATM    3  C   UNL     1      -9.797  11.387  65.395  1.00  0.00    -0.277 A  
HETATM    4  C   UNL     1      -8.684  11.731  66.139  1.00  0.00    -0.057 A  
HETATM    5  N   UNL     1      -8.948  12.932  66.748  1.00  0.00    -0.317 NA 
HETATM    6  C   UNL     1      -7.377  10.969  66.227  1.00  0.00    -0.097 C  
HETATM    7  N   UNL     1      -7.579   9.642  65.567  1.00  0.00    -0.105 N  
HETATM    8  O   UNL     1      -9.013   8.424  62.354  1.00  0.00    -0.019 OA 
HETATM    9  C   UNL     1     -10.243  13.323  66.475  1.00  0.00    -0.283 A  
HETATM   10  H   UNL     1      -8.285  13.457  67.317  1.00  0.00     0.000 HD 
HETATM   11  C   UNL     1      -7.247   8.434  66.154  1.00  0.00    -0.077 C  
HETATM   12  C   UNL     1     -10.956  14.441  66.924  1.00  0.00    -0.308 A  
HETATM   13  C   UNL     1     -10.794  12.374  65.614  1.00  0.00    -0.312 A  
HETATM   14  C   UNL     1     -12.273  14.591  66.477  1.00  0.00    -0.268 A  
HETATM   15  O   UNL     1      -6.807   8.291  67.294  1.00  0.00    -0.068 OA 
HETATM   16  C   UNL     1      -8.002   6.033  63.205  1.00  0.00    -0.104 C  
HETATM   17  C   UNL     1      -7.425   7.172  65.319  1.00  0.00    -0.092 C  
HETATM   18  C   UNL     1      -8.435   8.411  63.443  1.00  0.00     0.018 C  
HETATM   19  C   UNL     1     -12.846  13.665  65.609  1.00  0.00    -0.425 A  
HETATM   20  N   UNL     1      -7.832   7.275  63.934  1.00  0.00    -0.125 N  
HETATM   21  C   UNL     1     -12.117  12.555  65.167  1.00  0.00    -0.503 A  
ENDROOT
BRANCH   6  22
HETATM   22  C   UNL     1      -6.752  10.960  67.616  1.00  0.00    -0.069 A  
HETATM   23  C   UNL     1      -5.157  11.851  69.261  1.00  0.00    -0.052 A  
HETATM   24  C   UNL     1      -5.820  11.128  70.226  1.00  0.00    -0.137 A  
HETATM   25  C   UNL     1      -6.895  10.328  69.921  1.00  0.00    -0.134 A  
HETATM   26  C   UNL     1      -6.613  10.313  72.060  1.00  0.00     1.666 C  
HETATM   27  C   UNL     1      -7.370  10.205  68.633  1.00  0.00    -0.082 A  
HETATM   28  O   UNL     1      -5.537  11.131  71.557  1.00  0.00    -0.353 OA 
HETATM   29  C   UNL     1      -5.639  11.779  67.950  1.00  0.00    -0.051 A  
HETATM   30  O   UNL     1      -7.427   9.731  71.022  1.00  0.00    -0.318 OA 
ENDBRANCH   6  22
TORSDOF 1
ENDMDL
MODEL      111
REMARK 921   NORMALIZED FREE ENERGY PREDICTED BY IDOCK:   -2.09 KCAL/MOL
REMARK 922        TOTAL FREE ENERGY PREDICTED BY IDOCK:   -2.26 KCAL/MOL
REMARK 923 INTER-LIGAND FREE ENERGY PREDICTED BY IDOCK:   -2.29 KCAL/MOL
REMARK 924 INTRA-LIGAND FREE ENERGY PREDICTED BY IDOCK:    0.02 KCAL/MOL
REMARK 927      BINDING AFFINITY PREDICTED BY RF-SCORE:    0.00 PKD
ROOT
HETATM    1  C   UNL     1      -7.460   9.205  68.227  1.00  0.00    -0.083 C  
HETATM    2  C   UNL     1      -7.799   9.078  69.733  1.00  0.00    -0.086 C  
HETATM    3  C   UNL     1      -7.001   7.971  70.328  1.00  0.00    -0.044 A  
HETATM    4  C   UNL     1      -6.415   6.999  69.540  1.00  0.00    -0.043 A  
HETATM    5  N   UNL     1      -5.709   6.164  70.367  1.00  0.00    -0.017 NA 
HETATM    6  C   UNL     1      -6.474   6.895  68.028  1.00  0.00    -0.050 C  
HETATM    7  N   UNL     1      -7.485   7.885  67.544  1.00  0.00    -0.092 N  
HETATM    8  O   UNL     1      -8.232  11.484  68.140  1.00  0.00    -0.134 OA 
HETATM    9  C   UNL     1      -5.901   6.533  71.683  1.00  0.00    -0.036 A  
HETATM   10  H   UNL     1      -5.128   5.385  70.056  1.00  0.00     0.000 HD 
HETATM   11  C   UNL     1      -8.514   7.568  66.675  1.00  0.00    -0.130 C  
HETATM   12  C   UNL     1      -5.426   5.941  72.860  1.00  0.00    -0.031 A  
HETATM   13  C   UNL     1      -6.700   7.677  71.684  1.00  0.00    -0.045 A  
HETATM   14  C   UNL     1      -5.779   6.540  74.073  1.00  0.00    -0.055 A  
HETATM   15  O   UNL     1      -8.762   6.443  66.243  1.00  0.00    -0.133 OA 
HETATM   16  C   UNL     1     -10.014  11.098  66.106  1.00  0.00    -0.229 C  
HETATM   17  C   UNL     1      -9.409   8.704  66.198  1.00  0.00    -0.226 C  
HETATM   18  C   UNL     1      -8.293  10.354  67.650  1.00  0.00    -0.114 C  
HETATM   19  C   UNL     1      -6.567   7.688  74.105  1.00  0.00    -0.096 A  
HETATM   20  N   UNL     1      -9.108  10.068  66.578  1.00  0.00    -0.146 N  
HETATM   21  C   UNL     1      -7.030   8.269  72.918  1.00  0.00    -0.124 A  
ENDROOT
BRANCH   6  22
HETATM   22  C   UNL     1      -6.596   5.471  67.504  1.00  0.00    -0.053 A  
HETATM   23  C   UNL     1      -7.679   3.264  67.511  1.00  0.00    -0.076 A  
HETATM   24  C   UNL     1      -7.000   2.979  66.348  1.00  0.00    -0.053 A  
HETATM   25  C   UNL     1      -6.132   3.879  65.778  1.00  0.00    -0.027 A  
HETATM   26  C   UNL     1      -6.289   2.160  64.482  1.00  0.00    -0.019 C  
HETATM   27  C   UNL     1      -5.892   5.116  66.336  1.00  0.00    -0.018 A  
HETATM   28  O   UNL     1      -7.114   1.836  65.620  1.00  0.00    -0.048 OA 
HETATM   29  C   UNL     1      -7.487   4.526  68.082  1.00  0.00    -0.065 A  
HETATM   30  O   UNL     1      -5.595   3.417  64.615  1.00  0.00    -0.009 OA 
ENDBRANCH   6  22
TORSDOF 1
ENDMDL
MODEL      112
REMARK 921   NORMALIZED FREE ENERGY PREDICTED BY IDOCK:   -1.81 KCAL/MOL
REMARK 922        TOTAL FREE ENERGY PREDICTED BY IDOCK:   -1.96 KCAL/MOL
REMARK 923 INTER-LIGAND FREE ENERGY PREDICTED BY IDOCK:   -2.17 KCAL/MOL
REMARK 924 INTRA-LIGAND FREE ENERGY PREDICTED BY IDOCK:    0.20 KCAL/MOL
REMARK 927      BINDING AFFINITY PREDICTED BY RF-SCORE:    0.00 PKD
ROOT
HETATM    1  C   UNL     1      -6.091  12.592  68.956  1.00  0.00    -0.085 C  
HETATM    2  C   UNL     1      -6.157  12.285  70.471  1.00  0.00     0.075 C  
HETATM    3  C   UNL     1      -6.021  10.817  70.685  1.00  0.00    -0.094 A  
HETATM    4  C   UNL     1      -6.235   9.916  69.660  1.00  0.00    -0.047 A  
HETATM    5  N   UNL     1      -5.979   8.661  70.150  1.00  0.00    -0.030 NA 
HETATM    6  C   UNL     1      -6.621  10.239  68.230  1.00  0.00    -0.057 C  
HETATM    7  N   UNL     1      -6.975  11.691  68.171  1.00  0.00    -0.067 N  
HETATM    8  O   UNL     1      -5.458  14.883  69.343  1.00  0.00    -0.091 OA 
HETATM    9  C   UNL     1      -5.684   8.734  71.497  1.00  0.00    -0.049 A  
HETATM   10  H   UNL     1      -6.002   7.802  69.601  1.00  0.00     0.000 HD 
HETATM   11  C   UNL     1      -8.145  12.173  67.612  1.00  0.00    -0.158 C  
HETATM   12  C   UNL     1      -5.413   7.710  72.412  1.00  0.00    -0.036 A  
HETATM   13  C   UNL     1      -5.691  10.082  71.854  1.00  0.00     0.191 A  
HETATM   14  C   UNL     1      -5.140   8.079  73.734  1.00  0.00    -0.041 A  
HETATM   15  O   UNL     1      -9.054  11.484  67.152  1.00  0.00    -0.161 OA 
HETATM   16  C   UNL     1      -7.491  15.985  67.889  1.00  0.00    -0.129 C  
HETATM   17  C   UNL     1      -8.322  13.685  67.542  1.00  0.00    -0.188 C  
HETATM   18  C   UNL     1      -6.229  14.108  68.774  1.00  0.00    -0.086 C  
HETATM   19  C   UNL     1      -5.130   9.418  74.117  1.00  0.00    -0.126 A  
HETATM   20  N   UNL     1      -7.246  14.557  67.962  1.00  0.00    -0.125 N  
HETATM   21  C   UNL     1      -5.399  10.429  73.187  1.00  0.00     0.425 A  
ENDROOT
BRANCH   6  22
HETATM   22  C   UNL     1      -7.612   9.262  67.614  1.00  0.00    -0.088 A  
HETATM   23  C   UNL     1      -8.171   7.505  65.987  1.00  0.00    -0.130 A  
HETATM   24  C   UNL     1      -9.335   7.289  66.691  1.00  0.00    -0.171 A  
HETATM   25  C   UNL     1      -9.657   8.030  67.802  1.00  0.00    -0.151 A  
HETATM   26  C   UNL     1     -11.160   6.505  67.534  1.00  0.00    -0.308 C  
HETATM   27  C   UNL     1      -8.836   9.031  68.275  1.00  0.00    -0.134 A  
HETATM   28  O   UNL     1     -10.265   6.335  66.416  1.00  0.00    -0.124 OA 
HETATM   29  C   UNL     1      -7.297   8.487  66.464  1.00  0.00    -0.084 A  
HETATM   30  O   UNL     1     -10.828   7.632  68.369  1.00  0.00    -0.098 OA 
ENDBRANCH   6  22
TORSDOF 1
ENDMDL
MODEL      113
REMARK 921   NORMALIZED FREE ENERGY PREDICTED BY IDOCK:   -0.85 KCAL/MOL
REMARK 922        TOTAL FREE ENERGY PREDICTED BY IDOCK:   -0.94 KCAL/MOL
REMARK 923 INTER-LIGAND FREE ENERGY PREDICTED BY IDOCK:   -1.69 KCAL/MOL
REMARK 924 INTRA-LIGAND FREE ENERGY PREDICTED BY IDOCK:    0.74 KCAL/MOL
REMARK 927      BINDING AFFINITY PREDICTED BY RF-SCORE:    0.00 PKD
ROOT
HETATM    1  C   UNL     1      -7.353   8.675  69.823  1.00  0.00    -0.052 C  
HETATM    2  C   UNL     1      -7.714   8.042  71.189  1.00  0.00    -0.087 C  
HETATM    3  C   UNL     1      -7.286   6.615  71.201  1.00  0.00    -0.079 A  
HETATM    4  C   UNL     1      -7.020   5.932  70.031  1.00  0.00    -0.066 A  
HETATM    5  N   UNL     1      -6.598   4.672  70.373  1.00  0.00    -0.034 NA 
HETATM    6  C   UNL     1      -7.107   6.476  68.619  1.00  0.00    -0.083 C  
HETATM    7  N   UNL     1      -7.773   7.814  68.687  1.00  0.00    -0.115 N  
HETATM    8  O   UNL     1      -7.403  10.906  70.728  1.00  0.00     0.530 OA 
HETATM    9  C   UNL     1      -6.670   4.507  71.741  1.00  0.00    -0.031 A  
HETATM   10  H   UNL     1      -6.279   3.963  69.713  1.00  0.00     0.000 HD 
HETATM   11  C   UNL     1      -8.850   8.176  67.898  1.00  0.00    -0.131 C  
HETATM   12  C   UNL     1      -6.396   3.381  72.525  1.00  0.00    -0.014 A  
HETATM   13  C   UNL     1      -7.088   5.722  72.287  1.00  0.00    -0.084 A  
HETATM   14  C   UNL     1      -6.553   3.502  73.910  1.00  0.00    -0.034 A  
HETATM   15  O   UNL     1      -9.425   7.443  67.094  1.00  0.00    -0.137 OA 
HETATM   16  C   UNL     1      -9.218  11.892  68.941  1.00  0.00     0.149 C  
HETATM   17  C   UNL     1      -9.362   9.606  68.016  1.00  0.00    -0.132 C  
HETATM   18  C   UNL     1      -7.801  10.140  69.848  1.00  0.00    -0.151 C  
HETATM   19  C   UNL     1      -6.959   4.704  74.483  1.00  0.00    -0.068 A  
HETATM   20  N   UNL     1      -8.664  10.554  68.858  1.00  0.00    -0.147 N  
HETATM   21  C   UNL     1      -7.225   5.822  73.685  1.00  0.00    -0.086 A  
ENDROOT
BRANCH   6  22
HETATM   22  C   UNL     1      -7.652   5.485  67.599  1.00  0.00    -0.088 A  
HETATM   23  C   UNL     1      -7.927   4.720  65.279  1.00  0.00    -0.096 A  
HETATM   24  C   UNL     1      -8.402   3.528  65.778  1.00  0.00    -0.106 A  
HETATM   25  C   UNL     1      -8.528   3.307  67.129  1.00  0.00    -0.100 A  
HETATM   26  C   UNL     1      -9.045   1.491  66.084  1.00  0.00    -0.041 C  
HETATM   27  C   UNL     1      -8.185   4.264  68.059  1.00  0.00    -0.093 A  
HETATM   28  O   UNL     1      -8.765   2.445  65.039  1.00  0.00    -0.102 OA 
HETATM   29  C   UNL     1      -7.533   5.698  66.199  1.00  0.00    -0.082 A  
HETATM   30  O   UNL     1      -8.979   2.054  67.410  1.00  0.00    -0.126 OA 
ENDBRANCH   6  22
TORSDOF 1
ENDMDL
MODEL      114
REMARK 921   NORMALIZED FREE ENERGY PREDICTED BY IDOCK:   -0.73 KCAL/MOL
REMARK 922        TOTAL FREE ENERGY PREDICTED BY IDOCK:   -0.82 KCAL/MOL
REMARK 923 INTER-LIGAND FREE ENERGY PREDICTED BY IDOCK:   -1.61 KCAL/MOL
REMARK 924 INTRA-LIGAND FREE ENERGY PREDICTED BY IDOCK:    0.79 KCAL/MOL
REMARK 927      BINDING AFFINITY PREDICTED BY RF-SCORE:    0.00 PKD
ROOT
HETATM    1  C   UNL     1      -9.307  11.962  65.774  1.00  0.00    -0.155 C  
HETATM    2  C   UNL     1      -8.570  13.195  66.349  1.00  0.00     0.289 C  
HETATM    3  C   UNL     1      -8.022  12.862  67.693  1.00  0.00    -0.167 A  
HETATM    4  C   UNL     1      -8.490  11.782  68.415  1.00  0.00    -0.155 A  
HETATM    5  N   UNL     1      -7.755  11.705  69.571  1.00  0.00    -0.292 NA 
HETATM    6  C   UNL     1      -9.573  10.807  67.997  1.00  0.00    -0.163 C  
HETATM    7  N   UNL     1     -10.229  11.356  66.770  1.00  0.00    -0.216 N  
HETATM    8  O   UNL     1      -9.100  12.764  63.513  1.00  0.00     0.867 OA 
HETATM    9  C   UNL     1      -6.878  12.769  69.642  1.00  0.00     0.178 A  
HETATM   10  H   UNL     1      -7.844  10.971  70.274  1.00  0.00     0.000 HD 
HETATM   11  C   UNL     1     -11.599  11.496  66.629  1.00  0.00    -0.013 C  
HETATM   12  C   UNL     1      -5.980  13.125  70.655  1.00  0.00    -0.070 A  
HETATM   13  C   UNL     1      -7.017  13.504  68.465  1.00  0.00    -0.102 A  
HETATM   14  C   UNL     1      -5.201  14.269  70.455  1.00  0.00    -0.101 A  
HETATM   15  O   UNL     1     -12.435  11.246  67.496  1.00  0.00     0.363 OA 
HETATM   16  C   UNL     1     -11.769  12.674  62.939  1.00  0.00     0.372 C  
HETATM   17  C   UNL     1     -12.123  11.983  65.284  1.00  0.00    -0.052 C  
HETATM   18  C   UNL     1      -9.852  12.339  64.392  1.00  0.00    -0.110 C  
HETATM   19  C   UNL     1      -5.310  15.017  69.285  1.00  0.00    -0.090 A  
HETATM   20  N   UNL     1     -11.205  12.189  64.184  1.00  0.00    -0.340 N  
HETATM   21  C   UNL     1      -6.210  14.644  68.281  1.00  0.00    -0.123 A  
ENDROOT
BRANCH   6  22
HETATM   22  C   UNL     1     -10.490  10.366  69.130  1.00  0.00    -0.248 A  
HETATM   23  C   UNL     1     -11.181   8.717  70.817  1.00  0.00    -0.309 A  
HETATM   24  C   UNL     1     -11.976   9.693  71.377  1.00  0.00    -0.399 A  
HETATM   25  C   UNL     1     -12.058  10.955  70.841  1.00  0.00    -0.349 A  
HETATM   26  C   UNL     1     -13.216  10.905  72.661  1.00  0.00     1.041 C  
HETATM   27  C   UNL     1     -11.350  11.317  69.715  1.00  0.00    -0.348 A  
HETATM   28  O   UNL     1     -12.727   9.557  72.503  1.00  0.00    -0.293 OA 
HETATM   29  C   UNL     1     -10.420   9.064  69.696  1.00  0.00    -0.227 A  
HETATM   30  O   UNL     1     -12.866  11.775  71.566  1.00  0.00    -0.401 OA 
ENDBRANCH   6  22
TORSDOF 1
ENDMDL
MODEL      115
REMARK 921   NORMALIZED FREE ENERGY PREDICTED BY IDOCK:   -0.66 KCAL/MOL
REMARK 922        TOTAL FREE ENERGY PREDICTED BY IDOCK:   -0.75 KCAL/MOL
REMARK 923 INTER-LIGAND FREE ENERGY PREDICTED BY IDOCK:   -0.65 KCAL/MOL
REMARK 924 INTRA-LIGAND FREE ENERGY PREDICTED BY IDOCK:   -0.10 KCAL/MOL
REMARK 927      BINDING AFFINITY PREDICTED BY RF-SCORE:    0.00 PKD
ROOT
HETATM    1  C   UNL     1      -7.843   9.514  70.411  1.00  0.00    -0.172 C  
HETATM    2  C   UNL     1      -7.594  10.954  69.902  1.00  0.00     0.241 C  
HETATM    3  C   UNL     1      -8.348  11.168  68.636  1.00  0.00    -0.154 A  
HETATM    4  C   UNL     1      -8.811  10.106  67.884  1.00  0.00    -0.125 A  
HETATM    5  N   UNL     1      -9.507  10.624  66.821  1.00  0.00    -0.160 NA 
HETATM    6  C   UNL     1      -8.648   8.632  68.193  1.00  0.00    -0.141 C  
HETATM    7  N   UNL     1      -7.681   8.510  69.328  1.00  0.00    -0.091 N  
HETATM    8  O   UNL     1      -7.232  10.095  72.667  1.00  0.00     2.055 OA 
HETATM    9  C   UNL     1      -9.427  12.002  66.831  1.00  0.00    -0.203 A  
HETATM   10  H   UNL     1     -10.010  10.072  66.126  1.00  0.00     0.000 HD 
HETATM   11  C   UNL     1      -6.578   7.675  69.309  1.00  0.00    -0.040 C  
HETATM   12  C   UNL     1      -9.933  12.937  65.921  1.00  0.00    -0.273 A  
HETATM   13  C   UNL     1      -8.713  12.370  67.972  1.00  0.00    -0.186 A  
HETATM   14  C   UNL     1      -9.702  14.290  66.189  1.00  0.00    -0.325 A  
HETATM   15  O   UNL     1      -6.223   6.981  68.357  1.00  0.00    -0.032 OA 
HETATM   16  C   UNL     1      -5.300   8.183  72.935  1.00  0.00    -0.042 C  
HETATM   17  C   UNL     1      -5.737   7.589  70.577  1.00  0.00    -0.027 C  
HETATM   18  C   UNL     1      -7.059   9.331  71.715  1.00  0.00     0.271 C  
HETATM   19  C   UNL     1      -9.002  14.688  67.325  1.00  0.00    -0.216 A  
HETATM   20  N   UNL     1      -6.159   8.290  71.771  1.00  0.00    -0.043 N  
HETATM   21  C   UNL     1      -8.506  13.739  68.227  1.00  0.00    -0.173 A  
ENDROOT
BRANCH   6  22
HETATM   22  C   UNL     1      -8.391   7.761  66.971  1.00  0.00    -0.117 A  
HETATM   23  C   UNL     1      -8.952   5.840  65.544  1.00  0.00    -0.088 A  
HETATM   24  C   UNL     1      -8.095   6.353  64.596  1.00  0.00    -0.100 A  
HETATM   25  C   UNL     1      -7.386   7.510  64.812  1.00  0.00    -0.080 A  
HETATM   26  C   UNL     1      -7.007   6.838  62.797  1.00  0.00    -0.048 C  
HETATM   27  C   UNL     1      -7.493   8.223  65.987  1.00  0.00    -0.077 A  
HETATM   28  O   UNL     1      -7.868   5.828  63.362  1.00  0.00    -0.090 OA 
HETATM   29  C   UNL     1      -9.112   6.560  66.732  1.00  0.00    -0.153 A  
HETATM   30  O   UNL     1      -6.629   7.863  63.738  1.00  0.00    -0.061 OA 
ENDBRANCH   6  22
TORSDOF 1
ENDMDL
MODEL      116
REMARK 921   NORMALIZED FREE ENERGY PREDICTED BY IDOCK:   -0.37 KCAL/MOL
REMARK 922        TOTAL FREE ENERGY PREDICTED BY IDOCK:   -0.44 KCAL/MOL
REMARK 923 INTER-LIGAND FREE ENERGY PREDICTED BY IDOCK:   -1.50 KCAL/MOL
REMARK 924 INTRA-LIGAND FREE ENERGY PREDICTED BY IDOCK:    1.06 KCAL/MOL
REMARK 927      BINDING AFFINITY PREDICTED BY RF-SCORE:    0.00 PKD
ROOT
HETATM    1  C   UNL     1      -7.660   9.530  67.148  1.00  0.00    -0.091 C  
HETATM    2  C   UNL     1      -9.002  10.299  67.092  1.00  0.00    -0.145 C  
HETATM    3  C   UNL     1      -9.527  10.479  68.474  1.00  0.00    -0.164 A  
HETATM    4  C   UNL     1      -9.075   9.704  69.524  1.00  0.00    -0.199 A  
HETATM    5  N   UNL     1      -9.699  10.145  70.664  1.00  0.00    -0.203 NA 
HETATM    6  C   UNL     1      -8.032   8.606  69.462  1.00  0.00    -0.097 C  
HETATM    7  N   UNL     1      -7.749   8.329  68.019  1.00  0.00    -0.105 N  
HETATM    8  O   UNL     1      -6.981  10.351  64.989  1.00  0.00    -0.128 OA 
HETATM    9  C   UNL     1     -10.607  11.135  70.349  1.00  0.00     1.000 A  
HETATM   10  H   UNL     1      -9.518   9.792  71.604  1.00  0.00     0.000 HD 
HETATM   11  C   UNL     1      -7.768   7.062  67.463  1.00  0.00    -0.111 C  
HETATM   12  C   UNL     1     -11.499  11.830  71.176  1.00  0.00     1.487 A  
HETATM   13  C   UNL     1     -10.508  11.373  68.979  1.00  0.00    -0.196 A  
HETATM   14  C   UNL     1     -12.312  12.799  70.579  1.00  0.00    -0.355 A  
HETATM   15  O   UNL     1      -8.070   6.027  68.055  1.00  0.00    -0.108 OA 
HETATM   16  C   UNL     1      -6.548   7.894  63.878  1.00  0.00    -0.062 C  
HETATM   17  C   UNL     1      -7.367   6.929  65.999  1.00  0.00    -0.075 C  
HETATM   18  C   UNL     1      -7.148   9.368  65.713  1.00  0.00    -0.091 C  
HETATM   19  C   UNL     1     -12.228  13.065  69.215  1.00  0.00    -0.138 A  
HETATM   20  N   UNL     1      -6.893   8.088  65.273  1.00  0.00    -0.058 N  
HETATM   21  C   UNL     1     -11.328  12.364  68.404  1.00  0.00    -0.330 A  
ENDROOT
BRANCH   6  22
HETATM   22  C   UNL     1      -8.335   7.405  70.348  1.00  0.00    -0.129 A  
HETATM   23  C   UNL     1      -7.637   5.334  71.474  1.00  0.00    -0.102 A  
HETATM   24  C   UNL     1      -8.813   5.382  72.189  1.00  0.00    -0.130 A  
HETATM   25  C   UNL     1      -9.738   6.379  71.994  1.00  0.00    -0.150 A  
HETATM   26  C   UNL     1     -10.409   5.126  73.618  1.00  0.00    -0.223 C  
HETATM   27  C   UNL     1      -9.543   7.386  71.074  1.00  0.00    -0.161 A  
HETATM   28  O   UNL     1      -9.187   4.510  73.163  1.00  0.00    -0.118 OA 
HETATM   29  C   UNL     1      -7.391   6.364  70.560  1.00  0.00    -0.085 A  
HETATM   30  O   UNL     1     -10.809   6.263  72.826  1.00  0.00    -0.230 OA 
ENDBRANCH   6  22
TORSDOF 1
ENDMDL
MODEL      117
REMARK 921   NORMALIZED FREE ENERGY PREDICTED BY IDOCK:    0.06 KCAL/MOL
REMARK 922        TOTAL FREE ENERGY PREDICTED BY IDOCK:    0.02 KCAL/MOL
REMARK 923 INTER-LIGAND FREE ENERGY PREDICTED BY IDOCK:   -0.12 KCAL/MOL
REMARK 924 INTRA-LIGAND FREE ENERGY PREDICTED BY IDOCK:    0.14 KCAL/MOL
REMARK 927      BINDING AFFINITY PREDICTED BY RF-SCORE:    0.00 PKD
ROOT
HETATM    1  C   UNL     1     -10.980  13.439  66.528  1.00  0.00    -0.290 C  
HETATM    2  C   UNL     1     -12.099  13.973  67.454  1.00  0.00    -0.384 C  
HETATM    3  C   UNL     1     -11.815  13.566  68.858  1.00  0.00    -0.384 A  
HETATM    4  C   UNL     1     -10.937  12.541  69.149  1.00  0.00    -0.144 A  
HETATM    5  N   UNL     1     -10.846  12.447  70.514  1.00  0.00     1.198 NA 
HETATM    6  C   UNL     1     -10.155  11.703  68.156  1.00  0.00    -0.196 C  
HETATM    7  N   UNL     1     -10.683  12.007  66.790  1.00  0.00    -0.234 N  
HETATM    8  O   UNL     1     -11.468  15.071  64.826  1.00  0.00    -0.400 OA 
HETATM    9  C   UNL     1     -11.716  13.340  71.106  1.00  0.00     0.812 A  
HETATM   10  H   UNL     1     -10.226  11.811  71.017  1.00  0.00     0.000 HD 
HETATM   11  C   UNL     1     -11.075  11.036  65.885  1.00  0.00     0.032 C  
HETATM   12  C   UNL     1     -11.998  13.554  72.461  1.00  0.00     1.444 A  
HETATM   13  C   UNL     1     -12.328  14.066  70.085  1.00  0.00    -0.409 A  
HETATM   14  C   UNL     1     -12.935  14.542  72.778  1.00  0.00    -0.563 A  
HETATM   15  O   UNL     1     -11.094   9.825  66.100  1.00  0.00     0.379 OA 
HETATM   16  C   UNL     1     -11.844  13.268  62.809  1.00  0.00     1.176 C  
HETATM   17  C   UNL     1     -11.503  11.497  64.498  1.00  0.00    -0.131 C  
HETATM   18  C   UNL     1     -11.300  13.880  65.096  1.00  0.00    -0.318 C  
HETATM   19  C   UNL     1     -13.555  15.290  71.780  1.00  0.00    -0.581 A  
HETATM   20  N   UNL     1     -11.399  12.895  64.138  1.00  0.00    -0.370 N  
HETATM   21  C   UNL     1     -13.258  15.066  70.431  1.00  0.00    -0.147 A  
ENDROOT
BRANCH   6  22
HETATM   22  C   UNL     1     -10.034  10.234  68.537  1.00  0.00    -0.177 A  
HETATM   23  C   UNL     1     -11.050   8.062  69.077  1.00  0.00     0.217 A  
HETATM   24  C   UNL     1      -9.801   7.498  68.949  1.00  0.00    -0.159 A  
HETATM   25  C   UNL     1      -8.693   8.253  68.650  1.00  0.00    -0.133 A  
HETATM   26  C   UNL     1      -8.112   6.176  68.713  1.00  0.00    -0.105 C  
HETATM   27  C   UNL     1      -8.769   9.616  68.460  1.00  0.00    -0.120 A  
HETATM   28  O   UNL     1      -9.511   6.174  69.064  1.00  0.00    -0.127 OA 
HETATM   29  C   UNL     1     -11.168   9.437  68.851  1.00  0.00     0.096 A  
HETATM   30  O   UNL     1      -7.567   7.499  68.533  1.00  0.00    -0.108 OA 
ENDBRANCH   6  22
TORSDOF 1
ENDMDL
MODEL      118
REMARK 921   NORMALIZED FREE ENERGY PREDICTED BY IDOCK:    0.39 KCAL/MOL
REMARK 922        TOTAL FREE ENERGY PREDICTED BY IDOCK:    0.36 KCAL/MOL
REMARK 923 INTER-LIGAND FREE ENERGY PREDICTED BY IDOCK:   -1.87 KCAL/MOL
REMARK 924 INTRA-LIGAND FREE ENERGY PREDICTED BY IDOCK:    2.23 KCAL/MOL
REMARK 927      BINDING AFFINITY PREDICTED BY RF-SCORE:    0.00 PKD
ROOT
HETATM    1  C   UNL     1      -9.272  12.631  65.437  1.00  0.00     0.415 C  
HETATM    2  C   UNL     1      -9.153  14.042  66.062  1.00  0.00     0.160 C  
HETATM    3  C   UNL     1      -7.963  14.089  66.956  1.00  0.00     0.028 A  
HETATM    4  C   UNL     1      -7.373  12.935  67.432  1.00  0.00    -0.128 A  
HETATM    5  N   UNL     1      -6.278  13.303  68.172  1.00  0.00    -0.096 NA 
HETATM    6  C   UNL     1      -7.801  11.509  67.146  1.00  0.00    -0.160 C  
HETATM    7  N   UNL     1      -9.128  11.562  66.459  1.00  0.00    -0.189 N  
HETATM    8  O   UNL     1     -10.612  13.441  63.608  1.00  0.00    -0.030 OA 
HETATM    9  C   UNL     1      -6.204  14.679  68.249  1.00  0.00    -0.122 A  
HETATM   10  H   UNL     1      -5.617  12.656  68.601  1.00  0.00     0.000 HD 
HETATM   11  C   UNL     1     -10.230  10.826  66.860  1.00  0.00    -0.227 C  
HETATM   12  C   UNL     1      -5.295  15.492  68.937  1.00  0.00    -0.099 A  
HETATM   13  C   UNL     1      -7.246  15.198  67.480  1.00  0.00    -0.227 A  
HETATM   14  C   UNL     1      -5.459  16.877  68.833  1.00  0.00    -0.134 A  
HETATM   15  O   UNL     1     -10.278  10.093  67.846  1.00  0.00    -0.162 OA 
HETATM   16  C   UNL     1     -12.703  11.730  64.014  1.00  0.00    -0.139 C  
HETATM   17  C   UNL     1     -11.486  10.915  66.003  1.00  0.00     0.609 C  
HETATM   18  C   UNL     1     -10.500  12.621  64.522  1.00  0.00    -0.355 C  
HETATM   19  C   UNL     1      -6.483  17.423  68.064  1.00  0.00    -0.161 A  
HETATM   20  N   UNL     1     -11.466  11.670  64.769  1.00  0.00    -0.212 N  
HETATM   21  C   UNL     1      -7.381  16.596  67.379  1.00  0.00    -0.189 A  
ENDROOT
BRANCH   6  22
HETATM   22  C   UNL     1      -7.678  10.569  68.338  1.00  0.00    -0.104 A  
HETATM   23  C   UNL     1      -6.339   9.114  69.800  1.00  0.00    -0.039 A  
HETATM   24  C   UNL     1      -7.404   9.091  70.673  1.00  0.00    -0.098 A  
HETATM   25  C   UNL     1      -8.577   9.753  70.402  1.00  0.00    -0.052 A  
HETATM   26  C   UNL     1      -8.716   8.887  72.374  1.00  0.00     0.240 C  
HETATM   27  C   UNL     1      -8.754  10.478  69.244  1.00  0.00    -0.135 A  
HETATM   28  O   UNL     1      -7.428   8.465  71.880  1.00  0.00    -0.092 OA 
HETATM   29  C   UNL     1      -6.474   9.874  68.633  1.00  0.00    -0.046 A  
HETATM   30  O   UNL     1      -9.485   9.633  71.408  1.00  0.00    -0.123 OA 
ENDBRANCH   6  22
TORSDOF 1
ENDMDL
MODEL      119
REMARK 921   NORMALIZED FREE ENERGY PREDICTED BY IDOCK:    0.53 KCAL/MOL
REMARK 922        TOTAL FREE ENERGY PREDICTED BY IDOCK:    0.52 KCAL/MOL
REMARK 923 INTER-LIGAND FREE ENERGY PREDICTED BY IDOCK:   -3.03 KCAL/MOL
REMARK 924 INTRA-LIGAND FREE ENERGY PREDICTED BY IDOCK:    3.54 KCAL/MOL
REMARK 927      BINDING AFFINITY PREDICTED BY RF-SCORE:    0.00 PKD
ROOT
HETATM    1  C   UNL     1      -6.228   9.280  69.963  1.00  0.00    -0.043 C  
HETATM    2  C   UNL     1      -7.431   8.826  70.825  1.00  0.00    -0.087 C  
HETATM    3  C   UNL     1      -7.790   7.424  70.474  1.00  0.00    -0.097 A  
HETATM    4  C   UNL     1      -7.370   6.846  69.292  1.00  0.00    -0.092 A  
HETATM    5  N   UNL     1      -7.807   5.545  69.288  1.00  0.00    -0.089 NA 
HETATM    6  C   UNL     1      -6.523   7.491  68.213  1.00  0.00    -0.049 C  
HETATM    7  N   UNL     1      -6.423   8.951  68.527  1.00  0.00    -0.054 N  
HETATM    8  O   UNL     1      -5.631  11.013  71.524  1.00  0.00    -0.344 OA 
HETATM    9  C   UNL     1      -8.574   5.303  70.410  1.00  0.00    -0.115 A  
HETATM   10  H   UNL     1      -7.597   4.859  68.563  1.00  0.00     0.000 HD 
HETATM   11  C   UNL     1      -6.694   9.952  67.611  1.00  0.00    -0.073 C  
HETATM   12  C   UNL     1      -9.263   4.147  70.793  1.00  0.00    -0.197 A  
HETATM   13  C   UNL     1      -8.566   6.467  71.180  1.00  0.00    -0.128 A  
HETATM   14  C   UNL     1      -9.966   4.184  72.002  1.00  0.00    -0.250 A  
HETATM   15  O   UNL     1      -7.098   9.780  66.463  1.00  0.00    -0.087 OA 
HETATM   16  C   UNL     1      -5.698  13.056  69.711  1.00  0.00    -0.114 C  
HETATM   17  C   UNL     1      -6.457  11.391  68.051  1.00  0.00    -0.057 C  
HETATM   18  C   UNL     1      -5.883  10.721  70.353  1.00  0.00    -0.118 C  
HETATM   19  C   UNL     1      -9.968   5.327  72.797  1.00  0.00    -0.189 A  
HETATM   20  N   UNL     1      -5.876  11.663  69.348  1.00  0.00    -0.064 N  
HETATM   21  C   UNL     1      -9.269   6.474  72.400  1.00  0.00    -0.137 A  
ENDROOT
BRANCH   6  22
HETATM   22  C   UNL     1      -6.928   7.117  66.794  1.00  0.00    -0.073 A  
HETATM   23  C   UNL     1      -7.018   7.602  64.386  1.00  0.00    -0.060 A  
HETATM   24  C   UNL     1      -7.411   6.298  64.185  1.00  0.00    -0.071 A  
HETATM   25  C   UNL     1      -7.584   5.425  65.232  1.00  0.00    -0.079 A  
HETATM   26  C   UNL     1      -7.886   4.351  63.385  1.00  0.00    -0.076 C  
HETATM   27  C   UNL     1      -7.373   5.804  66.540  1.00  0.00    -0.079 A  
HETATM   28  O   UNL     1      -7.639   5.713  62.978  1.00  0.00    -0.064 OA 
HETATM   29  C   UNL     1      -6.758   8.007  65.699  1.00  0.00    -0.048 A  
HETATM   30  O   UNL     1      -7.937   4.178  64.815  1.00  0.00    -0.091 OA 
ENDBRANCH   6  22
TORSDOF 1
ENDMDL
MODEL      120
REMARK 921   NORMALIZED FREE ENERGY PREDICTED BY IDOCK:    1.56 KCAL/MOL
REMARK 922        TOTAL FREE ENERGY PREDICTED BY IDOCK:    1.61 KCAL/MOL
REMARK 923 INTER-LIGAND FREE ENERGY PREDICTED BY IDOCK:    1.50 KCAL/MOL
REMARK 924 INTRA-LIGAND FREE ENERGY PREDICTED BY IDOCK:    0.11 KCAL/MOL
REMARK 927      BINDING AFFINITY PREDICTED BY RF-SCORE:    0.00 PKD
ROOT
HETATM    1  C   UNL     1      -6.154  12.163  70.389  1.00  0.00    -0.019 C  
HETATM    2  C   UNL     1      -7.399  11.475  71.000  1.00  0.00     4.181 C  
HETATM    3  C   UNL     1      -7.679  10.213  70.261  1.00  0.00     0.008 A  
HETATM    4  C   UNL     1      -7.152   9.980  69.005  1.00  0.00    -0.069 A  
HETATM    5  N   UNL     1      -7.539   8.721  68.620  1.00  0.00    -0.095 NA 
HETATM    6  C   UNL     1      -6.253  10.905  68.209  1.00  0.00    -0.049 C  
HETATM    7  N   UNL     1      -6.231  12.228  68.907  1.00  0.00    -0.072 N  
HETATM    8  O   UNL     1      -5.739  13.424  72.398  1.00  0.00    -0.402 OA 
HETATM    9  C   UNL     1      -8.376   8.175  69.572  1.00  0.00    -0.122 A  
HETATM   10  H   UNL     1      -7.251   8.258  67.758  1.00  0.00     0.000 HD 
HETATM   11  C   UNL     1      -6.471  13.434  68.272  1.00  0.00    -0.102 C  
HETATM   12  C   UNL     1      -9.048   6.947  69.577  1.00  0.00    -0.142 A  
HETATM   13  C   UNL     1      -8.469   9.089  70.621  1.00  0.00    -0.229 A  
HETATM   14  C   UNL     1      -9.838   6.647  70.691  1.00  0.00    -0.198 A  
HETATM   15  O   UNL     1      -6.783  13.569  67.090  1.00  0.00    -0.165 OA 
HETATM   16  C   UNL     1      -5.748  15.877  71.195  1.00  0.00     0.315 C  
HETATM   17  C   UNL     1      -6.320  14.706  69.096  1.00  0.00    -0.106 C  
HETATM   18  C   UNL     1      -5.893  13.452  71.175  1.00  0.00    -0.045 C  
HETATM   19  C   UNL     1      -9.942   7.535  71.758  1.00  0.00    -0.200 A  
HETATM   20  N   UNL     1      -5.847  14.629  70.462  1.00  0.00    -0.158 N  
HETATM   21  C   UNL     1      -9.259   8.757  71.738  1.00  0.00    -0.332 A  
ENDROOT
BRANCH   6  22
HETATM   22  C   UNL     1      -6.538  10.918  66.713  1.00  0.00    -0.116 A  
HETATM   23  C   UNL     1      -5.861  10.474  64.392  1.00  0.00    -0.074 A  
HETATM   24  C   UNL     1      -7.171  10.679  64.020  1.00  0.00     0.250 A  
HETATM   25  C   UNL     1      -8.140  11.012  64.936  1.00  0.00     0.292 A  
HETATM   26  C   UNL     1      -9.075  10.756  63.008  1.00  0.00    -0.284 C  
HETATM   27  C   UNL     1      -7.856  11.160  66.277  1.00  0.00    -0.109 A  
HETATM   28  O   UNL     1      -7.669  10.553  62.761  1.00  0.00    -0.147 OA 
HETATM   29  C   UNL     1      -5.549  10.578  65.752  1.00  0.00    -0.104 A  
HETATM   30  O   UNL     1      -9.371  11.132  64.369  1.00  0.00    -0.208 OA 
ENDBRANCH   6  22
TORSDOF 1
ENDMDL
MODEL      121
REMARK 921   NORMALIZED FREE ENERGY PREDICTED BY IDOCK:    2.13 KCAL/MOL
REMARK 922        TOTAL FREE ENERGY PREDICTED BY IDOCK:    2.21 KCAL/MOL
REMARK 923 INTER-LIGAND FREE ENERGY PREDICTED BY IDOCK:   -1.25 KCAL/MOL
REMARK 924 INTRA-LIGAND FREE ENERGY PREDICTED BY IDOCK:    3.46 KCAL/MOL
REMARK 927      BINDING AFFINITY PREDICTED BY RF-SCORE:    0.00 PKD
ROOT
HETATM    1  C   UNL     1      -8.118  10.422  64.479  1.00  0.00    -0.114 C  
HETATM    2  C   UNL     1      -9.654  10.554  64.618  1.00  0.00    -0.349 C  
HETATM    3  C   UNL     1      -9.982  11.855  65.264  1.00  0.00    -0.280 A  
HETATM    4  C   UNL     1      -9.035  12.567  65.974  1.00  0.00     0.168 A  
HETATM    5  N   UNL     1      -9.621  13.735  66.391  1.00  0.00    -0.326 NA 
HETATM    6  C   UNL     1      -7.588  12.179  66.205  1.00  0.00     0.830 C  
HETATM    7  N   UNL     1      -7.418  10.766  65.744  1.00  0.00    -0.111 N  
HETATM    8  O   UNL     1      -8.314   8.795  62.715  1.00  0.00    -0.187 OA 
HETATM    9  C   UNL     1     -10.954  13.747  66.033  1.00  0.00    -0.284 A  
HETATM   10  H   UNL     1      -9.143  14.484  66.892  1.00  0.00     0.000 HD 
HETATM   11  C   UNL     1      -6.836   9.773  66.512  1.00  0.00    -0.084 C  
HETATM   12  C   UNL     1     -11.946  14.700  66.295  1.00  0.00    -0.262 A  
HETATM   13  C   UNL     1     -11.203  12.580  65.310  1.00  0.00    -0.341 A  
HETATM   14  C   UNL     1     -13.230  14.450  65.800  1.00  0.00     0.410 A  
HETATM   15  O   UNL     1      -6.443   9.904  67.670  1.00  0.00    -0.063 OA 
HETATM   16  C   UNL     1      -6.800   6.877  63.935  1.00  0.00    -0.054 C  
HETATM   17  C   UNL     1      -6.647   8.405  65.869  1.00  0.00    -0.053 C  
HETATM   18  C   UNL     1      -7.818   9.079  63.807  1.00  0.00    -0.137 C  
HETATM   19  C   UNL     1     -13.505  13.300  65.066  1.00  0.00     0.904 A  
HETATM   20  N   UNL     1      -6.984   8.210  64.475  1.00  0.00    -0.074 N  
HETATM   21  C   UNL     1     -12.501  12.359  64.810  1.00  0.00    -0.480 A  
ENDROOT
BRANCH   6  22
HETATM   22  C   UNL     1      -7.064  12.519  67.593  1.00  0.00    -0.139 A  
HETATM   23  C   UNL     1      -5.481  12.163  69.440  1.00  0.00    -0.069 A  
HETATM   24  C   UNL     1      -5.939  13.336  69.997  1.00  0.00    -0.134 A  
HETATM   25  C   UNL     1      -6.934  14.078  69.406  1.00  0.00    -0.050 A  
HETATM   26  C   UNL     1      -6.220  15.144  71.142  1.00  0.00     0.434 C  
HETATM   27  C   UNL     1      -7.528  13.691  68.225  1.00  0.00    -0.124 A  
HETATM   28  O   UNL     1      -5.469  13.912  71.136  1.00  0.00    -0.156 OA 
HETATM   29  C   UNL     1      -6.037  11.763  68.221  1.00  0.00    -0.049 A  
HETATM   30  O   UNL     1      -7.211  15.218  70.096  1.00  0.00    -0.075 OA 
ENDBRANCH   6  22
TORSDOF 1
ENDMDL
MODEL      122
REMARK 921   NORMALIZED FREE ENERGY PREDICTED BY IDOCK:    2.59 KCAL/MOL
REMARK 922        TOTAL FREE ENERGY PREDICTED BY IDOCK:    2.69 KCAL/MOL
REMARK 923 INTER-LIGAND FREE ENERGY PREDICTED BY IDOCK:    0.18 KCAL/MOL
REMARK 924 INTRA-LIGAND FREE ENERGY PREDICTED BY IDOCK:    2.51 KCAL/MOL
REMARK 927      BINDING AFFINITY PREDICTED BY RF-SCORE:    0.00 PKD
ROOT
HETATM    1  C   UNL     1     -11.568  11.750  66.883  1.00  0.00    -0.234 C  
HETATM    2  C   UNL     1     -11.104  10.303  66.587  1.00  0.00     0.089 C  
HETATM    3  C   UNL     1     -10.353   9.775  67.760  1.00  0.00    -0.274 A  
HETATM    4  C   UNL     1      -9.831  10.618  68.721  1.00  0.00    -0.191 A  
HETATM    5  N   UNL     1      -9.254   9.836  69.689  1.00  0.00    -0.209 NA 
HETATM    6  C   UNL     1      -9.924  12.131  68.754  1.00  0.00    -0.052 C  
HETATM    7  N   UNL     1     -10.466  12.581  67.434  1.00  0.00    -0.218 N  
HETATM    8  O   UNL     1     -13.314  11.639  65.229  1.00  0.00     2.191 OA 
HETATM    9  C   UNL     1      -9.323   8.507  69.323  1.00  0.00    -0.154 A  
HETATM   10  H   UNL     1      -8.836  10.185  70.552  1.00  0.00     0.000 HD 
HETATM   11  C   UNL     1      -9.877  13.564  66.658  1.00  0.00    -0.279 C  
HETATM   12  C   UNL     1      -8.822   7.371  69.970  1.00  0.00    -0.141 A  
HETATM   13  C   UNL     1     -10.023   8.441  68.119  1.00  0.00    -0.224 A  
HETATM   14  C   UNL     1      -9.046   6.130  69.364  1.00  0.00    -0.135 A  
HETATM   15  O   UNL     1      -8.823  14.142  66.917  1.00  0.00    -0.227 OA 
HETATM   16  C   UNL     1     -12.516  13.846  63.831  1.00  0.00    -0.167 C  
HETATM   17  C   UNL     1     -10.598  13.980  65.382  1.00  0.00    -0.341 C  
HETATM   18  C   UNL     1     -12.340  12.259  65.661  1.00  0.00     0.048 C  
HETATM   19  C   UNL     1      -9.749   6.033  68.167  1.00  0.00    -0.137 A  
HETATM   20  N   UNL     1     -11.896  13.422  65.072  1.00  0.00    -0.337 N  
HETATM   21  C   UNL     1     -10.248   7.179  67.536  1.00  0.00    -0.272 A  
ENDROOT
BRANCH   6  22
HETATM   22  C   UNL     1      -8.665  12.824  69.255  1.00  0.00     0.953 A  
HETATM   23  C   UNL     1      -6.349  12.744  70.078  1.00  0.00     0.013 A  
HETATM   24  C   UNL     1      -6.286  14.107  69.893  1.00  0.00    -0.146 A  
HETATM   25  C   UNL     1      -7.362  14.825  69.430  1.00  0.00    -0.162 A  
HETATM   26  C   UNL     1      -5.679  16.161  69.631  1.00  0.00    -0.144 C  
HETATM   27  C   UNL     1      -8.563  14.224  69.124  1.00  0.00     0.156 A  
HETATM   28  O   UNL     1      -5.192  14.887  70.102  1.00  0.00    -0.099 OA 
HETATM   29  C   UNL     1      -7.543  12.098  69.739  1.00  0.00     1.071 A  
HETATM   30  O   UNL     1      -7.078  16.148  69.283  1.00  0.00    -0.201 OA 
ENDBRANCH   6  22
TORSDOF 1
ENDMDL
MODEL      123
REMARK 921   NORMALIZED FREE ENERGY PREDICTED BY IDOCK:    2.62 KCAL/MOL
REMARK 922        TOTAL FREE ENERGY PREDICTED BY IDOCK:    2.72 KCAL/MOL
REMARK 923 INTER-LIGAND FREE ENERGY PREDICTED BY IDOCK:    2.69 KCAL/MOL
REMARK 924 INTRA-LIGAND FREE ENERGY PREDICTED BY IDOCK:    0.03 KCAL/MOL
REMARK 927      BINDING AFFINITY PREDICTED BY RF-SCORE:    0.00 PKD
ROOT
HETATM    1  C   UNL     1     -10.660  13.603  66.107  1.00  0.00    -0.291 C  
HETATM    2  C   UNL     1     -10.938  15.125  66.145  1.00  0.00    -0.331 C  
HETATM    3  C   UNL     1     -10.676  15.642  67.517  1.00  0.00    -0.303 A  
HETATM    4  C   UNL     1     -10.620  14.796  68.608  1.00  0.00    -0.255 A  
HETATM    5  N   UNL     1     -10.309  15.556  69.707  1.00  0.00    -0.294 NA 
HETATM    6  C   UNL     1     -10.800  13.291  68.603  1.00  0.00    -0.259 C  
HETATM    7  N   UNL     1     -11.298  12.897  67.249  1.00  0.00    -0.292 N  
HETATM    8  O   UNL     1     -10.356  13.613  63.719  1.00  0.00     0.089 OA 
HETATM    9  C   UNL     1     -10.248  16.889  69.355  1.00  0.00    -0.208 A  
HETATM   10  H   UNL     1     -10.147  15.190  70.645  1.00  0.00     0.000 HD 
HETATM   11  C   UNL     1     -12.408  12.096  67.042  1.00  0.00     0.771 C  
HETATM   12  C   UNL     1     -10.018  18.018  70.150  1.00  0.00     1.311 A  
HETATM   13  C   UNL     1     -10.462  16.968  67.978  1.00  0.00    -0.353 A  
HETATM   14  C   UNL     1     -10.007  19.264  69.516  1.00  0.00    -0.032 A  
HETATM   15  O   UNL     1     -13.147  11.660  67.923  1.00  0.00     2.613 OA 
HETATM   16  C   UNL     1     -12.233  11.701  63.189  1.00  0.00    -0.033 C  
HETATM   17  C   UNL     1     -12.737  11.705  65.608  1.00  0.00     2.632 C  
HETATM   18  C   UNL     1     -10.933  13.107  64.683  1.00  0.00    -0.356 C  
HETATM   19  C   UNL     1     -10.207  19.373  68.143  1.00  0.00    -0.537 A  
HETATM   20  N   UNL     1     -11.848  12.089  64.533  1.00  0.00    -0.315 N  
HETATM   21  C   UNL     1     -10.431  18.233  67.361  1.00  0.00    -0.430 A  
ENDROOT
BRANCH   6  22
HETATM   22  C   UNL     1     -11.564  12.749  69.804  1.00  0.00    -0.288 A  
HETATM   23  C   UNL     1     -13.469  12.831  71.355  1.00  0.00     0.033 A  
HETATM   24  C   UNL     1     -13.094  11.586  71.808  1.00  0.00    -0.398 A  
HETATM   25  C   UNL     1     -11.991  10.937  71.310  1.00  0.00    -0.124 A  
HETATM   26  C   UNL     1     -12.987   9.627  72.705  1.00  0.00     0.012 C  
HETATM   27  C   UNL     1     -11.197  11.493  70.330  1.00  0.00     0.307 A  
HETATM   28  O   UNL     1     -13.753  10.848  72.741  1.00  0.00     0.527 OA 
HETATM   29  C   UNL     1     -12.707  13.407  70.333  1.00  0.00    -0.136 A  
HETATM   30  O   UNL     1     -11.819   9.706  71.863  1.00  0.00    -0.367 OA 
ENDBRANCH   6  22
TORSDOF 1
ENDMDL
MODEL      124
REMARK 921   NORMALIZED FREE ENERGY PREDICTED BY IDOCK:    3.23 KCAL/MOL
REMARK 922        TOTAL FREE ENERGY PREDICTED BY IDOCK:    3.37 KCAL/MOL
REMARK 923 INTER-LIGAND FREE ENERGY PREDICTED BY IDOCK:   -0.67 KCAL/MOL
REMARK 924 INTRA-LIGAND FREE ENERGY PREDICTED BY IDOCK:    4.04 KCAL/MOL
REMARK 927      BINDING AFFINITY PREDICTED BY RF-SCORE:    0.00 PKD
ROOT
HETATM    1  C   UNL     1      -7.789  11.468  69.363  1.00  0.00     0.282 C  
HETATM    2  C   UNL     1      -9.263  11.147  69.709  1.00  0.00     0.909 C  
HETATM    3  C   UNL     1      -9.398   9.692  69.995  1.00  0.00    -0.276 A  
HETATM    4  C   UNL     1      -8.440   8.784  69.586  1.00  0.00    -0.129 A  
HETATM    5  N   UNL     1      -8.818   7.548  70.045  1.00  0.00    -0.143 NA 
HETATM    6  C   UNL     1      -7.164   9.088  68.826  1.00  0.00    -0.075 C  
HETATM    7  N   UNL     1      -7.233  10.511  68.371  1.00  0.00    -0.078 N  
HETATM    8  O   UNL     1      -8.058  13.796  69.918  1.00  0.00     0.978 OA 
HETATM    9  C   UNL     1     -10.046   7.633  70.669  1.00  0.00    -0.187 A  
HETATM   10  H   UNL     1      -8.272   6.693  69.940  1.00  0.00     0.000 HD 
HETATM   11  C   UNL     1      -7.003  10.911  67.067  1.00  0.00    -0.105 C  
HETATM   12  C   UNL     1     -10.837   6.625  71.234  1.00  0.00    -0.279 A  
HETATM   13  C   UNL     1     -10.426   8.975  70.662  1.00  0.00    -0.285 A  
HETATM   14  C   UNL     1     -12.053   7.005  71.811  1.00  0.00    -0.371 A  
HETATM   15  O   UNL     1      -6.774  10.161  66.119  1.00  0.00    -0.093 OA 
HETATM   16  C   UNL     1      -7.198  14.758  67.510  1.00  0.00    -0.197 C  
HETATM   17  C   UNL     1      -7.018  12.407  66.776  1.00  0.00     0.282 C  
HETATM   18  C   UNL     1      -7.685  12.971  69.081  1.00  0.00     0.317 C  
HETATM   19  C   UNL     1     -12.454   8.338  71.829  1.00  0.00    -0.367 A  
HETATM   20  N   UNL     1      -7.171  13.351  67.862  1.00  0.00    -0.115 N  
HETATM   21  C   UNL     1     -11.649   9.333  71.262  1.00  0.00    -0.419 A  
ENDROOT
BRANCH   6  22
HETATM   22  C   UNL     1      -6.798   8.045  67.778  1.00  0.00    -0.070 A  
HETATM   23  C   UNL     1      -6.043   7.443  65.518  1.00  0.00    -0.038 A  
HETATM   24  C   UNL     1      -5.861   6.156  65.972  1.00  0.00    -0.024 A  
HETATM   25  C   UNL     1      -6.149   5.798  67.267  1.00  0.00    -0.025 A  
HETATM   26  C   UNL     1      -5.288   4.096  66.258  1.00  0.00    -0.013 C  
HETATM   27  C   UNL     1      -6.635   6.705  68.183  1.00  0.00    -0.059 A  
HETATM   28  O   UNL     1      -5.363   5.120  65.245  1.00  0.00    -0.012 OA 
HETATM   29  C   UNL     1      -6.498   8.397  66.434  1.00  0.00    -0.058 A  
HETATM   30  O   UNL     1      -5.863   4.492  67.520  1.00  0.00    -0.021 OA 
ENDBRANCH   6  22
TORSDOF 1
ENDMDL
MODEL      125
REMARK 921   NORMALIZED FREE ENERGY PREDICTED BY IDOCK:    5.05 KCAL/MOL
REMARK 922        TOTAL FREE ENERGY PREDICTED BY IDOCK:    5.29 KCAL/MOL
REMARK 923 INTER-LIGAND FREE ENERGY PREDICTED BY IDOCK:    0.70 KCAL/MOL
REMARK 924 INTRA-LIGAND FREE ENERGY PREDICTED BY IDOCK:    4.59 KCAL/MOL
REMARK 927      BINDING AFFINITY PREDICTED BY RF-SCORE:    0.00 PKD
ROOT
HETATM    1  C   UNL     1     -11.505   9.069  68.933  1.00  0.00     0.647 C  
HETATM    2  C   UNL     1     -10.848   8.579  67.620  1.00  0.00    -0.072 C  
HETATM    3  C   UNL     1     -10.610   7.111  67.703  1.00  0.00    -0.318 A  
HETATM    4  C   UNL     1     -10.602   6.450  68.916  1.00  0.00    -0.252 A  
HETATM    5  N   UNL     1     -10.417   5.115  68.658  1.00  0.00    -0.086 NA 
HETATM    6  C   UNL     1     -10.820   7.058  70.287  1.00  0.00    -0.254 C  
HETATM    7  N   UNL     1     -10.800   8.546  70.132  1.00  0.00    -0.236 N  
HETATM    8  O   UNL     1     -12.394  11.040  67.873  1.00  0.00    -0.196 OA 
HETATM    9  C   UNL     1     -10.223   4.919  67.306  1.00  0.00    -0.137 A  
HETATM   10  H   UNL     1     -10.423   4.377  69.362  1.00  0.00     0.000 HD 
HETATM   11  C   UNL     1     -10.023   9.388  70.907  1.00  0.00    -0.283 C  
HETATM   12  C   UNL     1      -9.946   3.742  66.600  1.00  0.00     0.085 A  
HETATM   13  C   UNL     1     -10.353   6.160  66.681  1.00  0.00    -0.249 A  
HETATM   14  C   UNL     1      -9.799   3.839  65.213  1.00  0.00    -0.146 A  
HETATM   15  O   UNL     1      -9.220   9.028  71.767  1.00  0.00    -0.329 OA 
HETATM   16  C   UNL     1     -11.267  12.823  69.609  1.00  0.00    -0.002 C  
HETATM   17  C   UNL     1     -10.181  10.888  70.694  1.00  0.00     1.723 C  
HETATM   18  C   UNL     1     -11.740  10.578  68.810  1.00  0.00    -0.120 C  
HETATM   19  C   UNL     1      -9.934   5.062  64.561  1.00  0.00     0.535 A  
HETATM   20  N   UNL     1     -11.186  11.385  69.779  1.00  0.00    -0.230 N  
HETATM   21  C   UNL     1     -10.215   6.228  65.281  1.00  0.00     1.814 A  
ENDROOT
BRANCH   6  22
HETATM   22  C   UNL     1      -9.940   6.467  71.380  1.00  0.00    -0.202 A  
HETATM   23  C   UNL     1      -8.913   4.537  72.503  1.00  0.00    -0.133 A  
HETATM   24  C   UNL     1      -8.114   5.422  73.192  1.00  0.00    -0.112 A  
HETATM   25  C   UNL     1      -8.220   6.780  73.016  1.00  0.00    -0.108 A  
HETATM   26  C   UNL     1      -6.580   6.388  74.362  1.00  0.00    -0.077 C  
HETATM   27  C   UNL     1      -9.130   7.334  72.141  1.00  0.00    -0.149 A  
HETATM   28  O   UNL     1      -7.135   5.087  74.075  1.00  0.00    -0.079 OA 
HETATM   29  C   UNL     1      -9.819   5.065  71.578  1.00  0.00    -0.241 A  
HETATM   30  O   UNL     1      -7.317   7.472  73.762  1.00  0.00    -0.092 OA 
ENDBRANCH   6  22
TORSDOF 1
ENDMDL
MODEL      126
REMARK 921   NORMALIZED FREE ENERGY PREDICTED BY IDOCK:    5.61 KCAL/MOL
REMARK 922        TOTAL FREE ENERGY PREDICTED BY IDOCK:    5.89 KCAL/MOL
REMARK 923 INTER-LIGAND FREE ENERGY PREDICTED BY IDOCK:    5.74 KCAL/MOL
REMARK 924 INTRA-LIGAND FREE ENERGY PREDICTED BY IDOCK:    0.15 KCAL/MOL
REMARK 927      BINDING AFFINITY PREDICTED BY RF-SCORE:    0.00 PKD
ROOT
HETATM    1  C   UNL     1      -5.879  11.576  71.721  1.00  0.00     1.047 C  
HETATM    2  C   UNL     1      -6.876  10.875  72.675  1.00  0.00     5.331 C  
HETATM    3  C   UNL     1      -7.198   9.520  72.147  1.00  0.00     0.957 A  
HETATM    4  C   UNL     1      -6.959   9.184  70.829  1.00  0.00    -0.097 A  
HETATM    5  N   UNL     1      -7.303   7.866  70.668  1.00  0.00    -0.060 NA 
HETATM    6  C   UNL     1      -6.363  10.075  69.757  1.00  0.00    -0.058 C  
HETATM    7  N   UNL     1      -6.305  11.466  70.301  1.00  0.00    -0.117 N  
HETATM    8  O   UNL     1      -5.130  13.082  73.443  1.00  0.00    -0.368 OA 
HETATM    9  C   UNL     1      -7.839   7.373  71.840  1.00  0.00    -0.090 A  
HETATM   10  H   UNL     1      -7.181   7.330  69.809  1.00  0.00     0.000 HD 
HETATM   11  C   UNL     1      -6.800  12.573  69.634  1.00  0.00     0.165 C  
HETATM   12  C   UNL     1      -8.371   6.110  72.122  1.00  0.00    -0.110 A  
HETATM   13  C   UNL     1      -7.771   8.392  72.791  1.00  0.00    -0.128 A  
HETATM   14  C   UNL     1      -8.848   5.883  73.418  1.00  0.00    -0.126 A  
HETATM   15  O   UNL     1      -7.391  12.551  68.555  1.00  0.00    -0.106 OA 
HETATM   16  C   UNL     1      -5.653  15.376  72.054  1.00  0.00     0.489 C  
HETATM   17  C   UNL     1      -6.584  13.938  70.275  1.00  0.00     0.093 C  
HETATM   18  C   UNL     1      -5.566  12.960  72.297  1.00  0.00     0.608 C  
HETATM   19  C   UNL     1      -8.784   6.877  74.390  1.00  0.00    -0.208 A  
HETATM   20  N   UNL     1      -5.801  14.049  71.487  1.00  0.00    -0.227 N  
HETATM   21  C   UNL     1      -8.245   8.134  74.092  1.00  0.00    -0.310 A  
ENDROOT
BRANCH   6  22
HETATM   22  C   UNL     1      -6.988   9.898  68.379  1.00  0.00    -0.068 A  
HETATM   23  C   UNL     1      -8.936   9.950  66.881  1.00  0.00    -0.154 A  
HETATM   24  C   UNL     1      -8.064   9.854  65.820  1.00  0.00    -0.123 A  
HETATM   25  C   UNL     1      -6.706   9.761  66.006  1.00  0.00    -0.087 A  
HETATM   26  C   UNL     1      -7.104   9.869  63.888  1.00  0.00    -0.127 C  
HETATM   27  C   UNL     1      -6.140   9.759  67.262  1.00  0.00    -0.055 A  
HETATM   28  O   UNL     1      -8.408   9.871  64.504  1.00  0.00    -0.145 OA 
HETATM   29  C   UNL     1      -8.391   9.990  68.168  1.00  0.00    -0.113 A  
HETATM   30  O   UNL     1      -6.023   9.714  64.830  1.00  0.00    -0.073 OA 
ENDBRANCH   6  22
TORSDOF 1
ENDMDL
MODEL      127
REMARK 921   NORMALIZED FREE ENERGY PREDICTED BY IDOCK:    5.97 KCAL/MOL
REMARK 922        TOTAL FREE ENERGY PREDICTED BY IDOCK:    6.27 KCAL/MOL
REMARK 923 INTER-LIGAND FREE ENERGY PREDICTED BY IDOCK:    6.38 KCAL/MOL
REMARK 924 INTRA-LIGAND FREE ENERGY PREDICTED BY IDOCK:   -0.11 KCAL/MOL
REMARK 927      BINDING AFFINITY PREDICTED BY RF-SCORE:    0.00 PKD
ROOT
HETATM    1  C   UNL     1     -12.216  14.579  68.442  1.00  0.00    -0.119 C  
HETATM    2  C   UNL     1     -11.299  14.400  67.208  1.00  0.00    -0.357 C  
HETATM    3  C   UNL     1     -11.247  12.960  66.834  1.00  0.00    -0.331 A  
HETATM    4  C   UNL     1     -11.620  11.970  67.723  1.00  0.00    -0.330 A  
HETATM    5  N   UNL     1     -11.518  10.767  67.071  1.00  0.00    -0.297 NA 
HETATM    6  C   UNL     1     -12.118  12.161  69.142  1.00  0.00    -0.168 C  
HETATM    7  N   UNL     1     -11.902  13.595  69.510  1.00  0.00    -0.318 N  
HETATM    8  O   UNL     1     -12.590  16.907  67.956  1.00  0.00     1.800 OA 
HETATM    9  C   UNL     1     -11.005  10.961  65.805  1.00  0.00     0.025 A  
HETATM   10  H   UNL     1     -11.783   9.864  67.464  1.00  0.00     0.000 HD 
HETATM   11  C   UNL     1     -11.266  14.002  70.670  1.00  0.00     0.388 C  
HETATM   12  C   UNL     1     -10.682  10.025  64.815  1.00  0.00     1.150 A  
HETATM   13  C   UNL     1     -10.838  12.335  65.627  1.00  0.00    -0.321 A  
HETATM   14  C   UNL     1     -10.174  10.512  63.606  1.00  0.00    -0.113 A  
HETATM   15  O   UNL     1     -10.754  13.255  71.503  1.00  0.00     4.289 OA 
HETATM   16  C   UNL     1     -11.765  17.836  70.389  1.00  0.00     4.430 C  
HETATM   17  C   UNL     1     -11.204  15.497  70.952  1.00  0.00    -0.371 C  
HETATM   18  C   UNL     1     -12.251  16.069  68.794  1.00  0.00     0.287 C  
HETATM   19  C   UNL     1     -10.007  11.878  63.396  1.00  0.00    -0.435 A  
HETATM   20  N   UNL     1     -11.882  16.426  70.073  1.00  0.00     0.072 N  
HETATM   21  C   UNL     1     -10.339  12.800  64.395  1.00  0.00    -0.388 A  
ENDROOT
BRANCH   6  22
HETATM   22  C   UNL     1     -11.617  11.113  70.126  1.00  0.00    -0.410 A  
HETATM   23  C   UNL     1     -12.011   9.521  71.958  1.00  0.00    -0.283 A  
HETATM   24  C   UNL     1     -10.758   9.005  71.717  1.00  0.00    -0.367 A  
HETATM   25  C   UNL     1      -9.939   9.519  70.740  1.00  0.00    -0.264 A  
HETATM   26  C   UNL     1      -8.973   7.797  71.612  1.00  0.00    -0.129 C  
HETATM   27  C   UNL     1     -10.325  10.577  69.947  1.00  0.00    -0.164 A  
HETATM   28  O   UNL     1     -10.198   7.945  72.359  1.00  0.00    -0.221 OA 
HETATM   29  C   UNL     1     -12.448  10.571  71.144  1.00  0.00    -0.517 A  
HETATM   30  O   UNL     1      -8.762   8.842  70.641  1.00  0.00    -0.158 OA 
ENDBRANCH   6  22
TORSDOF 1
ENDMDL
MODEL      128
REMARK 921   NORMALIZED FREE ENERGY PREDICTED BY IDOCK:    6.78 KCAL/MOL
REMARK 922        TOTAL FREE ENERGY PREDICTED BY IDOCK:    7.13 KCAL/MOL
REMARK 923 INTER-LIGAND FREE ENERGY PREDICTED BY IDOCK:    6.29 KCAL/MOL
REMARK 924 INTRA-LIGAND FREE ENERGY PREDICTED BY IDOCK:    0.85 KCAL/MOL
REMARK 927      BINDING AFFINITY PREDICTED BY RF-SCORE:    0.00 PKD
ROOT
HETATM    1  C   UNL     1      -9.133  16.331  69.343  1.00  0.00    -0.091 C  
HETATM    2  C   UNL     1      -9.642  16.655  67.917  1.00  0.00    -0.234 C  
HETATM    3  C   UNL     1     -10.399  15.488  67.386  1.00  0.00    -0.266 A  
HETATM    4  C   UNL     1     -10.265  14.229  67.938  1.00  0.00    -0.237 A  
HETATM    5  N   UNL     1     -11.125  13.391  67.275  1.00  0.00    -0.276 NA 
HETATM    6  C   UNL     1      -9.382  13.836  69.106  1.00  0.00     0.385 C  
HETATM    7  N   UNL     1      -8.486  14.995  69.409  1.00  0.00    -0.167 N  
HETATM    8  O   UNL     1      -8.900  18.663  69.899  1.00  0.00     0.895 OA 
HETATM    9  C   UNL     1     -11.749  14.073  66.250  1.00  0.00    -0.387 A  
HETATM   10  H   UNL     1     -11.281  12.410  67.505  1.00  0.00     0.000 HD 
HETATM   11  C   UNL     1      -7.113  14.889  69.539  1.00  0.00    -0.184 C  
HETATM   12  C   UNL     1     -12.656  13.614  65.288  1.00  0.00    -0.512 A  
HETATM   13  C   UNL     1     -11.319  15.399  66.308  1.00  0.00    -0.081 A  
HETATM   14  C   UNL     1     -13.137  14.541  64.357  1.00  0.00     0.824 A  
HETATM   15  O   UNL     1      -6.456  13.863  69.371  1.00  0.00    -0.110 OA 
HETATM   16  C   UNL     1      -6.268  18.516  70.618  1.00  0.00     0.442 C  
HETATM   17  C   UNL     1      -6.345  16.142  69.941  1.00  0.00    -0.138 C  
HETATM   18  C   UNL     1      -8.365  17.553  69.860  1.00  0.00     1.684 C  
HETATM   19  C   UNL     1     -12.733  15.872  64.397  1.00  0.00     0.949 A  
HETATM   20  N   UNL     1      -7.063  17.356  70.264  1.00  0.00     1.265 N  
HETATM   21  C   UNL     1     -11.829  16.316  65.368  1.00  0.00     0.979 A  
ENDROOT
BRANCH   6  22
HETATM   22  C   UNL     1      -8.721  12.472  68.959  1.00  0.00     0.482 A  
HETATM   23  C   UNL     1      -7.021  11.005  67.959  1.00  0.00    -0.068 A  
HETATM   24  C   UNL     1      -7.342  10.063  68.911  1.00  0.00    -0.080 A  
HETATM   25  C   UNL     1      -8.324  10.284  69.846  1.00  0.00    -0.001 A  
HETATM   26  C   UNL     1      -7.392   8.384  70.265  1.00  0.00    -0.055 C  
HETATM   27  C   UNL     1      -9.042  11.460  69.886  1.00  0.00     1.648 A  
HETATM   28  O   UNL     1      -6.738   8.854  69.069  1.00  0.00    -0.050 OA 
HETATM   29  C   UNL     1      -7.704  12.224  67.997  1.00  0.00    -0.132 A  
HETATM   30  O   UNL     1      -8.457   9.245  70.715  1.00  0.00    -0.197 OA 
ENDBRANCH   6  22
TORSDOF 1
ENDMDL
MODEL      129
REMARK 921   NORMALIZED FREE ENERGY PREDICTED BY IDOCK:    6.90 KCAL/MOL
REMARK 922        TOTAL FREE ENERGY PREDICTED BY IDOCK:    7.26 KCAL/MOL
REMARK 923 INTER-LIGAND FREE ENERGY PREDICTED BY IDOCK:    3.40 KCAL/MOL
REMARK 924 INTRA-LIGAND FREE ENERGY PREDICTED BY IDOCK:    3.86 KCAL/MOL
REMARK 927      BINDING AFFINITY PREDICTED BY RF-SCORE:    0.00 PKD
ROOT
HETATM    1  C   UNL     1      -8.690  15.610  68.700  1.00  0.00    -0.193 C  
HETATM    2  C   UNL     1      -7.998  14.481  69.501  1.00  0.00     0.137 C  
HETATM    3  C   UNL     1      -7.743  13.321  68.602  1.00  0.00    -0.080 A  
HETATM    4  C   UNL     1      -8.413  13.177  67.402  1.00  0.00    -0.201 A  
HETATM    5  N   UNL     1      -7.921  12.055  66.785  1.00  0.00    -0.339 NA 
HETATM    6  C   UNL     1      -9.456  14.112  66.825  1.00  0.00    -0.279 C  
HETATM    7  N   UNL     1      -9.825  15.096  67.890  1.00  0.00    -0.216 N  
HETATM    8  O   UNL     1      -7.997  17.293  70.276  1.00  0.00     1.960 OA 
HETATM    9  C   UNL     1      -7.006  11.428  67.607  1.00  0.00    -0.081 A  
HETATM   10  H   UNL     1      -8.192  11.732  65.856  1.00  0.00     0.000 HD 
HETATM   11  C   UNL     1     -11.129  15.373  68.260  1.00  0.00    -0.309 C  
HETATM   12  C   UNL     1      -6.299  10.235  67.417  1.00  0.00    -0.059 A  
HETATM   13  C   UNL     1      -6.866  12.214  68.751  1.00  0.00    -0.095 A  
HETATM   14  C   UNL     1      -5.421   9.835  68.430  1.00  0.00    -0.039 A  
HETATM   15  O   UNL     1     -12.132  14.817  67.813  1.00  0.00    -0.288 OA 
HETATM   16  C   UNL     1     -10.505  18.250  70.784  1.00  0.00     2.337 C  
HETATM   17  C   UNL     1     -11.350  16.467  69.297  1.00  0.00    -0.225 C  
HETATM   18  C   UNL     1      -8.931  16.785  69.652  1.00  0.00     0.575 C  
HETATM   19  C   UNL     1      -5.253  10.604  69.578  1.00  0.00    -0.038 A  
HETATM   20  N   UNL     1     -10.226  17.238  69.782  1.00  0.00     0.062 N  
HETATM   21  C   UNL     1      -5.965  11.797  69.750  1.00  0.00    -0.126 A  
ENDROOT
BRANCH   6  22
HETATM   22  C   UNL     1     -10.601  13.407  66.111  1.00  0.00    -0.294 A  
HETATM   23  C   UNL     1     -12.966  13.272  65.451  1.00  0.00    -0.171 A  
HETATM   24  C   UNL     1     -12.616  12.270  64.574  1.00  0.00    -0.327 A  
HETATM   25  C   UNL     1     -11.321  11.822  64.467  1.00  0.00    -0.281 A  
HETATM   26  C   UNL     1     -12.524  10.810  62.988  1.00  0.00     2.971 C  
HETATM   27  C   UNL     1     -10.301  12.349  65.229  1.00  0.00    -0.308 A  
HETATM   28  O   UNL     1     -13.457  11.640  63.711  1.00  0.00    -0.298 OA 
HETATM   29  C   UNL     1     -11.946  13.855  66.211  1.00  0.00    -0.462 A  
HETATM   30  O   UNL     1     -11.183  10.856  63.518  1.00  0.00     0.062 OA 
ENDBRANCH   6  22
TORSDOF 1
ENDMDL
MODEL      130
REMARK 921   NORMALIZED FREE ENERGY PREDICTED BY IDOCK:    8.53 KCAL/MOL
REMARK 922        TOTAL FREE ENERGY PREDICTED BY IDOCK:    8.98 KCAL/MOL
REMARK 923 INTER-LIGAND FREE ENERGY PREDICTED BY IDOCK:    8.76 KCAL/MOL
REMARK 924 INTRA-LIGAND FREE ENERGY PREDICTED BY IDOCK:    0.22 KCAL/MOL
REMARK 927      BINDING AFFINITY PREDICTED BY RF-SCORE:    0.00 PKD
ROOT
HETATM    1  C   UNL     1     -11.859   7.170  71.482  1.00  0.00    -0.313 C  
HETATM    2  C   UNL     1     -11.900   8.408  72.411  1.00  0.00    -0.452 C  
HETATM    3  C   UNL     1     -12.307   9.605  71.624  1.00  0.00    -0.489 A  
HETATM    4  C   UNL     1     -12.224   9.623  70.245  1.00  0.00     0.089 A  
HETATM    5  N   UNL     1     -12.720  10.828  69.816  1.00  0.00    -0.467 NA 
HETATM    6  C   UNL     1     -11.740   8.502  69.347  1.00  0.00     0.944 C  
HETATM    7  N   UNL     1     -11.127   7.453  70.220  1.00  0.00    -0.262 N  
HETATM    8  O   UNL     1     -12.080   5.645  73.332  1.00  0.00     0.497 OA 
HETATM    9  C   UNL     1     -13.041  11.618  70.902  1.00  0.00     0.101 A  
HETATM   10  H   UNL     1     -12.834  11.100  68.840  1.00  0.00     0.000 HD 
HETATM   11  C   UNL     1      -9.871   6.914  70.005  1.00  0.00    -0.173 C  
HETATM   12  C   UNL     1     -13.523  12.931  70.945  1.00  0.00     0.529 A  
HETATM   13  C   UNL     1     -12.803  10.865  72.052  1.00  0.00    -0.322 A  
HETATM   14  C   UNL     1     -13.769  13.490  72.203  1.00  0.00    -0.654 A  
HETATM   15  O   UNL     1      -9.087   7.259  69.122  1.00  0.00    -0.138 OA 
HETATM   16  C   UNL     1      -9.835   4.195  72.769  1.00  0.00    -0.145 C  
HETATM   17  C   UNL     1      -9.422   5.786  70.925  1.00  0.00    -0.165 C  
HETATM   18  C   UNL     1     -11.444   5.960  72.324  1.00  0.00    -0.297 C  
HETATM   19  C   UNL     1     -13.550  12.759  73.368  1.00  0.00     3.564 A  
HETATM   20  N   UNL     1     -10.336   5.253  71.913  1.00  0.00    -0.210 N  
HETATM   21  C   UNL     1     -13.072  11.444  73.307  1.00  0.00     5.122 A  
ENDROOT
BRANCH   6  22
HETATM   22  C   UNL     1     -10.921   8.969  68.151  1.00  0.00     0.015 A  
HETATM   23  C   UNL     1     -10.639   9.281  65.729  1.00  0.00     0.836 A  
HETATM   24  C   UNL     1      -9.552  10.080  66.006  1.00  0.00    -0.222 A  
HETATM   25  C   UNL     1      -9.134  10.312  67.294  1.00  0.00    -0.138 A  
HETATM   26  C   UNL     1      -7.920  11.490  65.954  1.00  0.00     0.270 C  
HETATM   27  C   UNL     1      -9.777   9.760  68.380  1.00  0.00    -0.162 A  
HETATM   28  O   UNL     1      -8.800  10.744  65.088  1.00  0.00    -0.195 OA 
HETATM   29  C   UNL     1     -11.337   8.737  66.812  1.00  0.00     1.721 A  
HETATM   30  O   UNL     1      -8.068  11.157  67.349  1.00  0.00    -0.125 OA 
ENDBRANCH   6  22
TORSDOF 1
ENDMDL
MODEL      131
REMARK 921   NORMALIZED FREE ENERGY PREDICTED BY IDOCK:    8.76 KCAL/MOL
REMARK 922        TOTAL FREE ENERGY PREDICTED BY IDOCK:    9.23 KCAL/MOL
REMARK 923 INTER-LIGAND FREE ENERGY PREDICTED BY IDOCK:    6.02 KCAL/MOL
REMARK 924 INTRA-LIGAND FREE ENERGY PREDICTED BY IDOCK:    3.21 KCAL/MOL
REMARK 927      BINDING AFFINITY PREDICTED BY RF-SCORE:    0.00 PKD
ROOT
HETATM    1  C   UNL     1     -11.469   8.785  69.724  1.00  0.00     0.223 C  
HETATM    2  C   UNL     1     -11.880   8.980  68.244  1.00  0.00     2.156 C  
HETATM    3  C   UNL     1     -11.297  10.251  67.732  1.00  0.00    -0.137 A  
HETATM    4  C   UNL     1     -10.849  11.236  68.590  1.00  0.00    -0.204 A  
HETATM    5  N   UNL     1     -10.321  12.244  67.823  1.00  0.00    -0.204 NA 
HETATM    6  C   UNL     1     -10.867  11.201  70.105  1.00  0.00     0.232 C  
HETATM    7  N   UNL     1     -11.684  10.020  70.522  1.00  0.00    -0.299 N  
HETATM    8  O   UNL     1     -11.854   6.410  69.625  1.00  0.00    -0.323 OA 
HETATM    9  C   UNL     1     -10.499  11.960  66.484  1.00  0.00    -0.221 A  
HETATM   10  H   UNL     1      -9.864  13.080  68.189  1.00  0.00     0.000 HD 
HETATM   11  C   UNL     1     -12.718  10.088  71.439  1.00  0.00    -0.415 C  
HETATM   12  C   UNL     1     -10.172  12.719  65.355  1.00  0.00    -0.299 A  
HETATM   13  C   UNL     1     -11.099  10.704  66.400  1.00  0.00     0.039 A  
HETATM   14  C   UNL     1     -10.468  12.174  64.101  1.00  0.00    -0.395 A  
HETATM   15  O   UNL     1     -13.130  11.115  71.976  1.00  0.00    -0.492 OA 
HETATM   16  C   UNL     1     -13.597   6.322  71.727  1.00  0.00     0.638 C  
HETATM   17  C   UNL     1     -13.396   8.782  71.834  1.00  0.00    -0.389 C  
HETATM   18  C   UNL     1     -12.080   7.469  70.215  1.00  0.00     0.212 C  
HETATM   19  C   UNL     1     -11.058  10.918  63.986  1.00  0.00     0.242 A  
HETATM   20  N   UNL     1     -12.890   7.524  71.327  1.00  0.00    -0.319 N  
HETATM   21  C   UNL     1     -11.375  10.171  65.126  1.00  0.00     2.241 A  
ENDROOT
BRANCH   6  22
HETATM   22  C   UNL     1     -11.201  12.536  70.756  1.00  0.00     1.742 A  
HETATM   23  C   UNL     1     -10.628  14.862  71.309  1.00  0.00     0.614 A  
HETATM   24  C   UNL     1     -11.937  15.044  71.695  1.00  0.00    -0.366 A  
HETATM   25  C   UNL     1     -12.855  14.023  71.644  1.00  0.00    -0.352 A  
HETATM   26  C   UNL     1     -13.867  15.828  72.255  1.00  0.00    -0.396 C  
HETATM   27  C   UNL     1     -12.519  12.761  71.203  1.00  0.00    -0.335 A  
HETATM   28  O   UNL     1     -12.483  16.212  72.128  1.00  0.00    -0.465 OA 
HETATM   29  C   UNL     1     -10.264  13.603  70.820  1.00  0.00     3.734 A  
HETATM   30  O   UNL     1     -14.097  14.422  72.033  1.00  0.00    -0.447 OA 
ENDBRANCH   6  22
TORSDOF 1
ENDMDL
MODEL      132
REMARK 921   NORMALIZED FREE ENERGY PREDICTED BY IDOCK:    8.82 KCAL/MOL
REMARK 922        TOTAL FREE ENERGY PREDICTED BY IDOCK:    9.29 KCAL/MOL
REMARK 923 INTER-LIGAND FREE ENERGY PREDICTED BY IDOCK:    9.22 KCAL/MOL
REMARK 924 INTRA-LIGAND FREE ENERGY PREDICTED BY IDOCK:    0.06 KCAL/MOL
REMARK 927      BINDING AFFINITY PREDICTED BY RF-SCORE:    0.00 PKD
ROOT
HETATM    1  C   UNL     1      -9.971   8.441  69.876  1.00  0.00    -0.190 C  
HETATM    2  C   UNL     1     -10.173   9.616  70.863  1.00  0.00    -0.303 C  
HETATM    3  C   UNL     1     -11.239  10.519  70.347  1.00  0.00    -0.378 A  
HETATM    4  C   UNL     1     -11.628  10.492  69.022  1.00  0.00    -0.207 A  
HETATM    5  N   UNL     1     -12.657  11.387  68.874  1.00  0.00    -0.182 NA 
HETATM    6  C   UNL     1     -11.077   9.597  67.930  1.00  0.00    -0.038 C  
HETATM    7  N   UNL     1      -9.861   8.914  68.471  1.00  0.00    -0.162 N  
HETATM    8  O   UNL     1      -8.973   7.052  71.571  1.00  0.00    -0.139 OA 
HETATM    9  C   UNL     1     -12.879  12.050  70.064  1.00  0.00     0.469 A  
HETATM   10  H   UNL     1     -13.180  11.540  68.012  1.00  0.00     0.000 HD 
HETATM   11  C   UNL     1      -8.641   8.890  67.819  1.00  0.00    -0.125 C  
HETATM   12  C   UNL     1     -13.782  13.077  70.364  1.00  0.00     1.956 A  
HETATM   13  C   UNL     1     -12.008  11.511  71.011  1.00  0.00    -0.095 A  
HETATM   14  C   UNL     1     -13.793  13.565  71.675  1.00  0.00    -0.187 A  
HETATM   15  O   UNL     1      -8.385   9.462  66.761  1.00  0.00    -0.121 OA 
HETATM   16  C   UNL     1      -6.665   6.551  70.198  1.00  0.00    -0.049 C  
HETATM   17  C   UNL     1      -7.521   8.075  68.452  1.00  0.00    -0.103 C  
HETATM   18  C   UNL     1      -8.874   7.532  70.440  1.00  0.00    -0.145 C  
HETATM   19  C   UNL     1     -12.943  13.040  72.643  1.00  0.00     0.055 A  
HETATM   20  N   UNL     1      -7.783   7.286  69.637  1.00  0.00    -0.103 N  
HETATM   21  C   UNL     1     -12.049  12.011  72.327  1.00  0.00     2.292 A  
ENDROOT
BRANCH   6  22
HETATM   22  C   UNL     1     -10.941  10.277  66.574  1.00  0.00     0.026 A  
HETATM   23  C   UNL     1     -11.538  10.473  64.198  1.00  0.00     2.477 A  
HETATM   24  C   UNL     1     -10.904  11.695  64.187  1.00  0.00    -0.372 A  
HETATM   25  C   UNL     1     -10.286  12.199  65.306  1.00  0.00    -0.274 A  
HETATM   26  C   UNL     1     -10.179  13.677  63.737  1.00  0.00     1.401 C  
HETATM   27  C   UNL     1     -10.267  11.513  66.501  1.00  0.00    -0.253 A  
HETATM   28  O   UNL     1     -10.833  12.545  63.127  1.00  0.00    -0.326 OA 
HETATM   29  C   UNL     1     -11.571   9.769  65.406  1.00  0.00     4.401 A  
HETATM   30  O   UNL     1      -9.754  13.434  65.093  1.00  0.00    -0.101 OA 
ENDBRANCH   6  22
TORSDOF 1
ENDMDL
MODEL      133
REMARK 921   NORMALIZED FREE ENERGY PREDICTED BY IDOCK:   10.09 KCAL/MOL
REMARK 922        TOTAL FREE ENERGY PREDICTED BY IDOCK:   10.63 KCAL/MOL
REMARK 923 INTER-LIGAND FREE ENERGY PREDICTED BY IDOCK:    8.74 KCAL/MOL
REMARK 924 INTRA-LIGAND FREE ENERGY PREDICTED BY IDOCK:    1.89 KCAL/MOL
REMARK 927      BINDING AFFINITY PREDICTED BY RF-SCORE:    0.00 PKD
ROOT
HETATM    1  C   UNL     1      -9.509  10.611  70.304  1.00  0.00     1.026 C  
HETATM    2  C   UNL     1      -9.004   9.855  69.052  1.00  0.00    -0.160 C  
HETATM    3  C   UNL     1      -8.198  10.780  68.207  1.00  0.00    -0.124 A  
HETATM    4  C   UNL     1      -8.286  12.151  68.351  1.00  0.00    -0.143 A  
HETATM    5  N   UNL     1      -7.389  12.718  67.482  1.00  0.00    -0.145 NA 
HETATM    6  C   UNL     1      -9.160  12.908  69.331  1.00  0.00     1.284 C  
HETATM    7  N   UNL     1     -10.103  11.927  69.952  1.00  0.00     1.229 N  
HETATM    8  O   UNL     1      -9.837   8.567  71.533  1.00  0.00    -0.194 OA 
HETATM    9  C   UNL     1      -6.786  11.736  66.721  1.00  0.00    -0.050 A  
HETATM   10  H   UNL     1      -7.197  13.717  67.409  1.00  0.00     0.000 HD 
HETATM   11  C   UNL     1     -11.472  12.116  70.021  1.00  0.00    -0.075 C  
HETATM   12  C   UNL     1      -5.856  11.851  65.682  1.00  0.00     1.814 A  
HETATM   13  C   UNL     1      -7.269  10.506  67.169  1.00  0.00    -0.092 A  
HETATM   14  C   UNL     1      -5.406  10.670  65.083  1.00  0.00    -0.151 A  
HETATM   15  O   UNL     1     -12.086  13.067  69.539  1.00  0.00    -0.293 OA 
HETATM   16  C   UNL     1     -12.465   9.016  72.127  1.00  0.00    -0.380 C  
HETATM   17  C   UNL     1     -12.291  11.071  70.767  1.00  0.00    -0.398 C  
HETATM   18  C   UNL     1     -10.327   9.631  71.151  1.00  0.00    -0.166 C  
HETATM   19  C   UNL     1      -5.862   9.428  65.515  1.00  0.00    -0.058 A  
HETATM   20  N   UNL     1     -11.623   9.987  71.454  1.00  0.00    -0.351 N  
HETATM   21  C   UNL     1      -6.789   9.331  66.559  1.00  0.00    -0.080 A  
ENDROOT
BRANCH   6  22
HETATM   22  C   UNL     1      -9.767  14.187  68.768  1.00  0.00    -0.148 A  
HETATM   23  C   UNL     1     -10.248  15.688  66.882  1.00  0.00    -0.281 A  
HETATM   24  C   UNL     1     -11.118  16.367  67.706  1.00  0.00    -0.199 A  
HETATM   25  C   UNL     1     -11.306  16.004  69.017  1.00  0.00    -0.363 A  
HETATM   26  C   UNL     1     -12.662  17.616  68.550  1.00  0.00     5.863 C  
HETATM   27  C   UNL     1     -10.636  14.940  69.582  1.00  0.00    -0.213 A  
HETATM   28  O   UNL     1     -11.898  17.421  67.342  1.00  0.00     1.068 OA 
HETATM   29  C   UNL     1      -9.582  14.580  67.415  1.00  0.00    -0.212 A  
HETATM   30  O   UNL     1     -12.233  16.779  69.643  1.00  0.00     0.735 OA 
ENDBRANCH   6  22
TORSDOF 1
ENDMDL
MODEL      134
REMARK 921   NORMALIZED FREE ENERGY PREDICTED BY IDOCK:   10.99 KCAL/MOL
REMARK 922        TOTAL FREE ENERGY PREDICTED BY IDOCK:   11.58 KCAL/MOL
REMARK 923 INTER-LIGAND FREE ENERGY PREDICTED BY IDOCK:   11.56 KCAL/MOL
REMARK 924 INTRA-LIGAND FREE ENERGY PREDICTED BY IDOCK:    0.03 KCAL/MOL
REMARK 927      BINDING AFFINITY PREDICTED BY RF-SCORE:    0.00 PKD
ROOT
HETATM    1  C   UNL     1      -9.029  18.080  65.813  1.00  0.00     0.419 C  
HETATM    2  C   UNL     1      -8.464  18.321  67.234  1.00  0.00    -0.250 C  
HETATM    3  C   UNL     1      -7.853  17.062  67.744  1.00  0.00    -0.188 A  
HETATM    4  C   UNL     1      -8.153  15.836  67.183  1.00  0.00    -0.211 A  
HETATM    5  N   UNL     1      -7.396  14.890  67.826  1.00  0.00    -0.149 NA 
HETATM    6  C   UNL     1      -9.094  15.570  66.025  1.00  0.00    -0.281 C  
HETATM    7  N   UNL     1      -9.841  16.836  65.746  1.00  0.00    -0.233 N  
HETATM    8  O   UNL     1      -8.974  20.427  65.281  1.00  0.00     0.265 OA 
HETATM    9  C   UNL     1      -6.677  15.477  68.847  1.00  0.00    -0.116 A  
HETATM   10  H   UNL     1      -7.369  13.899  67.584  1.00  0.00     0.000 HD 
HETATM   11  C   UNL     1     -11.218  16.906  65.635  1.00  0.00     0.384 C  
HETATM   12  C   UNL     1      -5.822  14.897  69.791  1.00  0.00    -0.116 A  
HETATM   13  C   UNL     1      -6.937  16.847  68.807  1.00  0.00    -0.204 A  
HETATM   14  C   UNL     1      -5.215  15.746  70.723  1.00  0.00    -0.160 A  
HETATM   15  O   UNL     1     -11.997  15.969  65.805  1.00  0.00     0.761 OA 
HETATM   16  C   UNL     1     -11.612  20.622  64.601  1.00  0.00     2.693 C  
HETATM   17  C   UNL     1     -11.827  18.250  65.256  1.00  0.00     4.000 C  
HETATM   18  C   UNL     1      -9.644  19.393  65.319  1.00  0.00     1.291 C  
HETATM   19  C   UNL     1      -5.448  17.118  70.701  1.00  0.00    -0.165 A  
HETATM   20  N   UNL     1     -10.966  19.367  64.933  1.00  0.00     0.920 N  
HETATM   21  C   UNL     1      -6.302  17.683  69.747  1.00  0.00    -0.126 A  
ENDROOT
BRANCH   6  22
HETATM   22  C   UNL     1      -9.921  14.300  66.170  1.00  0.00    -0.330 A  
HETATM   23  C   UNL     1     -11.356  12.809  67.497  1.00  0.00    -0.361 A  
HETATM   24  C   UNL     1     -11.652  12.135  66.333  1.00  0.00    -0.364 A  
HETATM   25  C   UNL     1     -11.100  12.496  65.127  1.00  0.00    -0.299 A  
HETATM   26  C   UNL     1     -12.509  10.897  64.788  1.00  0.00     3.312 C  
HETATM   27  C   UNL     1     -10.221  13.551  65.014  1.00  0.00    -0.345 A  
HETATM   28  O   UNL     1     -12.515  11.090  66.217  1.00  0.00     2.023 OA 
HETATM   29  C   UNL     1     -10.498  13.910  67.409  1.00  0.00    -0.263 A  
HETATM   30  O   UNL     1     -11.551  11.727  64.099  1.00  0.00    -0.350 OA 
ENDBRANCH   6  22
TORSDOF 1
ENDMDL
MODEL      135
REMARK 921   NORMALIZED FREE ENERGY PREDICTED BY IDOCK:   13.24 KCAL/MOL
REMARK 922        TOTAL FREE ENERGY PREDICTED BY IDOCK:   13.96 KCAL/MOL
REMARK 923 INTER-LIGAND FREE ENERGY PREDICTED BY IDOCK:    9.36 KCAL/MOL
REMARK 924 INTRA-LIGAND FREE ENERGY PREDICTED BY IDOCK:    4.60 KCAL/MOL
REMARK 927      BINDING AFFINITY PREDICTED BY RF-SCORE:    0.00 PKD
ROOT
HETATM    1  C   UNL     1      -7.738  13.879  66.541  1.00  0.00     1.278 C  
HETATM    2  C   UNL     1      -7.980  15.129  67.421  1.00  0.00    -0.215 C  
HETATM    3  C   UNL     1      -7.128  15.048  68.640  1.00  0.00    -0.109 A  
HETATM    4  C   UNL     1      -6.576  13.852  69.056  1.00  0.00    -0.107 A  
HETATM    5  N   UNL     1      -5.806  14.112  70.161  1.00  0.00    -0.129 NA 
HETATM    6  C   UNL     1      -6.728  12.499  68.389  1.00  0.00    -0.081 C  
HETATM    7  N   UNL     1      -7.784  12.626  67.338  1.00  0.00    -0.161 N  
HETATM    8  O   UNL     1      -8.552  14.988  64.564  1.00  0.00     4.341 OA 
HETATM    9  C   UNL     1      -5.921  15.442  70.512  1.00  0.00    -0.026 A  
HETATM   10  H   UNL     1      -5.233  13.425  70.650  1.00  0.00     0.000 HD 
HETATM   11  C   UNL     1      -8.860  11.764  67.223  1.00  0.00    -0.167 C  
HETATM   12  C   UNL     1      -5.364  16.137  71.592  1.00  0.00     0.235 A  
HETATM   13  C   UNL     1      -6.738  16.056  69.561  1.00  0.00    -0.199 A  
HETATM   14  C   UNL     1      -5.651  17.502  71.700  1.00  0.00     0.682 A  
HETATM   15  O   UNL     1      -9.116  10.835  67.988  1.00  0.00    -0.143 OA 
HETATM   16  C   UNL     1     -10.451  13.120  63.958  1.00  0.00    -0.234 C  
HETATM   17  C   UNL     1      -9.802  11.966  66.043  1.00  0.00    -0.235 C  
HETATM   18  C   UNL     1      -8.624  13.999  65.297  1.00  0.00     3.090 C  
HETATM   19  C   UNL     1      -6.454  18.143  70.761  1.00  0.00     1.322 A  
HETATM   20  N   UNL     1      -9.500  12.967  65.042  1.00  0.00     0.269 N  
HETATM   21  C   UNL     1      -7.000  17.434  69.685  1.00  0.00     0.130 A  
ENDROOT
BRANCH   6  22
HETATM   22  C   UNL     1      -6.859  11.334  69.362  1.00  0.00    -0.121 A  
HETATM   23  C   UNL     1      -6.315  10.246  71.498  1.00  0.00     0.577 A  
HETATM   24  C   UNL     1      -7.328   9.348  71.245  1.00  0.00     0.123 A  
HETATM   25  C   UNL     1      -8.076   9.407  70.094  1.00  0.00    -0.157 A  
HETATM   26  C   UNL     1      -8.873   7.846  71.353  1.00  0.00    -0.135 C  
HETATM   27  C   UNL     1      -7.856  10.366  69.129  1.00  0.00    -0.134 A  
HETATM   28  O   UNL     1      -7.730   8.348  72.075  1.00  0.00    -0.118 OA 
HETATM   29  C   UNL     1      -6.093  11.256  70.556  1.00  0.00    -0.070 A  
HETATM   30  O   UNL     1      -9.048   8.454  70.057  1.00  0.00    -0.147 OA 
ENDBRANCH   6  22
TORSDOF 1
ENDMDL
MODEL      136
REMARK 921   NORMALIZED FREE ENERGY PREDICTED BY IDOCK:   17.90 KCAL/MOL
REMARK 922        TOTAL FREE ENERGY PREDICTED BY IDOCK:   18.90 KCAL/MOL
REMARK 923 INTER-LIGAND FREE ENERGY PREDICTED BY IDOCK:   18.51 KCAL/MOL
REMARK 924 INTRA-LIGAND FREE ENERGY PREDICTED BY IDOCK:    0.39 KCAL/MOL
REMARK 927      BINDING AFFINITY PREDICTED BY RF-SCORE:    0.00 PKD
ROOT
HETATM    1  C   UNL     1     -11.135  10.690  68.135  1.00  0.00    -0.285 C  
HETATM    2  C   UNL     1     -10.258  11.791  67.493  1.00  0.00    -0.214 C  
HETATM    3  C   UNL     1      -9.886  11.383  66.110  1.00  0.00    -0.255 A  
HETATM    4  C   UNL     1      -9.975  10.068  65.697  1.00  0.00    -0.285 A  
HETATM    5  N   UNL     1      -9.622  10.024  64.372  1.00  0.00    -0.354 NA 
HETATM    6  C   UNL     1     -10.438   8.884  66.523  1.00  0.00    -0.105 C  
HETATM    7  N   UNL     1     -10.550   9.337  67.944  1.00  0.00    -0.246 N  
HETATM    8  O   UNL     1     -12.068  12.224  69.740  1.00  0.00    -0.287 OA 
HETATM    9  C   UNL     1      -9.226  11.277  63.949  1.00  0.00    -0.062 A  
HETATM   10  H   UNL     1      -9.648   9.190  63.786  1.00  0.00     0.000 HD 
HETATM   11  C   UNL     1      -9.975   8.668  69.010  1.00  0.00    -0.192 C  
HETATM   12  C   UNL     1      -8.738  11.691  62.704  1.00  0.00     0.302 A  
HETATM   13  C   UNL     1      -9.397  12.153  65.021  1.00  0.00     0.202 A  
HETATM   14  C   UNL     1      -8.414  13.044  62.554  1.00  0.00     7.943 A  
HETATM   15  O   UNL     1      -9.264   7.667  68.925  1.00  0.00    -0.140 OA 
HETATM   16  C   UNL     1     -11.375  10.774  71.949  1.00  0.00     2.437 C  
HETATM   17  C   UNL     1     -10.255   9.199  70.409  1.00  0.00    -0.222 C  
HETATM   18  C   UNL     1     -11.503  11.144  69.551  1.00  0.00    -0.303 C  
HETATM   19  C   UNL     1      -8.583  13.943  63.603  1.00  0.00    10.221 A  
HETATM   20  N   UNL     1     -11.171  10.305  70.591  1.00  0.00    -0.330 N  
HETATM   21  C   UNL     1      -9.077  13.513  64.840  1.00  0.00     1.710 A  
ENDROOT
BRANCH   6  22
HETATM   22  C   UNL     1      -9.660   7.601  66.266  1.00  0.00    -0.155 A  
HETATM   23  C   UNL     1      -9.518   5.147  66.216  1.00  0.00    -0.164 A  
HETATM   24  C   UNL     1      -8.334   5.277  65.526  1.00  0.00    -0.130 A  
HETATM   25  C   UNL     1      -7.802   6.507  65.225  1.00  0.00    -0.109 A  
HETATM   26  C   UNL     1      -6.565   4.986  64.324  1.00  0.00    -0.042 C  
HETATM   27  C   UNL     1      -8.423   7.680  65.595  1.00  0.00    -0.152 A  
HETATM   28  O   UNL     1      -7.580   4.253  65.041  1.00  0.00    -0.076 OA 
HETATM   29  C   UNL     1     -10.193   6.319  66.573  1.00  0.00    -0.163 A  
HETATM   30  O   UNL     1      -6.650   6.413  64.507  1.00  0.00    -0.033 OA 
ENDBRANCH   6  22
TORSDOF 1
ENDMDL
MODEL      137
REMARK 921   NORMALIZED FREE ENERGY PREDICTED BY IDOCK:   18.90 KCAL/MOL
REMARK 922        TOTAL FREE ENERGY PREDICTED BY IDOCK:   19.96 KCAL/MOL
REMARK 923 INTER-LIGAND FREE ENERGY PREDICTED BY IDOCK:   19.50 KCAL/MOL
REMARK 924 INTRA-LIGAND FREE ENERGY PREDICTED BY IDOCK:    0.46 KCAL/MOL
REMARK 927      BINDING AFFINITY PREDICTED BY RF-SCORE:    0.00 PKD
ROOT
HETATM    1  C   UNL     1     -10.976  15.627  71.962  1.00  0.00     0.253 C  
HETATM    2  C   UNL     1      -9.432  15.537  72.028  1.00  0.00     5.035 C  
HETATM    3  C   UNL     1      -8.850  16.090  70.774  1.00  0.00     2.894 A  
HETATM    4  C   UNL     1      -9.609  16.236  69.629  1.00  0.00     0.007 A  
HETATM    5  N   UNL     1      -8.813  16.818  68.675  1.00  0.00    -0.247 NA 
HETATM    6  C   UNL     1     -11.074  15.886  69.458  1.00  0.00    -0.315 C  
HETATM    7  N   UNL     1     -11.503  15.119  70.668  1.00  0.00    -0.284 N  
HETATM    8  O   UNL     1     -11.188  15.513  74.357  1.00  0.00     1.294 OA 
HETATM    9  C   UNL     1      -7.530  16.970  69.161  1.00  0.00    -0.162 A  
HETATM   10  H   UNL     1      -9.124  17.096  67.744  1.00  0.00     0.000 HD 
HETATM   11  C   UNL     1     -12.166  13.906  70.613  1.00  0.00    -0.373 C  
HETATM   12  C   UNL     1      -6.383  17.462  68.528  1.00  0.00    -0.176 A  
HETATM   13  C   UNL     1      -7.531  16.531  70.486  1.00  0.00     2.412 A  
HETATM   14  C   UNL     1      -5.201  17.506  69.274  1.00  0.00    -0.173 A  
HETATM   15  O   UNL     1     -12.434  13.285  69.585  1.00  0.00    -0.152 OA 
HETATM   16  C   UNL     1     -12.876  13.365  74.386  1.00  0.00     7.554 C  
HETATM   17  C   UNL     1     -12.621  13.291  71.930  1.00  0.00    -0.040 C  
HETATM   18  C   UNL     1     -11.540  15.057  73.267  1.00  0.00    -0.012 C  
HETATM   19  C   UNL     1      -5.174  17.085  70.601  1.00  0.00    -0.237 A  
HETATM   20  N   UNL     1     -12.439  14.019  73.167  1.00  0.00     0.019 N  
HETATM   21  C   UNL     1      -6.331  16.600  71.220  1.00  0.00     2.113 A  
ENDROOT
BRANCH   6  22
HETATM   22  C   UNL     1     -11.418  15.285  68.102  1.00  0.00    -0.357 A  
HETATM   23  C   UNL     1     -12.437  15.454  65.871  1.00  0.00     1.014 A  
HETATM   24  C   UNL     1     -11.790  14.285  65.538  1.00  0.00    -0.363 A  
HETATM   25  C   UNL     1     -11.001  13.613  66.440  1.00  0.00    -0.297 A  
HETATM   26  C   UNL     1     -10.880  12.606  64.535  1.00  0.00    -0.336 C  
HETATM   27  C   UNL     1     -10.812  14.069  67.726  1.00  0.00    -0.257 A  
HETATM   28  O   UNL     1     -11.815  13.682  64.319  1.00  0.00    -0.396 OA 
HETATM   29  C   UNL     1     -12.234  15.965  67.158  1.00  0.00     1.338 A  
HETATM   30  O   UNL     1     -10.425  12.504  65.900  1.00  0.00    -0.255 OA 
ENDBRANCH   6  22
TORSDOF 1
ENDMDL
MODEL      138
REMARK 921   NORMALIZED FREE ENERGY PREDICTED BY IDOCK:   23.75 KCAL/MOL
REMARK 922        TOTAL FREE ENERGY PREDICTED BY IDOCK:   25.09 KCAL/MOL
REMARK 923 INTER-LIGAND FREE ENERGY PREDICTED BY IDOCK:   22.75 KCAL/MOL
REMARK 924 INTRA-LIGAND FREE ENERGY PREDICTED BY IDOCK:    2.35 KCAL/MOL
REMARK 927      BINDING AFFINITY PREDICTED BY RF-SCORE:    0.00 PKD
ROOT
HETATM    1  C   UNL     1      -7.915  15.272  68.678  1.00  0.00    -0.149 C  
HETATM    2  C   UNL     1      -6.904  15.938  67.713  1.00  0.00    -0.174 C  
HETATM    3  C   UNL     1      -7.635  16.516  66.552  1.00  0.00    -0.304 A  
HETATM    4  C   UNL     1      -8.921  16.119  66.239  1.00  0.00    -0.344 A  
HETATM    5  N   UNL     1      -9.336  16.866  65.166  1.00  0.00     0.636 NA 
HETATM    6  C   UNL     1      -9.761  15.094  66.974  1.00  0.00    -0.231 C  
HETATM    7  N   UNL     1      -8.873  14.396  67.954  1.00  0.00    -0.171 N  
HETATM    8  O   UNL     1      -6.391  15.413  70.537  1.00  0.00    -0.033 OA 
HETATM    9  C   UNL     1      -8.308  17.678  64.732  1.00  0.00     5.085 A  
HETATM   10  H   UNL     1     -10.267  16.828  64.751  1.00  0.00     0.000 HD 
HETATM   11  C   UNL     1      -8.776  13.020  68.058  1.00  0.00    -0.187 C  
HETATM   12  C   UNL     1      -8.258  18.561  63.646  1.00  0.00    13.336 A  
HETATM   13  C   UNL     1      -7.230  17.486  65.597  1.00  0.00     0.185 A  
HETATM   14  C   UNL     1      -7.069  19.268  63.442  1.00  0.00     4.545 A  
HETATM   15  O   UNL     1      -9.351  12.207  67.336  1.00  0.00    -0.174 OA 
HETATM   16  C   UNL     1      -6.443  12.750  71.143  1.00  0.00     1.815 C  
HETATM   17  C   UNL     1      -7.899  12.457  69.169  1.00  0.00     0.351 C  
HETATM   18  C   UNL     1      -7.130  14.695  69.861  1.00  0.00    -0.056 C  
HETATM   19  C   UNL     1      -5.981  19.105  64.294  1.00  0.00    -0.225 A  
HETATM   20  N   UNL     1      -7.282  13.352  70.125  1.00  0.00     0.845 N  
HETATM   21  C   UNL     1      -6.049  18.221  65.378  1.00  0.00    -0.248 A  
ENDROOT
BRANCH   6  22
HETATM   22  C   UNL     1     -10.610  14.215  66.065  1.00  0.00    -0.297 A  
HETATM   23  C   UNL     1     -12.612  13.850  64.685  1.00  0.00    -0.287 A  
HETATM   24  C   UNL     1     -12.005  12.718  64.188  1.00  0.00    -0.427 A  
HETATM   25  C   UNL     1     -10.762  12.317  64.613  1.00  0.00    -0.308 A  
HETATM   26  C   UNL     1     -11.411  10.991  63.039  1.00  0.00     0.996 C  
HETATM   27  C   UNL     1     -10.051  13.024  65.558  1.00  0.00    -0.270 A  
HETATM   28  O   UNL     1     -12.516  11.899  63.230  1.00  0.00    -0.571 OA 
HETATM   29  C   UNL     1     -11.899  14.612  65.617  1.00  0.00    -0.273 A  
HETATM   30  O   UNL     1     -10.330  11.198  63.971  1.00  0.00    -0.321 OA 
ENDBRANCH   6  22
TORSDOF 1
ENDMDL
MODEL      139
REMARK 921   NORMALIZED FREE ENERGY PREDICTED BY IDOCK:   27.37 KCAL/MOL
REMARK 922        TOTAL FREE ENERGY PREDICTED BY IDOCK:   28.92 KCAL/MOL
REMARK 923 INTER-LIGAND FREE ENERGY PREDICTED BY IDOCK:   26.37 KCAL/MOL
REMARK 924 INTRA-LIGAND FREE ENERGY PREDICTED BY IDOCK:    2.55 KCAL/MOL
REMARK 927      BINDING AFFINITY PREDICTED BY RF-SCORE:    0.00 PKD
ROOT
HETATM    1  C   UNL     1     -11.565  10.763  65.799  1.00  0.00     1.126 C  
HETATM    2  C   UNL     1     -12.369   9.779  66.683  1.00  0.00     7.442 C  
HETATM    3  C   UNL     1     -11.450   8.744  67.233  1.00  0.00     1.701 A  
HETATM    4  C   UNL     1     -10.210   8.509  66.672  1.00  0.00    -0.275 A  
HETATM    5  N   UNL     1      -9.587   7.550  67.430  1.00  0.00    -0.143 NA 
HETATM    6  C   UNL     1      -9.602   9.217  65.477  1.00  0.00    -0.169 C  
HETATM    7  N   UNL     1     -10.675  10.048  64.847  1.00  0.00     0.655 N  
HETATM    8  O   UNL     1     -13.231  12.487  66.022  1.00  0.00     0.947 OA 
HETATM    9  C   UNL     1     -10.440   7.105  68.419  1.00  0.00    -0.197 A  
HETATM   10  H   UNL     1      -8.634   7.216  67.284  1.00  0.00     0.000 HD 
HETATM   11  C   UNL     1     -10.978  10.015  63.497  1.00  0.00     3.307 C  
HETATM   12  C   UNL     1     -10.254   6.106  69.381  1.00  0.00    -0.248 A  
HETATM   13  C   UNL     1     -11.615   7.851  68.325  1.00  0.00     1.418 A  
HETATM   14  C   UNL     1     -11.303   5.864  70.275  1.00  0.00    -0.232 A  
HETATM   15  O   UNL     1     -10.456   9.273  62.666  1.00  0.00     3.010 OA 
HETATM   16  C   UNL     1     -13.622  12.846  63.342  1.00  0.00     2.612 C  
HETATM   17  C   UNL     1     -12.033  10.988  62.988  1.00  0.00     1.365 C  
HETATM   18  C   UNL     1     -12.538  11.814  65.256  1.00  0.00     1.244 C  
HETATM   19  C   UNL     1     -12.483   6.600  70.211  1.00  0.00     0.292 A  
HETATM   20  N   UNL     1     -12.608  11.965  63.888  1.00  0.00    -0.394 N  
HETATM   21  C   UNL     1     -12.651   7.599  69.245  1.00  0.00     3.183 A  
ENDROOT
BRANCH   6  22
HETATM   22  C   UNL     1      -8.802   8.309  64.553  1.00  0.00     0.257 A  
HETATM   23  C   UNL     1      -7.566   7.918  62.464  1.00  0.00    -0.113 A  
HETATM   24  C   UNL     1      -7.106   6.741  63.011  1.00  0.00    -0.058 A  
HETATM   25  C   UNL     1      -7.481   6.332  64.268  1.00  0.00    -0.086 A  
HETATM   26  C   UNL     1      -6.033   4.932  63.493  1.00  0.00    -0.018 C  
HETATM   27  C   UNL     1      -8.337   7.075  65.052  1.00  0.00    -0.051 A  
HETATM   28  O   UNL     1      -6.232   5.880  62.424  1.00  0.00    -0.025 OA 
HETATM   29  C   UNL     1      -8.406   8.714  63.250  1.00  0.00    -0.137 A  
HETATM   30  O   UNL     1      -6.885   5.164  64.633  1.00  0.00    -0.047 OA 
ENDBRANCH   6  22
TORSDOF 1
ENDMDL
MODEL      140
REMARK 921   NORMALIZED FREE ENERGY PREDICTED BY IDOCK:   47.06 KCAL/MOL
REMARK 922        TOTAL FREE ENERGY PREDICTED BY IDOCK:   49.76 KCAL/MOL
REMARK 923 INTER-LIGAND FREE ENERGY PREDICTED BY IDOCK:   45.97 KCAL/MOL
REMARK 924 INTRA-LIGAND FREE ENERGY PREDICTED BY IDOCK:    3.79 KCAL/MOL
REMARK 927      BINDING AFFINITY PREDICTED BY RF-SCORE:    0.00 PKD
ROOT
HETATM    1  C   UNL     1     -11.346  16.583  72.160  1.00  0.00     0.287 C  
HETATM    2  C   UNL     1      -9.878  16.862  72.564  1.00  0.00     8.864 C  
HETATM    3  C   UNL     1      -9.293  17.870  71.637  1.00  0.00     9.287 A  
HETATM    4  C   UNL     1      -9.867  18.140  70.410  1.00  0.00     2.124 A  
HETATM    5  N   UNL     1      -9.139  19.144  69.823  1.00  0.00     0.501 NA 
HETATM    6  C   UNL     1     -11.112  17.502  69.827  1.00  0.00     1.131 C  
HETATM    7  N   UNL     1     -11.481  16.344  70.700  1.00  0.00    -0.277 N  
HETATM    8  O   UNL     1     -11.898  15.751  74.352  1.00  0.00    -0.222 OA 
HETATM    9  C   UNL     1      -8.056  19.465  70.617  1.00  0.00     2.126 A  
HETATM   10  H   UNL     1      -9.364  19.587  68.932  1.00  0.00     0.000 HD 
HETATM   11  C   UNL     1     -11.733  15.071  70.220  1.00  0.00    -0.294 C  
HETATM   12  C   UNL     1      -7.022  20.382  70.396  1.00  0.00     0.526 A  
HETATM   13  C   UNL     1      -8.139  18.686  71.771  1.00  0.00     8.564 A  
HETATM   14  C   UNL     1      -6.044  20.506  71.388  1.00  0.00    -0.075 A  
HETATM   15  O   UNL     1     -11.633  14.718  69.046  1.00  0.00    -0.268 OA 
HETATM   16  C   UNL     1     -12.847  13.334  73.503  1.00  0.00     2.957 C  
HETATM   17  C   UNL     1     -12.189  14.018  71.222  1.00  0.00    -0.310 C  
HETATM   18  C   UNL     1     -11.916  15.548  73.136  1.00  0.00    -0.466 C  
HETATM   19  C   UNL     1      -6.106  19.750  72.555  1.00  0.00     0.995 A  
HETATM   20  N   UNL     1     -12.436  14.391  72.599  1.00  0.00    -0.236 N  
HETATM   21  C   UNL     1      -7.149  18.840  72.762  1.00  0.00     5.311 A  
ENDROOT
BRANCH   6  22
HETATM   22  C   UNL     1     -11.037  17.239  68.329  1.00  0.00    -0.064 A  
HETATM   23  C   UNL     1     -11.122  15.708  66.408  1.00  0.00    -0.123 A  
HETATM   24  C   UNL     1     -11.185  16.813  65.589  1.00  0.00     0.337 A  
HETATM   25  C   UNL     1     -11.155  18.090  66.094  1.00  0.00     0.549 A  
HETATM   26  C   UNL     1     -11.451  18.202  63.959  1.00  0.00     6.362 C  
HETATM   27  C   UNL     1     -11.061  18.338  67.446  1.00  0.00     0.054 A  
HETATM   28  O   UNL     1     -11.313  16.792  64.235  1.00  0.00    -1.170 OA 
HETATM   29  C   UNL     1     -11.066  15.925  67.788  1.00  0.00    -0.288 A  
HETATM   30  O   UNL     1     -11.266  19.035  65.121  1.00  0.00    -0.212 OA 
ENDBRANCH   6  22
TORSDOF 1
ENDMDL
MODEL      141
REMARK 921   NORMALIZED FREE ENERGY PREDICTED BY IDOCK:   51.95 KCAL/MOL
REMARK 922        TOTAL FREE ENERGY PREDICTED BY IDOCK:   54.94 KCAL/MOL
REMARK 923 INTER-LIGAND FREE ENERGY PREDICTED BY IDOCK:   51.18 KCAL/MOL
REMARK 924 INTRA-LIGAND FREE ENERGY PREDICTED BY IDOCK:    3.76 KCAL/MOL
REMARK 927      BINDING AFFINITY PREDICTED BY RF-SCORE:    0.00 PKD
ROOT
HETATM    1  C   UNL     1      -7.001  13.897  65.566  1.00  0.00     9.100 C  
HETATM    2  C   UNL     1      -7.336  15.344  65.130  1.00  0.00     8.686 C  
HETATM    3  C   UNL     1      -8.016  16.053  66.249  1.00  0.00    -0.049 A  
HETATM    4  C   UNL     1      -8.597  15.361  67.295  1.00  0.00    -0.195 A  
HETATM    5  N   UNL     1      -9.083  16.285  68.184  1.00  0.00    -0.186 NA 
HETATM    6  C   UNL     1      -8.641  13.857  67.478  1.00  0.00    -0.193 C  
HETATM    7  N   UNL     1      -8.165  13.230  66.206  1.00  0.00     0.763 N  
HETATM    8  O   UNL     1      -5.281  13.682  63.895  1.00  0.00    12.416 OA 
HETATM    9  C   UNL     1      -8.900  17.560  67.686  1.00  0.00    -0.228 A  
HETATM   10  H   UNL     1      -9.517  16.064  69.080  1.00  0.00     0.000 HD 
HETATM   11  C   UNL     1      -8.854  12.234  65.537  1.00  0.00     0.548 C  
HETATM   12  C   UNL     1      -9.284  18.795  68.219  1.00  0.00    -0.366 A  
HETATM   13  C   UNL     1      -8.217  17.440  66.475  1.00  0.00    -0.311 A  
HETATM   14  C   UNL     1      -8.959  19.944  67.490  1.00  0.00    -0.422 A  
HETATM   15  O   UNL     1      -9.952  11.784  65.861  1.00  0.00    -0.222 OA 
HETATM   16  C   UNL     1      -6.300  11.430  62.732  1.00  0.00     0.876 C  
HETATM   17  C   UNL     1      -8.196  11.629  64.304  1.00  0.00     1.406 C  
HETATM   18  C   UNL     1      -6.299  13.201  64.395  1.00  0.00    14.876 C  
HETATM   19  C   UNL     1      -8.270  19.857  66.284  1.00  0.00    -0.357 A  
HETATM   20  N   UNL     1      -6.857  12.031  63.929  1.00  0.00     4.433 N  
HETATM   21  C   UNL     1      -7.889  18.613  65.767  1.00  0.00     0.049 A  
ENDROOT
BRANCH   6  22
HETATM   22  C   UNL     1      -9.950  13.336  68.056  1.00  0.00    -0.233 A  
HETATM   23  C   UNL     1     -11.956  11.923  67.904  1.00  0.00    -0.189 A  
HETATM   24  C   UNL     1     -12.180  12.179  69.238  1.00  0.00    -0.051 A  
HETATM   25  C   UNL     1     -11.349  12.994  69.969  1.00  0.00     0.113 A  
HETATM   26  C   UNL     1     -12.839  12.167  71.293  1.00  0.00    -0.250 C  
HETATM   27  C   UNL     1     -10.246  13.601  69.409  1.00  0.00     0.350 A  
HETATM   28  O   UNL     1     -13.187  11.657  69.989  1.00  0.00     0.542 OA 
HETATM   29  C   UNL     1     -10.822  12.493  67.315  1.00  0.00    -0.277 A  
HETATM   30  O   UNL     1     -11.726  13.084  71.273  1.00  0.00     0.552 OA 
ENDBRANCH   6  22
TORSDOF 1
ENDMDL
MODEL      142
REMARK 921   NORMALIZED FREE ENERGY PREDICTED BY IDOCK:   55.49 KCAL/MOL
REMARK 922        TOTAL FREE ENERGY PREDICTED BY IDOCK:   58.69 KCAL/MOL
REMARK 923 INTER-LIGAND FREE ENERGY PREDICTED BY IDOCK:   55.46 KCAL/MOL
REMARK 924 INTRA-LIGAND FREE ENERGY PREDICTED BY IDOCK:    3.22 KCAL/MOL
REMARK 927      BINDING AFFINITY PREDICTED BY RF-SCORE:    0.00 PKD
ROOT
HETATM    1  C   UNL     1     -12.515  14.950  66.939  1.00  0.00     0.534 C  
HETATM    2  C   UNL     1     -12.099  14.304  65.595  1.00  0.00    -0.399 C  
HETATM    3  C   UNL     1     -12.491  12.867  65.594  1.00  0.00    -0.400 A  
HETATM    4  C   UNL     1     -12.775  12.196  66.768  1.00  0.00     2.250 A  
HETATM    5  N   UNL     1     -13.155  10.921  66.435  1.00  0.00     7.054 NA 
HETATM    6  C   UNL     1     -12.742  12.765  68.172  1.00  0.00     1.496 C  
HETATM    7  N   UNL     1     -12.106  14.117  68.100  1.00  0.00    -0.319 N  
HETATM    8  O   UNL     1     -12.493  17.166  65.999  1.00  0.00     4.113 OA 
HETATM    9  C   UNL     1     -13.040  10.736  65.072  1.00  0.00     6.978 A  
HETATM   10  H   UNL     1     -13.476  10.214  67.096  1.00  0.00     0.000 HD 
HETATM   11  C   UNL     1     -11.062  14.518  68.914  1.00  0.00    -0.256 C  
HETATM   12  C   UNL     1     -13.264   9.591  64.299  1.00  0.00    15.934 A  
HETATM   13  C   UNL     1     -12.636  11.952  64.518  1.00  0.00    -0.049 A  
HETATM   14  C   UNL     1     -13.070   9.694  62.918  1.00  0.00    12.268 A  
HETATM   15  O   UNL     1     -10.493  13.813  69.745  1.00  0.00     0.275 OA 
HETATM   16  C   UNL     1     -10.755  18.226  67.820  1.00  0.00    -0.333 C  
HETATM   17  C   UNL     1     -10.582  15.959  68.786  1.00  0.00    -0.245 C  
HETATM   18  C   UNL     1     -12.102  16.425  66.902  1.00  0.00     1.812 C  
HETATM   19  C   UNL     1     -12.677  10.896  62.336  1.00  0.00     3.393 A  
HETATM   20  N   UNL     1     -11.278  16.876  67.910  1.00  0.00    -0.151 N  
HETATM   21  C   UNL     1     -12.462  12.033  63.123  1.00  0.00    -0.387 A  
ENDROOT
BRANCH   6  22
HETATM   22  C   UNL     1     -12.202  11.804  69.223  1.00  0.00    -0.202 A  
HETATM   23  C   UNL     1     -10.460  11.119  70.816  1.00  0.00     2.178 A  
HETATM   24  C   UNL     1     -11.357  10.212  71.335  1.00  0.00    -0.061 A  
HETATM   25  C   UNL     1     -12.623  10.073  70.822  1.00  0.00    -0.285 A  
HETATM   26  C   UNL     1     -12.435   8.790  72.547  1.00  0.00    -0.298 C  
HETATM   27  C   UNL     1     -13.068  10.831  69.761  1.00  0.00     0.482 A  
HETATM   28  O   UNL     1     -11.133   9.393  72.398  1.00  0.00     0.203 OA 
HETATM   29  C   UNL     1     -10.894  11.932  69.764  1.00  0.00     0.230 A  
HETATM   30  O   UNL     1     -13.360   9.151  71.501  1.00  0.00    -0.351 OA 
ENDBRANCH   6  22
TORSDOF 1
ENDMDL
MODEL      143
REMARK 921   NORMALIZED FREE ENERGY PREDICTED BY IDOCK:   62.36 KCAL/MOL
REMARK 922        TOTAL FREE ENERGY PREDICTED BY IDOCK:   65.96 KCAL/MOL
REMARK 923 INTER-LIGAND FREE ENERGY PREDICTED BY IDOCK:   63.32 KCAL/MOL
REMARK 924 INTRA-LIGAND FREE ENERGY PREDICTED BY IDOCK:    2.64 KCAL/MOL
REMARK 927      BINDING AFFINITY PREDICTED BY RF-SCORE:    0.00 PKD
ROOT
HETATM    1  C   UNL     1      -9.650  16.563  70.572  1.00  0.00     2.016 C  
HETATM    2  C   UNL     1      -9.562  17.108  69.126  1.00  0.00    -0.116 C  
HETATM    3  C   UNL     1     -10.235  16.158  68.197  1.00  0.00    -0.247 A  
HETATM    4  C   UNL     1     -10.486  14.850  68.561  1.00  0.00    -0.242 A  
HETATM    5  N   UNL     1     -11.161  14.253  67.526  1.00  0.00    -0.289 NA 
HETATM    6  C   UNL     1     -10.147  14.191  69.884  1.00  0.00     0.767 C  
HETATM    7  N   UNL     1      -9.265  15.130  70.645  1.00  0.00     1.090 N  
HETATM    8  O   UNL     1      -9.306  18.747  71.525  1.00  0.00     5.116 OA 
HETATM    9  C   UNL     1     -11.272  15.133  66.468  1.00  0.00    -0.283 A  
HETATM   10  H   UNL     1     -11.525  13.301  67.537  1.00  0.00     0.000 HD 
HETATM   11  C   UNL     1      -8.059  14.758  71.214  1.00  0.00     3.421 C  
HETATM   12  C   UNL     1     -11.828  14.943  65.198  1.00  0.00    -0.258 A  
HETATM   13  C   UNL     1     -10.709  16.344  66.871  1.00  0.00    -0.202 A  
HETATM   14  C   UNL     1     -11.808  16.027  64.314  1.00  0.00     0.005 A  
HETATM   15  O   UNL     1      -7.538  13.648  71.121  1.00  0.00     2.832 OA 
HETATM   16  C   UNL     1      -7.156  18.047  73.059  1.00  0.00     8.331 C  
HETATM   17  C   UNL     1      -7.319  15.803  72.039  1.00  0.00     5.842 C  
HETATM   18  C   UNL     1      -8.954  17.566  71.498  1.00  0.00    10.032 C  
HETATM   19  C   UNL     1     -11.262  17.251  64.692  1.00  0.00     0.878 A  
HETATM   20  N   UNL     1      -7.926  17.093  72.283  1.00  0.00    12.924 N  
HETATM   21  C   UNL     1     -10.713  17.425  65.968  1.00  0.00    -0.122 A  
ENDROOT
BRANCH   6  22
HETATM   22  C   UNL     1      -9.676  12.749  69.761  1.00  0.00     2.033 A  
HETATM   23  C   UNL     1      -8.705  10.714  70.741  1.00  0.00     2.734 A  
HETATM   24  C   UNL     1      -9.087  10.039  69.603  1.00  0.00    -0.210 A  
HETATM   25  C   UNL     1      -9.720  10.676  68.563  1.00  0.00    -0.174 A  
HETATM   26  C   UNL     1      -9.616   8.568  68.116  1.00  0.00    -0.143 C  
HETATM   27  C   UNL     1     -10.009  12.023  68.599  1.00  0.00    -0.151 A  
HETATM   28  O   UNL     1      -8.929   8.708  69.377  1.00  0.00    -0.142 OA 
HETATM   29  C   UNL     1      -9.018  12.074  70.825  1.00  0.00     8.048 A  
HETATM   30  O   UNL     1     -10.045   9.824  67.553  1.00  0.00    -0.174 OA 
ENDBRANCH   6  22
TORSDOF 1
ENDMDL
MODEL      144
REMARK 921   NORMALIZED FREE ENERGY PREDICTED BY IDOCK:   67.75 KCAL/MOL
REMARK 922        TOTAL FREE ENERGY PREDICTED BY IDOCK:   71.66 KCAL/MOL
REMARK 923 INTER-LIGAND FREE ENERGY PREDICTED BY IDOCK:   68.04 KCAL/MOL
REMARK 924 INTRA-LIGAND FREE ENERGY PREDICTED BY IDOCK:    3.62 KCAL/MOL
REMARK 927      BINDING AFFINITY PREDICTED BY RF-SCORE:    0.00 PKD
ROOT
HETATM    1  C   UNL     1      -6.767  12.861  68.809  1.00  0.00    -0.093 C  
HETATM    2  C   UNL     1      -7.544  12.915  70.147  1.00  0.00     2.211 C  
HETATM    3  C   UNL     1      -7.974  11.540  70.525  1.00  0.00     3.670 A  
HETATM    4  C   UNL     1      -8.017  10.517  69.597  1.00  0.00    -0.063 A  
HETATM    5  N   UNL     1      -8.391   9.374  70.257  1.00  0.00    -0.178 NA 
HETATM    6  C   UNL     1      -7.657  10.605  68.127  1.00  0.00    -0.092 C  
HETATM    7  N   UNL     1      -7.482  12.052  67.788  1.00  0.00    -0.111 N  
HETATM    8  O   UNL     1      -5.669  14.959  69.244  1.00  0.00    -0.096 OA 
HETATM    9  C   UNL     1      -8.671   9.664  71.578  1.00  0.00     1.135 A  
HETATM   10  H   UNL     1      -8.454   8.448  69.835  1.00  0.00     0.000 HD 
HETATM   11  C   UNL     1      -8.103  12.669  66.717  1.00  0.00     0.082 C  
HETATM   12  C   UNL     1      -9.136   8.829  72.600  1.00  0.00     0.057 A  
HETATM   13  C   UNL     1      -8.402  11.018  71.774  1.00  0.00     9.497 A  
HETATM   14  C   UNL     1      -9.331   9.399  73.863  1.00  0.00     5.153 A  
HETATM   15  O   UNL     1      -8.907  12.136  65.954  1.00  0.00    -0.009 OA 
HETATM   16  C   UNL     1      -6.465  16.177  66.932  1.00  0.00     0.029 C  
HETATM   17  C   UNL     1      -7.753  14.126  66.444  1.00  0.00     1.643 C  
HETATM   18  C   UNL     1      -6.337  14.288  68.455  1.00  0.00    -0.101 C  
HETATM   19  C   UNL     1      -9.061  10.745  74.091  1.00  0.00    15.290 A  
HETATM   20  N   UNL     1      -6.732  14.783  67.232  1.00  0.00    -0.015 N  
HETATM   21  C   UNL     1      -8.592  11.565  73.058  1.00  0.00    21.217 A  
ENDROOT
BRANCH   6  22
HETATM   22  C   UNL     1      -8.558   9.786  67.213  1.00  0.00    -0.128 A  
HETATM   23  C   UNL     1     -10.186   9.630  65.377  1.00  0.00     0.076 A  
HETATM   24  C   UNL     1      -9.975   8.270  65.368  1.00  0.00     1.283 A  
HETATM   25  C   UNL     1      -9.112   7.665  66.251  1.00  0.00    -0.162 A  
HETATM   26  C   UNL     1      -9.862   6.169  64.889  1.00  0.00     1.707 C  
HETATM   27  C   UNL     1      -8.409   8.385  67.193  1.00  0.00    -0.122 A  
HETATM   28  O   UNL     1     -10.539   7.383  64.505  1.00  0.00     6.534 OA 
HETATM   29  C   UNL     1      -9.458  10.394  66.295  1.00  0.00    -0.215 A  
HETATM   30  O   UNL     1      -9.020   6.322  66.049  1.00  0.00    -0.156 OA 
ENDBRANCH   6  22
TORSDOF 1
ENDMDL
MODEL      145
REMARK 921   NORMALIZED FREE ENERGY PREDICTED BY IDOCK:   68.49 KCAL/MOL
REMARK 922        TOTAL FREE ENERGY PREDICTED BY IDOCK:   72.45 KCAL/MOL
REMARK 923 INTER-LIGAND FREE ENERGY PREDICTED BY IDOCK:   72.58 KCAL/MOL
REMARK 924 INTRA-LIGAND FREE ENERGY PREDICTED BY IDOCK:   -0.13 KCAL/MOL
REMARK 927      BINDING AFFINITY PREDICTED BY RF-SCORE:    0.00 PKD
ROOT
HETATM    1  C   UNL     1      -6.587  10.659  69.659  1.00  0.00    -0.106 C  
HETATM    2  C   UNL     1      -6.564  11.385  68.292  1.00  0.00    -0.058 C  
HETATM    3  C   UNL     1      -6.555  12.857  68.513  1.00  0.00    -0.087 A  
HETATM    4  C   UNL     1      -6.935  13.407  69.722  1.00  0.00     0.307 A  
HETATM    5  N   UNL     1      -6.764  14.765  69.632  1.00  0.00    -0.156 NA 
HETATM    6  C   UNL     1      -7.397  12.660  70.957  1.00  0.00     5.144 C  
HETATM    7  N   UNL     1      -7.612  11.231  70.570  1.00  0.00     1.939 N  
HETATM    8  O   UNL     1      -5.706   8.628  68.712  1.00  0.00    -0.039 OA 
HETATM    9  C   UNL     1      -6.360  15.105  68.356  1.00  0.00    -0.109 A  
HETATM   10  H   UNL     1      -6.913  15.426  70.394  1.00  0.00     0.000 HD 
HETATM   11  C   UNL     1      -8.770  10.527  70.850  1.00  0.00     2.779 C  
HETATM   12  C   UNL     1      -6.119  16.365  67.797  1.00  0.00    -0.152 A  
HETATM   13  C   UNL     1      -6.208  13.919  67.637  1.00  0.00    -0.109 A  
HETATM   14  C   UNL     1      -5.710  16.412  66.460  1.00  0.00     0.545 A  
HETATM   15  O   UNL     1      -9.774  10.988  71.389  1.00  0.00     4.352 OA 
HETATM   16  C   UNL     1      -7.729   7.013  69.584  1.00  0.00    -0.110 C  
HETATM   17  C   UNL     1      -8.804   9.051  70.475  1.00  0.00    -0.208 C  
HETATM   18  C   UNL     1      -6.590   9.150  69.394  1.00  0.00    -0.044 C  
HETATM   19  C   UNL     1      -5.540  15.245  65.720  1.00  0.00     7.001 A  
HETATM   20  N   UNL     1      -7.619   8.415  69.939  1.00  0.00    -0.074 N  
HETATM   21  C   UNL     1      -5.781  13.993  66.297  1.00  0.00     4.891 A  
ENDROOT
BRANCH   6  22
HETATM   22  C   UNL     1      -8.524  13.346  71.718  1.00  0.00    12.660 A  
HETATM   23  C   UNL     1      -9.512  14.172  73.812  1.00  0.00     9.867 A  
HETATM   24  C   UNL     1     -10.442  14.846  73.052  1.00  0.00     3.467 A  
HETATM   25  C   UNL     1     -10.447  14.771  71.680  1.00  0.00     1.709 A  
HETATM   26  C   UNL     1     -11.973  16.166  72.298  1.00  0.00    -0.546 C  
HETATM   27  C   UNL     1      -9.523  14.020  70.987  1.00  0.00     5.074 A  
HETATM   28  O   UNL     1     -11.417  15.666  73.530  1.00  0.00    -0.090 OA 
HETATM   29  C   UNL     1      -8.536  13.432  73.137  1.00  0.00    15.055 A  
HETATM   30  O   UNL     1     -11.422  15.540  71.122  1.00  0.00    -0.324 OA 
ENDBRANCH   6  22
TORSDOF 1
ENDMDL
MODEL      146
REMARK 921   NORMALIZED FREE ENERGY PREDICTED BY IDOCK:   87.15 KCAL/MOL
REMARK 922        TOTAL FREE ENERGY PREDICTED BY IDOCK:   92.19 KCAL/MOL
REMARK 923 INTER-LIGAND FREE ENERGY PREDICTED BY IDOCK:   89.09 KCAL/MOL
REMARK 924 INTRA-LIGAND FREE ENERGY PREDICTED BY IDOCK:    3.11 KCAL/MOL
REMARK 927      BINDING AFFINITY PREDICTED BY RF-SCORE:    0.00 PKD
ROOT
HETATM    1  C   UNL     1     -11.941  16.412  72.070  1.00  0.00    -0.365 C  
HETATM    2  C   UNL     1     -10.557  16.217  72.736  1.00  0.00     3.606 C  
HETATM    3  C   UNL     1      -9.703  17.405  72.459  1.00  0.00    10.160 A  
HETATM    4  C   UNL     1      -9.998  18.282  71.433  1.00  0.00     4.728 A  
HETATM    5  N   UNL     1      -9.070  19.292  71.471  1.00  0.00     4.190 NA 
HETATM    6  C   UNL     1     -11.167  18.198  70.472  1.00  0.00     3.349 C  
HETATM    7  N   UNL     1     -11.816  16.864  70.660  1.00  0.00     0.965 N  
HETATM    8  O   UNL     1     -12.988  14.822  73.545  1.00  0.00    -0.525 OA 
HETATM    9  C   UNL     1      -8.133  19.033  72.451  1.00  0.00     7.475 A  
HETATM   10  H   UNL     1      -9.072  20.112  70.864  1.00  0.00     0.000 HD 
HETATM   11  C   UNL     1     -12.102  15.996  69.621  1.00  0.00    -0.101 C  
HETATM   12  C   UNL     1      -6.986  19.752  72.808  1.00  0.00     2.633 A  
HETATM   13  C   UNL     1      -8.517  17.858  73.096  1.00  0.00    14.853 A  
HETATM   14  C   UNL     1      -6.210  19.252  73.858  1.00  0.00    10.198 A  
HETATM   15  O   UNL     1     -11.815  16.179  68.439  1.00  0.00    -0.260 OA 
HETATM   16  C   UNL     1     -14.002  13.233  71.567  1.00  0.00     0.370 C  
HETATM   17  C   UNL     1     -12.849  14.713  69.960  1.00  0.00    -0.051 C  
HETATM   18  C   UNL     1     -12.792  15.177  72.380  1.00  0.00    -0.356 C  
HETATM   19  C   UNL     1      -6.574  18.087  74.528  1.00  0.00    11.827 A  
HETATM   20  N   UNL     1     -13.316  14.485  71.311  1.00  0.00    -0.358 N  
HETATM   21  C   UNL     1      -7.727  17.383  74.161  1.00  0.00    13.777 A  
ENDROOT
BRANCH   6  22
HETATM   22  C   UNL     1     -10.833  18.608  69.044  1.00  0.00     0.913 A  
HETATM   23  C   UNL     1     -10.255  20.321  67.378  1.00  0.00    -0.494 A  
HETATM   24  C   UNL     1      -9.946  19.301  66.506  1.00  0.00    -0.392 A  
HETATM   25  C   UNL     1     -10.087  17.980  66.857  1.00  0.00    -0.348 A  
HETATM   26  C   UNL     1      -9.214  18.078  64.886  1.00  0.00     3.820 C  
HETATM   27  C   UNL     1     -10.544  17.601  68.100  1.00  0.00    -0.359 A  
HETATM   28  O   UNL     1      -9.451  19.454  65.248  1.00  0.00     0.157 OA 
HETATM   29  C   UNL     1     -10.684  19.968  68.662  1.00  0.00     0.162 A  
HETATM   30  O   UNL     1      -9.693  17.135  65.866  1.00  0.00    -0.490 OA 
ENDBRANCH   6  22
TORSDOF 1
ENDMDL
