MODEL        1
REMARK 921   NORMALIZED FREE ENERGY PREDICTED BY IDOCK:   -7.56 KCAL/MOL
REMARK 922        TOTAL FREE ENERGY PREDICTED BY IDOCK:   -8.20 KCAL/MOL
REMARK 923 INTER-LIGAND FREE ENERGY PREDICTED BY IDOCK:   -8.01 KCAL/MOL
REMARK 924 INTRA-LIGAND FREE ENERGY PREDICTED BY IDOCK:   -0.19 KCAL/MOL
REMARK 927      BINDING AFFINITY PREDICTED BY RF-SCORE:    0.00 PKD
ROOT
HETATM    1  O   UNL     1     -12.281  15.986  63.937  1.00  0.00    -0.883 OA 
HETATM    2  C   UNL     1     -12.213  14.649  64.102  1.00  0.00    -0.315 C  
HETATM    3  C   UNL     1     -11.777  14.221  65.455  1.00  0.00    -0.354 A  
HETATM    4  O   UNL     1     -12.514  13.853  63.230  1.00  0.00    -0.817 OA 
HETATM    5  C   UNL     1     -10.856  14.986  66.196  1.00  0.00    -0.329 A  
HETATM    6  C   UNL     1     -10.438  14.575  67.469  1.00  0.00    -0.253 A  
HETATM    7  C   UNL     1     -10.943  13.370  67.973  1.00  0.00    -0.244 A  
HETATM    8  N   UNL     1     -10.702  12.737  69.158  1.00  0.00    -0.091 NA 
HETATM    9  C   UNL     1     -11.438  11.641  69.088  1.00  0.00    -0.300 A  
HETATM   10  O   UNL     1     -12.155  11.507  67.924  1.00  0.00    -0.630 OA 
HETATM   11  C   UNL     1     -12.280  13.000  65.948  1.00  0.00    -0.493 A  
HETATM   12  C   UNL     1     -11.828  12.629  67.207  1.00  0.00    -0.328 A  
ENDROOT
BRANCH   9  13
HETATM   13  C   UNL     1     -11.577  10.599  70.101  1.00  0.00    -0.414 A  
HETATM   14  C   UNL     1     -10.430   9.887  70.491  1.00  0.00    -0.330 A  
HETATM   15  C   UNL     1     -10.502   8.901  71.473  1.00  0.00    -0.323 A  
HETATM   16 CL   UNL     1      -9.077   8.056  71.935  1.00  0.00    -0.189 Cl 
HETATM   17  C   UNL     1     -11.714   8.602  72.082  1.00  0.00    -0.442 A  
HETATM   18  C   UNL     1     -12.858   9.296  71.695  1.00  0.00    -0.372 A  
HETATM   19 CL   UNL     1     -14.363   8.933  72.448  1.00  0.00    -0.474 Cl 
HETATM   20  C   UNL     1     -12.799  10.288  70.712  1.00  0.00    -0.427 A  
ENDBRANCH   9  13
TORSDOF 1
ENDMDL
MODEL        2
REMARK 921   NORMALIZED FREE ENERGY PREDICTED BY IDOCK:   -7.41 KCAL/MOL
REMARK 922        TOTAL FREE ENERGY PREDICTED BY IDOCK:   -8.04 KCAL/MOL
REMARK 923 INTER-LIGAND FREE ENERGY PREDICTED BY IDOCK:   -7.84 KCAL/MOL
REMARK 924 INTRA-LIGAND FREE ENERGY PREDICTED BY IDOCK:   -0.20 KCAL/MOL
REMARK 927      BINDING AFFINITY PREDICTED BY RF-SCORE:    0.00 PKD
ROOT
HETATM    1  O   UNL     1     -12.419  15.983  63.930  1.00  0.00    -0.806 OA 
HETATM    2  C   UNL     1     -12.272  14.651  64.084  1.00  0.00    -0.315 C  
HETATM    3  C   UNL     1     -11.805  14.239  65.430  1.00  0.00    -0.363 A  
HETATM    4  O   UNL     1     -12.529  13.847  63.205  1.00  0.00    -0.817 OA 
HETATM    5  C   UNL     1     -10.927  15.050  66.174  1.00  0.00    -0.334 A  
HETATM    6  C   UNL     1     -10.479  14.653  67.442  1.00  0.00    -0.255 A  
HETATM    7  C   UNL     1     -10.909  13.417  67.937  1.00  0.00    -0.247 A  
HETATM    8  N   UNL     1     -10.626  12.789  69.116  1.00  0.00    -0.033 NA 
HETATM    9  C   UNL     1     -11.296  11.652  69.040  1.00  0.00    -0.275 A  
HETATM   10  O   UNL     1     -12.010  11.486  67.877  1.00  0.00    -0.618 OA 
HETATM   11  C   UNL     1     -12.232  12.986  65.915  1.00  0.00    -0.493 A  
HETATM   12  C   UNL     1     -11.754  12.631  67.169  1.00  0.00    -0.371 A  
ENDROOT
BRANCH   9  13
HETATM   13  C   UNL     1     -11.369  10.595  70.043  1.00  0.00    -0.400 A  
HETATM   14  C   UNL     1     -12.600  10.360  70.678  1.00  0.00    -0.435 A  
HETATM   15  C   UNL     1     -12.732   9.344  71.624  1.00  0.00    -0.374 A  
HETATM   16 CL   UNL     1     -14.256   9.075  72.376  1.00  0.00    -0.489 Cl 
HETATM   17  C   UNL     1     -11.644   8.547  71.958  1.00  0.00    -0.432 A  
HETATM   18  C   UNL     1     -10.418   8.779  71.339  1.00  0.00    -0.284 A  
HETATM   19 CL   UNL     1      -9.066   7.794  71.745  1.00  0.00    -0.160 Cl 
HETATM   20  C   UNL     1     -10.272   9.795  70.389  1.00  0.00    -0.343 A  
ENDBRANCH   9  13
TORSDOF 1
ENDMDL
MODEL        3
REMARK 921   NORMALIZED FREE ENERGY PREDICTED BY IDOCK:   -7.13 KCAL/MOL
REMARK 922        TOTAL FREE ENERGY PREDICTED BY IDOCK:   -7.74 KCAL/MOL
REMARK 923 INTER-LIGAND FREE ENERGY PREDICTED BY IDOCK:   -7.53 KCAL/MOL
REMARK 924 INTRA-LIGAND FREE ENERGY PREDICTED BY IDOCK:   -0.22 KCAL/MOL
REMARK 927      BINDING AFFINITY PREDICTED BY RF-SCORE:    0.00 PKD
ROOT
HETATM    1  O   UNL     1     -12.715  12.346  65.046  1.00  0.00    -0.631 OA 
HETATM    2  C   UNL     1     -12.403  13.576  64.586  1.00  0.00    -0.372 C  
HETATM    3  C   UNL     1     -11.693  14.433  65.567  1.00  0.00    -0.352 A  
HETATM    4  O   UNL     1     -12.653  13.946  63.453  1.00  0.00    -0.853 OA 
HETATM    5  C   UNL     1     -11.961  14.335  66.946  1.00  0.00    -0.467 A  
HETATM    6  C   UNL     1     -11.297  15.154  67.869  1.00  0.00    -0.346 A  
HETATM    7  C   UNL     1     -10.376  16.088  67.381  1.00  0.00    -0.294 A  
HETATM    8  N   UNL     1      -9.607  17.003  68.041  1.00  0.00    -0.254 NA 
HETATM    9  C   UNL     1      -8.943  17.616  67.078  1.00  0.00    -0.250 A  
HETATM   10  O   UNL     1      -9.225  17.163  65.812  1.00  0.00    -0.524 OA 
HETATM   11  C   UNL     1     -10.778  15.381  65.065  1.00  0.00    -0.460 A  
HETATM   12  C   UNL     1     -10.153  16.176  66.015  1.00  0.00    -0.351 A  
ENDROOT
BRANCH   9  13
HETATM   13  C   UNL     1      -7.954  18.680  67.219  1.00  0.00    -0.245 A  
HETATM   14  C   UNL     1      -7.508  19.013  68.509  1.00  0.00    -0.352 A  
HETATM   15  C   UNL     1      -6.545  20.002  68.699  1.00  0.00    -0.306 A  
HETATM   16 CL   UNL     1      -6.013  20.378  70.291  1.00  0.00    -0.384 Cl 
HETATM   17  C   UNL     1      -6.011  20.681  67.611  1.00  0.00    -0.300 A  
HETATM   18  C   UNL     1      -6.453  20.364  66.328  1.00  0.00    -0.219 A  
HETATM   19 CL   UNL     1      -5.793  21.199  64.976  1.00  0.00    -0.269 Cl 
HETATM   20  C   UNL     1      -7.419  19.373  66.125  1.00  0.00    -0.297 A  
ENDBRANCH   9  13
TORSDOF 1
ENDMDL
MODEL        4
REMARK 921   NORMALIZED FREE ENERGY PREDICTED BY IDOCK:   -7.12 KCAL/MOL
REMARK 922        TOTAL FREE ENERGY PREDICTED BY IDOCK:   -7.73 KCAL/MOL
REMARK 923 INTER-LIGAND FREE ENERGY PREDICTED BY IDOCK:   -7.51 KCAL/MOL
REMARK 924 INTRA-LIGAND FREE ENERGY PREDICTED BY IDOCK:   -0.22 KCAL/MOL
REMARK 927      BINDING AFFINITY PREDICTED BY RF-SCORE:    0.00 PKD
ROOT
HETATM    1  O   UNL     1     -12.802  12.385  64.885  1.00  0.00    -0.711 OA 
HETATM    2  C   UNL     1     -12.454  13.623  64.477  1.00  0.00    -0.287 C  
HETATM    3  C   UNL     1     -11.765  14.435  65.510  1.00  0.00    -0.352 A  
HETATM    4  O   UNL     1     -12.657  14.034  63.348  1.00  0.00    -0.845 OA 
HETATM    5  C   UNL     1     -12.083  14.298  66.874  1.00  0.00    -0.440 A  
HETATM    6  C   UNL     1     -11.438  15.074  67.846  1.00  0.00    -0.354 A  
HETATM    7  C   UNL     1     -10.485  16.007  67.421  1.00  0.00    -0.308 A  
HETATM    8  N   UNL     1      -9.725  16.886  68.138  1.00  0.00    -0.247 NA 
HETATM    9  C   UNL     1      -9.017  17.518  67.219  1.00  0.00    -0.235 A  
HETATM   10  O   UNL     1      -9.261  17.111  65.929  1.00  0.00    -0.506 OA 
HETATM   11  C   UNL     1     -10.817  15.382  65.071  1.00  0.00    -0.462 A  
HETATM   12  C   UNL     1     -10.213  16.135  66.068  1.00  0.00    -0.356 A  
ENDROOT
BRANCH   9  13
HETATM   13  C   UNL     1      -8.016  18.559  67.429  1.00  0.00    -0.246 A  
HETATM   14  C   UNL     1      -7.509  19.236  66.307  1.00  0.00    -0.284 A  
HETATM   15  C   UNL     1      -6.573  20.257  66.453  1.00  0.00    -0.225 A  
HETATM   16 CL   UNL     1      -5.979  21.073  65.059  1.00  0.00    -0.285 Cl 
HETATM   17  C   UNL     1      -6.121  20.624  67.715  1.00  0.00    -0.320 A  
HETATM   18  C   UNL     1      -6.612  19.952  68.832  1.00  0.00    -0.323 A  
HETATM   19 CL   UNL     1      -6.060  20.402  70.399  1.00  0.00    -0.356 Cl 
HETATM   20  C   UNL     1      -7.552  18.926  68.699  1.00  0.00    -0.366 A  
ENDBRANCH   9  13
TORSDOF 1
ENDMDL
MODEL        5
REMARK 921   NORMALIZED FREE ENERGY PREDICTED BY IDOCK:   -6.93 KCAL/MOL
REMARK 922        TOTAL FREE ENERGY PREDICTED BY IDOCK:   -7.53 KCAL/MOL
REMARK 923 INTER-LIGAND FREE ENERGY PREDICTED BY IDOCK:   -7.33 KCAL/MOL
REMARK 924 INTRA-LIGAND FREE ENERGY PREDICTED BY IDOCK:   -0.21 KCAL/MOL
REMARK 927      BINDING AFFINITY PREDICTED BY RF-SCORE:    0.00 PKD
ROOT
HETATM    1  O   UNL     1     -13.875  16.129  73.541  1.00  0.00    -0.509 OA 
HETATM    2  C   UNL     1     -12.747  15.957  72.821  1.00  0.00    -0.467 C  
HETATM    3  C   UNL     1     -12.692  14.681  72.065  1.00  0.00    -0.405 A  
HETATM    4  O   UNL     1     -11.858  16.789  72.767  1.00  0.00    -0.459 OA 
HETATM    5  C   UNL     1     -13.291  13.512  72.570  1.00  0.00    -0.617 A  
HETATM    6  C   UNL     1     -13.228  12.306  71.859  1.00  0.00    -0.481 A  
HETATM    7  C   UNL     1     -12.534  12.291  70.643  1.00  0.00    -0.236 A  
HETATM    8  N   UNL     1     -12.311  11.271  69.764  1.00  0.00    -0.250 NA 
HETATM    9  C   UNL     1     -11.594  11.828  68.805  1.00  0.00    -0.307 A  
HETATM   10  O   UNL     1     -11.325  13.163  68.994  1.00  0.00    -0.254 OA 
HETATM   11  C   UNL     1     -11.979  14.673  70.848  1.00  0.00    -0.388 A  
HETATM   12  C   UNL     1     -11.935  13.454  70.186  1.00  0.00    -0.326 A  
ENDROOT
BRANCH   9  13
HETATM   13  C   UNL     1     -11.089  11.196  67.590  1.00  0.00    -0.348 A  
HETATM   14  C   UNL     1     -11.052  11.953  66.407  1.00  0.00    -0.359 A  
HETATM   15  C   UNL     1     -10.554  11.406  65.226  1.00  0.00    -0.277 A  
HETATM   16 CL   UNL     1     -10.513  12.363  63.797  1.00  0.00    -0.456 Cl 
HETATM   17  C   UNL     1     -10.087  10.098  65.197  1.00  0.00    -0.329 A  
HETATM   18  C   UNL     1     -10.128   9.337  66.364  1.00  0.00    -0.267 A  
HETATM   19 CL   UNL     1      -9.548   7.717  66.337  1.00  0.00    -0.258 Cl 
HETATM   20  C   UNL     1     -10.625   9.874  67.555  1.00  0.00    -0.333 A  
ENDBRANCH   9  13
TORSDOF 1
ENDMDL
MODEL        6
REMARK 921   NORMALIZED FREE ENERGY PREDICTED BY IDOCK:   -6.85 KCAL/MOL
REMARK 922        TOTAL FREE ENERGY PREDICTED BY IDOCK:   -7.45 KCAL/MOL
REMARK 923 INTER-LIGAND FREE ENERGY PREDICTED BY IDOCK:   -7.24 KCAL/MOL
REMARK 924 INTRA-LIGAND FREE ENERGY PREDICTED BY IDOCK:   -0.21 KCAL/MOL
REMARK 927      BINDING AFFINITY PREDICTED BY RF-SCORE:    0.00 PKD
ROOT
HETATM    1  O   UNL     1     -13.908  16.107  73.367  1.00  0.00    -0.558 OA 
HETATM    2  C   UNL     1     -12.746  15.906  72.711  1.00  0.00    -0.467 C  
HETATM    3  C   UNL     1     -12.682  14.627  71.960  1.00  0.00    -0.405 A  
HETATM    4  O   UNL     1     -11.836  16.715  72.706  1.00  0.00    -0.519 OA 
HETATM    5  C   UNL     1     -13.336  13.474  72.433  1.00  0.00    -0.641 A  
HETATM    6  C   UNL     1     -13.264  12.265  71.727  1.00  0.00    -0.428 A  
HETATM    7  C   UNL     1     -12.505  12.230  70.552  1.00  0.00    -0.189 A  
HETATM    8  N   UNL     1     -12.259  11.203  69.687  1.00  0.00    -0.314 NA 
HETATM    9  C   UNL     1     -11.476  11.740  68.769  1.00  0.00    -0.291 A  
HETATM   10  O   UNL     1     -11.185  13.068  68.972  1.00  0.00    -0.254 OA 
HETATM   11  C   UNL     1     -11.903  14.598  70.785  1.00  0.00    -0.372 A  
HETATM   12  C   UNL     1     -11.853  13.377  70.127  1.00  0.00    -0.272 A  
ENDROOT
BRANCH   9  13
HETATM   13  C   UNL     1     -10.921  11.092  67.585  1.00  0.00    -0.323 A  
HETATM   14  C   UNL     1     -10.577   9.732  67.665  1.00  0.00    -0.333 A  
HETATM   15  C   UNL     1     -10.069   9.057  66.557  1.00  0.00    -0.283 A  
HETATM   16 CL   UNL     1      -9.668   7.389  66.686  1.00  0.00    -0.264 Cl 
HETATM   17  C   UNL     1      -9.890   9.722  65.350  1.00  0.00    -0.365 A  
HETATM   18  C   UNL     1     -10.220  11.073  65.263  1.00  0.00    -0.284 A  
HETATM   19 CL   UNL     1     -10.004  11.901  63.770  1.00  0.00    -0.370 Cl 
HETATM   20  C   UNL     1     -10.731  11.761  66.368  1.00  0.00    -0.306 A  
ENDBRANCH   9  13
TORSDOF 1
ENDMDL
MODEL        7
REMARK 921   NORMALIZED FREE ENERGY PREDICTED BY IDOCK:   -6.80 KCAL/MOL
REMARK 922        TOTAL FREE ENERGY PREDICTED BY IDOCK:   -7.39 KCAL/MOL
REMARK 923 INTER-LIGAND FREE ENERGY PREDICTED BY IDOCK:   -7.21 KCAL/MOL
REMARK 924 INTRA-LIGAND FREE ENERGY PREDICTED BY IDOCK:   -0.18 KCAL/MOL
REMARK 927      BINDING AFFINITY PREDICTED BY RF-SCORE:    0.00 PKD
ROOT
HETATM    1  O   UNL     1     -10.335  16.639  65.039  1.00  0.00    -0.623 OA 
HETATM    2  C   UNL     1     -10.707  16.453  66.323  1.00  0.00    -0.161 C  
HETATM    3  C   UNL     1     -11.065  15.053  66.659  1.00  0.00    -0.326 A  
HETATM    4  O   UNL     1     -10.721  17.349  67.149  1.00  0.00    -0.295 OA 
HETATM    5  C   UNL     1     -11.671  14.210  65.708  1.00  0.00    -0.360 A  
HETATM    6  C   UNL     1     -12.017  12.891  66.032  1.00  0.00    -0.505 A  
HETATM    7  C   UNL     1     -11.765  12.442  67.333  1.00  0.00    -0.347 A  
HETATM    8  N   UNL     1     -12.005  11.230  67.914  1.00  0.00    -0.640 NA 
HETATM    9  C   UNL     1     -11.575  11.380  69.154  1.00  0.00    -0.314 A  
HETATM   10  O   UNL     1     -11.062  12.623  69.434  1.00  0.00    -0.178 OA 
HETATM   11  C   UNL     1     -10.819  14.614  67.976  1.00  0.00    -0.260 A  
HETATM   12  C   UNL     1     -11.189  13.305  68.252  1.00  0.00    -0.277 A  
ENDROOT
BRANCH   9  13
HETATM   13  C   UNL     1     -11.571  10.383  70.220  1.00  0.00    -0.410 A  
HETATM   14  C   UNL     1     -12.785  10.083  70.859  1.00  0.00    -0.414 A  
HETATM   15  C   UNL     1     -12.843   9.119  71.864  1.00  0.00    -0.393 A  
HETATM   16 CL   UNL     1     -14.348   8.768  72.621  1.00  0.00    -0.371 Cl 
HETATM   17  C   UNL     1     -11.696   8.438  72.254  1.00  0.00    -0.453 A  
HETATM   18  C   UNL     1     -10.486   8.736  71.631  1.00  0.00    -0.317 A  
HETATM   19 CL   UNL     1      -9.062   7.895  72.106  1.00  0.00    -0.185 Cl 
HETATM   20  C   UNL     1     -10.415   9.700  70.621  1.00  0.00    -0.379 A  
ENDBRANCH   9  13
TORSDOF 1
ENDMDL
MODEL        8
REMARK 921   NORMALIZED FREE ENERGY PREDICTED BY IDOCK:   -6.78 KCAL/MOL
REMARK 922        TOTAL FREE ENERGY PREDICTED BY IDOCK:   -7.37 KCAL/MOL
REMARK 923 INTER-LIGAND FREE ENERGY PREDICTED BY IDOCK:   -7.17 KCAL/MOL
REMARK 924 INTRA-LIGAND FREE ENERGY PREDICTED BY IDOCK:   -0.19 KCAL/MOL
REMARK 927      BINDING AFFINITY PREDICTED BY RF-SCORE:    0.00 PKD
ROOT
HETATM    1  O   UNL     1     -10.157  16.748  65.231  1.00  0.00    -0.577 OA 
HETATM    2  C   UNL     1     -10.613  16.534  66.483  1.00  0.00    -0.217 C  
HETATM    3  C   UNL     1     -10.997  15.128  66.761  1.00  0.00    -0.321 A  
HETATM    4  O   UNL     1     -10.678  17.410  67.327  1.00  0.00    -0.315 OA 
HETATM    5  C   UNL     1     -11.542  14.311  65.753  1.00  0.00    -0.346 A  
HETATM    6  C   UNL     1     -11.913  12.986  66.022  1.00  0.00    -0.498 A  
HETATM    7  C   UNL     1     -11.749  12.505  67.326  1.00  0.00    -0.362 A  
HETATM    8  N   UNL     1     -12.031  11.282  67.861  1.00  0.00    -0.640 NA 
HETATM    9  C   UNL     1     -11.683  11.400  69.130  1.00  0.00    -0.342 A  
HETATM   10  O   UNL     1     -11.185  12.635  69.473  1.00  0.00    -0.190 OA 
HETATM   11  C   UNL     1     -10.840  14.657  68.081  1.00  0.00    -0.256 A  
HETATM   12  C   UNL     1     -11.232  13.344  68.301  1.00  0.00    -0.279 A  
ENDROOT
BRANCH   9  13
HETATM   13  C   UNL     1     -11.753  10.379  70.170  1.00  0.00    -0.394 A  
HETATM   14  C   UNL     1     -10.572   9.707  70.528  1.00  0.00    -0.369 A  
HETATM   15  C   UNL     1     -10.577   8.742  71.534  1.00  0.00    -0.309 A  
HETATM   16 CL   UNL     1      -9.112   7.945  71.955  1.00  0.00    -0.180 Cl 
HETATM   17  C   UNL     1     -11.755   8.426  72.200  1.00  0.00    -0.442 A  
HETATM   18  C   UNL     1     -12.932   9.081  71.845  1.00  0.00    -0.389 A  
HETATM   19 CL   UNL     1     -14.394   8.697  72.668  1.00  0.00    -0.351 Cl 
HETATM   20  C   UNL     1     -12.940  10.051  70.838  1.00  0.00    -0.397 A  
ENDBRANCH   9  13
TORSDOF 1
ENDMDL
MODEL        9
REMARK 921   NORMALIZED FREE ENERGY PREDICTED BY IDOCK:   -6.72 KCAL/MOL
REMARK 922        TOTAL FREE ENERGY PREDICTED BY IDOCK:   -7.30 KCAL/MOL
REMARK 923 INTER-LIGAND FREE ENERGY PREDICTED BY IDOCK:   -7.09 KCAL/MOL
REMARK 924 INTRA-LIGAND FREE ENERGY PREDICTED BY IDOCK:   -0.21 KCAL/MOL
REMARK 927      BINDING AFFINITY PREDICTED BY RF-SCORE:    0.00 PKD
ROOT
HETATM    1  O   UNL     1      -5.637  21.233  68.454  1.00  0.00    -0.322 OA 
HETATM    2  C   UNL     1      -6.415  20.327  69.081  1.00  0.00    -0.273 C  
HETATM    3  C   UNL     1      -7.371  19.622  68.192  1.00  0.00    -0.337 A  
HETATM    4  O   UNL     1      -6.324  20.081  70.271  1.00  0.00    -0.358 OA 
HETATM    5  C   UNL     1      -7.945  20.271  67.083  1.00  0.00    -0.378 A  
HETATM    6  C   UNL     1      -8.856  19.606  66.250  1.00  0.00    -0.410 A  
HETATM    7  C   UNL     1      -9.197  18.286  66.566  1.00  0.00    -0.292 A  
HETATM    8  N   UNL     1     -10.050  17.419  65.946  1.00  0.00    -0.551 NA 
HETATM    9  C   UNL     1      -9.985  16.325  66.684  1.00  0.00    -0.264 A  
HETATM   10  O   UNL     1      -9.138  16.413  67.762  1.00  0.00    -0.198 OA 
HETATM   11  C   UNL     1      -7.719  18.297  68.526  1.00  0.00    -0.319 A  
HETATM   12  C   UNL     1      -8.633  17.684  67.680  1.00  0.00    -0.224 A  
ENDROOT
BRANCH   9  13
HETATM   13  C   UNL     1     -10.686  15.063  66.467  1.00  0.00    -0.312 A  
HETATM   14  C   UNL     1     -11.107  14.748  65.163  1.00  0.00    -0.389 A  
HETATM   15  C   UNL     1     -11.756  13.544  64.895  1.00  0.00    -0.357 A  
HETATM   16 CL   UNL     1     -12.248  13.183  63.287  1.00  0.00    -0.575 Cl 
HETATM   17  C   UNL     1     -12.002  12.634  65.916  1.00  0.00    -0.497 A  
HETATM   18  C   UNL     1     -11.596  12.943  67.213  1.00  0.00    -0.360 A  
HETATM   19 CL   UNL     1     -11.895  11.820  68.482  1.00  0.00    -0.384 Cl 
HETATM   20  C   UNL     1     -10.944  14.147  67.495  1.00  0.00    -0.292 A  
ENDBRANCH   9  13
TORSDOF 1
ENDMDL
MODEL       10
REMARK 921   NORMALIZED FREE ENERGY PREDICTED BY IDOCK:   -6.67 KCAL/MOL
REMARK 922        TOTAL FREE ENERGY PREDICTED BY IDOCK:   -7.25 KCAL/MOL
REMARK 923 INTER-LIGAND FREE ENERGY PREDICTED BY IDOCK:   -7.04 KCAL/MOL
REMARK 924 INTRA-LIGAND FREE ENERGY PREDICTED BY IDOCK:   -0.21 KCAL/MOL
REMARK 927      BINDING AFFINITY PREDICTED BY RF-SCORE:    0.00 PKD
ROOT
HETATM    1  O   UNL     1     -10.402   4.898  70.915  1.00  0.00    -0.217 OA 
HETATM    2  C   UNL     1     -10.569   5.877  70.003  1.00  0.00    -0.295 C  
HETATM    3  C   UNL     1     -11.246   7.090  70.525  1.00  0.00    -0.335 A  
HETATM    4  O   UNL     1     -10.172   5.793  68.854  1.00  0.00    -0.168 OA 
HETATM    5  C   UNL     1     -12.233   6.997  71.524  1.00  0.00    -0.407 A  
HETATM    6  C   UNL     1     -12.879   8.143  72.008  1.00  0.00    -0.346 A  
HETATM    7  C   UNL     1     -12.531   9.381  71.454  1.00  0.00    -0.352 A  
HETATM    8  N   UNL     1     -12.999  10.634  71.724  1.00  0.00    -0.471 NA 
HETATM    9  C   UNL     1     -12.323  11.412  70.897  1.00  0.00    -0.381 A  
HETATM   10  O   UNL     1     -11.432  10.748  70.089  1.00  0.00    -0.289 OA 
HETATM   11  C   UNL     1     -10.899   8.330  69.951  1.00  0.00    -0.213 A  
HETATM   12  C   UNL     1     -11.573   9.435  70.454  1.00  0.00    -0.192 A  
ENDROOT
BRANCH   9  13
HETATM   13  C   UNL     1     -12.411  12.863  70.771  1.00  0.00    -0.385 A  
HETATM   14  C   UNL     1     -12.987  13.593  71.824  1.00  0.00    -0.441 A  
HETATM   15  C   UNL     1     -13.070  14.983  71.767  1.00  0.00    -0.356 A  
HETATM   16 CL   UNL     1     -13.772  15.847  73.079  1.00  0.00    -0.649 Cl 
HETATM   17  C   UNL     1     -12.586  15.672  70.663  1.00  0.00    -0.461 A  
HETATM   18  C   UNL     1     -12.020  14.956  69.609  1.00  0.00    -0.320 A  
HETATM   19 CL   UNL     1     -11.416  15.804  68.239  1.00  0.00    -0.360 Cl 
HETATM   20  C   UNL     1     -11.931  13.562  69.655  1.00  0.00    -0.397 A  
ENDBRANCH   9  13
TORSDOF 1
ENDMDL
MODEL       11
REMARK 921   NORMALIZED FREE ENERGY PREDICTED BY IDOCK:   -6.65 KCAL/MOL
REMARK 922        TOTAL FREE ENERGY PREDICTED BY IDOCK:   -7.24 KCAL/MOL
REMARK 923 INTER-LIGAND FREE ENERGY PREDICTED BY IDOCK:   -7.05 KCAL/MOL
REMARK 924 INTRA-LIGAND FREE ENERGY PREDICTED BY IDOCK:   -0.18 KCAL/MOL
REMARK 927      BINDING AFFINITY PREDICTED BY RF-SCORE:    0.00 PKD
ROOT
HETATM    1  O   UNL     1      -6.632  21.369  66.561  1.00  0.00    -0.356 OA 
HETATM    2  C   UNL     1      -6.824  20.699  67.716  1.00  0.00    -0.323 C  
HETATM    3  C   UNL     1      -8.008  19.804  67.713  1.00  0.00    -0.334 A  
HETATM    4  O   UNL     1      -6.076  20.793  68.673  1.00  0.00    -0.333 OA 
HETATM    5  C   UNL     1      -9.167  20.134  66.987  1.00  0.00    -0.503 A  
HETATM    6  C   UNL     1     -10.287  19.291  66.995  1.00  0.00    -0.526 A  
HETATM    7  C   UNL     1     -10.229  18.123  67.764  1.00  0.00    -0.383 A  
HETATM    8  N   UNL     1     -11.161  17.145  67.959  1.00  0.00    -0.229 NA 
HETATM    9  C   UNL     1     -10.567  16.299  68.782  1.00  0.00    -0.298 A  
HETATM   10  O   UNL     1      -9.293  16.658  69.149  1.00  0.00    -0.250 OA 
HETATM   11  C   UNL     1      -7.945  18.637  68.502  1.00  0.00    -0.365 A  
HETATM   12  C   UNL     1      -9.082  17.840  68.487  1.00  0.00    -0.282 A  
ENDROOT
BRANCH   9  13
HETATM   13  C   UNL     1     -11.104  15.049  69.312  1.00  0.00    -0.280 A  
HETATM   14  C   UNL     1     -11.792  15.082  70.537  1.00  0.00    -0.347 A  
HETATM   15  C   UNL     1     -12.348  13.923  71.074  1.00  0.00    -0.376 A  
HETATM   16 CL   UNL     1     -13.193  13.999  72.571  1.00  0.00    -0.570 Cl 
HETATM   17  C   UNL     1     -12.229  12.710  70.406  1.00  0.00    -0.368 A  
HETATM   18  C   UNL     1     -11.542  12.667  69.195  1.00  0.00    -0.320 A  
HETATM   19 CL   UNL     1     -11.393  11.169  68.361  1.00  0.00    -0.324 Cl 
HETATM   20  C   UNL     1     -10.979  13.823  68.645  1.00  0.00    -0.287 A  
ENDBRANCH   9  13
TORSDOF 1
ENDMDL
MODEL       12
REMARK 921   NORMALIZED FREE ENERGY PREDICTED BY IDOCK:   -6.65 KCAL/MOL
REMARK 922        TOTAL FREE ENERGY PREDICTED BY IDOCK:   -7.23 KCAL/MOL
REMARK 923 INTER-LIGAND FREE ENERGY PREDICTED BY IDOCK:   -7.01 KCAL/MOL
REMARK 924 INTRA-LIGAND FREE ENERGY PREDICTED BY IDOCK:   -0.22 KCAL/MOL
REMARK 927      BINDING AFFINITY PREDICTED BY RF-SCORE:    0.00 PKD
ROOT
HETATM    1  O   UNL     1     -10.473   4.769  71.138  1.00  0.00    -0.163 OA 
HETATM    2  C   UNL     1     -10.599   5.768  70.240  1.00  0.00    -0.299 C  
HETATM    3  C   UNL     1     -11.305   6.967  70.755  1.00  0.00    -0.355 A  
HETATM    4  O   UNL     1     -10.146   5.709  69.111  1.00  0.00    -0.172 OA 
HETATM    5  C   UNL     1     -12.340   6.849  71.702  1.00  0.00    -0.413 A  
HETATM    6  C   UNL     1     -13.013   7.983  72.178  1.00  0.00    -0.246 A  
HETATM    7  C   UNL     1     -12.643   9.233  71.669  1.00  0.00    -0.365 A  
HETATM    8  N   UNL     1     -13.128  10.479  71.943  1.00  0.00    -0.479 NA 
HETATM    9  C   UNL     1     -12.416  11.277  71.167  1.00  0.00    -0.373 A  
HETATM   10  O   UNL     1     -11.483  10.633  70.390  1.00  0.00    -0.306 OA 
HETATM   11  C   UNL     1     -10.936   8.220  70.226  1.00  0.00    -0.233 A  
HETATM   12  C   UNL     1     -11.637   9.312  70.719  1.00  0.00    -0.285 A  
ENDROOT
BRANCH   9  13
HETATM   13  C   UNL     1     -12.502  12.730  71.068  1.00  0.00    -0.369 A  
HETATM   14  C   UNL     1     -11.944  13.358  69.942  1.00  0.00    -0.408 A  
HETATM   15  C   UNL     1     -12.023  14.740  69.784  1.00  0.00    -0.321 A  
HETATM   16 CL   UNL     1     -11.339  15.478  68.388  1.00  0.00    -0.338 Cl 
HETATM   17  C   UNL     1     -12.654  15.524  70.742  1.00  0.00    -0.505 A  
HETATM   18  C   UNL     1     -13.202  14.910  71.867  1.00  0.00    -0.350 A  
HETATM   19 CL   UNL     1     -13.988  15.874  73.057  1.00  0.00    -0.549 Cl 
HETATM   20  C   UNL     1     -13.130  13.524  72.037  1.00  0.00    -0.481 A  
ENDBRANCH   9  13
TORSDOF 1
ENDMDL
MODEL       13
REMARK 921   NORMALIZED FREE ENERGY PREDICTED BY IDOCK:   -6.64 KCAL/MOL
REMARK 922        TOTAL FREE ENERGY PREDICTED BY IDOCK:   -7.22 KCAL/MOL
REMARK 923 INTER-LIGAND FREE ENERGY PREDICTED BY IDOCK:   -7.03 KCAL/MOL
REMARK 924 INTRA-LIGAND FREE ENERGY PREDICTED BY IDOCK:   -0.19 KCAL/MOL
REMARK 927      BINDING AFFINITY PREDICTED BY RF-SCORE:    0.00 PKD
ROOT
HETATM    1  O   UNL     1     -12.454  15.410  73.900  1.00  0.00    -0.521 OA 
HETATM    2  C   UNL     1     -13.088  14.768  72.897  1.00  0.00    -0.499 C  
HETATM    3  C   UNL     1     -12.353  14.770  71.608  1.00  0.00    -0.409 A  
HETATM    4  O   UNL     1     -14.160  14.206  73.039  1.00  0.00    -0.408 OA 
HETATM    5  C   UNL     1     -11.546  15.861  71.235  1.00  0.00    -0.509 A  
HETATM    6  C   UNL     1     -10.861  15.864  70.012  1.00  0.00    -0.356 A  
HETATM    7  C   UNL     1     -11.021  14.764  69.162  1.00  0.00    -0.267 A  
HETATM    8  N   UNL     1     -10.490  14.512  67.929  1.00  0.00    -0.240 NA 
HETATM    9  C   UNL     1     -10.992  13.335  67.600  1.00  0.00    -0.262 A  
HETATM   10  O   UNL     1     -11.829  12.787  68.543  1.00  0.00    -0.307 OA 
HETATM   11  C   UNL     1     -12.532  13.664  70.753  1.00  0.00    -0.432 A  
HETATM   12  C   UNL     1     -11.843  13.717  69.549  1.00  0.00    -0.339 A  
ENDROOT
BRANCH   9  13
HETATM   13  C   UNL     1     -10.741  12.571  66.383  1.00  0.00    -0.275 A  
HETATM   14  C   UNL     1     -11.733  12.554  65.387  1.00  0.00    -0.444 A  
HETATM   15  C   UNL     1     -11.533  11.863  64.194  1.00  0.00    -0.370 A  
HETATM   16 CL   UNL     1     -12.763  11.870  62.991  1.00  0.00    -0.362 Cl 
HETATM   17  C   UNL     1     -10.347  11.175  63.968  1.00  0.00    -0.437 A  
HETATM   18  C   UNL     1      -9.362  11.179  64.953  1.00  0.00    -0.194 A  
HETATM   19 CL   UNL     1      -7.890  10.331  64.680  1.00  0.00    -0.145 Cl 
HETATM   20  C   UNL     1      -9.550  11.869  66.155  1.00  0.00    -0.250 A  
ENDBRANCH   9  13
TORSDOF 1
ENDMDL
MODEL       14
REMARK 921   NORMALIZED FREE ENERGY PREDICTED BY IDOCK:   -6.59 KCAL/MOL
REMARK 922        TOTAL FREE ENERGY PREDICTED BY IDOCK:   -7.17 KCAL/MOL
REMARK 923 INTER-LIGAND FREE ENERGY PREDICTED BY IDOCK:   -6.98 KCAL/MOL
REMARK 924 INTRA-LIGAND FREE ENERGY PREDICTED BY IDOCK:   -0.19 KCAL/MOL
REMARK 927      BINDING AFFINITY PREDICTED BY RF-SCORE:    0.00 PKD
ROOT
HETATM    1  O   UNL     1      -6.413  20.988  66.006  1.00  0.00    -0.240 OA 
HETATM    2  C   UNL     1      -6.790  20.632  67.252  1.00  0.00    -0.323 C  
HETATM    3  C   UNL     1      -7.966  19.729  67.300  1.00  0.00    -0.320 A  
HETATM    4  O   UNL     1      -6.200  20.993  68.255  1.00  0.00    -0.339 OA 
HETATM    5  C   UNL     1      -8.995  19.824  66.344  1.00  0.00    -0.440 A  
HETATM    6  C   UNL     1     -10.110  18.977  66.399  1.00  0.00    -0.473 A  
HETATM    7  C   UNL     1     -10.184  18.049  67.444  1.00  0.00    -0.363 A  
HETATM    8  N   UNL     1     -11.144  17.124  67.741  1.00  0.00    -0.180 NA 
HETATM    9  C   UNL     1     -10.694  16.539  68.837  1.00  0.00    -0.337 A  
HETATM   10  O   UNL     1      -9.489  17.021  69.288  1.00  0.00    -0.159 OA 
HETATM   11  C   UNL     1      -8.039  18.807  68.365  1.00  0.00    -0.371 A  
HETATM   12  C   UNL     1      -9.166  17.997  68.383  1.00  0.00    -0.294 A  
ENDROOT
BRANCH   9  13
HETATM   13  C   UNL     1     -11.319  15.451  69.583  1.00  0.00    -0.315 A  
HETATM   14  C   UNL     1     -11.347  14.172  69.003  1.00  0.00    -0.310 A  
HETATM   15  C   UNL     1     -11.906  13.092  69.684  1.00  0.00    -0.324 A  
HETATM   16 CL   UNL     1     -11.915  11.536  68.951  1.00  0.00    -0.392 Cl 
HETATM   17  C   UNL     1     -12.450  13.264  70.951  1.00  0.00    -0.424 A  
HETATM   18  C   UNL     1     -12.434  14.532  71.530  1.00  0.00    -0.355 A  
HETATM   19 CL   UNL     1     -13.104  14.752  73.100  1.00  0.00    -0.597 Cl 
HETATM   20  C   UNL     1     -11.876  15.623  70.857  1.00  0.00    -0.428 A  
ENDBRANCH   9  13
TORSDOF 1
ENDMDL
MODEL       15
REMARK 921   NORMALIZED FREE ENERGY PREDICTED BY IDOCK:   -6.59 KCAL/MOL
REMARK 922        TOTAL FREE ENERGY PREDICTED BY IDOCK:   -7.17 KCAL/MOL
REMARK 923 INTER-LIGAND FREE ENERGY PREDICTED BY IDOCK:   -6.97 KCAL/MOL
REMARK 924 INTRA-LIGAND FREE ENERGY PREDICTED BY IDOCK:   -0.20 KCAL/MOL
REMARK 927      BINDING AFFINITY PREDICTED BY RF-SCORE:    0.00 PKD
ROOT
HETATM    1  O   UNL     1     -11.298  16.492  63.731  1.00  0.00    -0.966 OA 
HETATM    2  C   UNL     1     -10.976  16.386  65.037  1.00  0.00    -0.252 C  
HETATM    3  C   UNL     1     -11.254  15.054  65.629  1.00  0.00    -0.327 A  
HETATM    4  O   UNL     1     -10.472  17.293  65.674  1.00  0.00    -0.561 OA 
HETATM    5  C   UNL     1     -12.346  14.279  65.193  1.00  0.00    -0.427 A  
HETATM    6  C   UNL     1     -12.612  13.025  65.761  1.00  0.00    -0.269 A  
HETATM    7  C   UNL     1     -11.776  12.576  66.790  1.00  0.00    -0.384 A  
HETATM    8  N   UNL     1     -11.809  11.420  67.516  1.00  0.00    -0.627 NA 
HETATM    9  C   UNL     1     -10.792  11.539  68.350  1.00  0.00    -0.211 A  
HETATM   10  O   UNL     1     -10.082  12.708  68.223  1.00  0.00    -0.224 OA 
HETATM   11  C   UNL     1     -10.416  14.615  66.674  1.00  0.00    -0.278 A  
HETATM   12  C   UNL     1     -10.725  13.374  67.213  1.00  0.00    -0.260 A  
ENDROOT
BRANCH   9  13
HETATM   13  C   UNL     1     -10.346  10.574  69.351  1.00  0.00    -0.258 A  
HETATM   14  C   UNL     1      -8.993  10.192  69.356  1.00  0.00    -0.205 A  
HETATM   15  C   UNL     1      -8.509   9.296  70.306  1.00  0.00    -0.203 A  
HETATM   16 CL   UNL     1      -6.845   8.857  70.291  1.00  0.00    -0.041 Cl 
HETATM   17  C   UNL     1      -9.358   8.761  71.267  1.00  0.00    -0.319 A  
HETATM   18  C   UNL     1     -10.703   9.127  71.264  1.00  0.00    -0.331 A  
HETATM   19 CL   UNL     1     -11.760   8.470  72.452  1.00  0.00    -0.447 Cl 
HETATM   20  C   UNL     1     -11.201  10.026  70.316  1.00  0.00    -0.379 A  
ENDBRANCH   9  13
TORSDOF 1
ENDMDL
MODEL       16
REMARK 921   NORMALIZED FREE ENERGY PREDICTED BY IDOCK:   -6.57 KCAL/MOL
REMARK 922        TOTAL FREE ENERGY PREDICTED BY IDOCK:   -7.15 KCAL/MOL
REMARK 923 INTER-LIGAND FREE ENERGY PREDICTED BY IDOCK:   -6.93 KCAL/MOL
REMARK 924 INTRA-LIGAND FREE ENERGY PREDICTED BY IDOCK:   -0.22 KCAL/MOL
REMARK 927      BINDING AFFINITY PREDICTED BY RF-SCORE:    0.00 PKD
ROOT
HETATM    1  O   UNL     1      -7.248  19.448  65.214  1.00  0.00    -0.427 OA 
HETATM    2  C   UNL     1      -7.977  19.723  66.316  1.00  0.00    -0.332 C  
HETATM    3  C   UNL     1      -8.848  18.608  66.766  1.00  0.00    -0.297 A  
HETATM    4  O   UNL     1      -7.909  20.783  66.912  1.00  0.00    -0.252 OA 
HETATM    5  C   UNL     1      -9.430  17.722  65.841  1.00  0.00     0.048 A  
HETATM    6  C   UNL     1     -10.261  16.677  66.269  1.00  0.00    -0.344 A  
HETATM    7  C   UNL     1     -10.513  16.553  67.640  1.00  0.00    -0.305 A  
HETATM    8  N   UNL     1     -11.278  15.651  68.321  1.00  0.00    -0.337 NA 
HETATM    9  C   UNL     1     -11.157  16.020  69.584  1.00  0.00    -0.331 A  
HETATM   10  O   UNL     1     -10.355  17.118  69.784  1.00  0.00    -0.115 OA 
HETATM   11  C   UNL     1      -9.108  18.500  68.148  1.00  0.00    -0.329 A  
HETATM   12  C   UNL     1      -9.944  17.457  68.522  1.00  0.00    -0.331 A  
ENDROOT
BRANCH   9  13
HETATM   13  C   UNL     1     -11.755  15.387  70.756  1.00  0.00    -0.385 A  
HETATM   14  C   UNL     1     -11.894  16.148  71.929  1.00  0.00    -0.605 A  
HETATM   15  C   UNL     1     -12.482  15.602  73.067  1.00  0.00    -0.457 A  
HETATM   16 CL   UNL     1     -12.647  16.563  74.485  1.00  0.00    -0.409 Cl 
HETATM   17  C   UNL     1     -12.941  14.290  73.063  1.00  0.00    -0.512 A  
HETATM   18  C   UNL     1     -12.799  13.525  71.907  1.00  0.00    -0.272 A  
HETATM   19 CL   UNL     1     -13.367  11.901  71.892  1.00  0.00    -0.507 Cl 
HETATM   20  C   UNL     1     -12.210  14.062  70.757  1.00  0.00    -0.438 A  
ENDBRANCH   9  13
TORSDOF 1
ENDMDL
MODEL       17
REMARK 921   NORMALIZED FREE ENERGY PREDICTED BY IDOCK:   -6.56 KCAL/MOL
REMARK 922        TOTAL FREE ENERGY PREDICTED BY IDOCK:   -7.14 KCAL/MOL
REMARK 923 INTER-LIGAND FREE ENERGY PREDICTED BY IDOCK:   -6.95 KCAL/MOL
REMARK 924 INTRA-LIGAND FREE ENERGY PREDICTED BY IDOCK:   -0.18 KCAL/MOL
REMARK 927      BINDING AFFINITY PREDICTED BY RF-SCORE:    0.00 PKD
ROOT
HETATM    1  O   UNL     1     -12.320  15.568  73.958  1.00  0.00    -0.545 OA 
HETATM    2  C   UNL     1     -12.983  14.890  72.999  1.00  0.00    -0.499 C  
HETATM    3  C   UNL     1     -12.312  14.889  71.676  1.00  0.00    -0.404 A  
HETATM    4  O   UNL     1     -14.029  14.300  73.203  1.00  0.00    -0.352 OA 
HETATM    5  C   UNL     1     -11.556  15.995  71.244  1.00  0.00    -0.506 A  
HETATM    6  C   UNL     1     -10.932  15.996  69.989  1.00  0.00    -0.365 A  
HETATM    7  C   UNL     1     -11.101  14.875  69.167  1.00  0.00    -0.269 A  
HETATM    8  N   UNL     1     -10.623  14.616  67.914  1.00  0.00    -0.242 NA 
HETATM    9  C   UNL     1     -11.106  13.419  67.631  1.00  0.00    -0.265 A  
HETATM   10  O   UNL     1     -11.878  12.865  68.623  1.00  0.00    -0.305 OA 
HETATM   11  C   UNL     1     -12.499  13.762  70.849  1.00  0.00    -0.451 A  
HETATM   12  C   UNL     1     -11.872  13.813  69.612  1.00  0.00    -0.333 A  
ENDROOT
BRANCH   9  13
HETATM   13  C   UNL     1     -10.891  12.640  66.415  1.00  0.00    -0.295 A  
HETATM   14  C   UNL     1      -9.709  11.890  66.302  1.00  0.00    -0.247 A  
HETATM   15  C   UNL     1      -9.467  11.107  65.175  1.00  0.00    -0.226 A  
HETATM   16 CL   UNL     1      -8.014  10.191  65.071  1.00  0.00    -0.143 Cl 
HETATM   17  C   UNL     1     -10.392  11.057  64.140  1.00  0.00    -0.434 A  
HETATM   18  C   UNL     1     -11.564  11.805  64.240  1.00  0.00    -0.277 A  
HETATM   19 CL   UNL     1     -12.716  11.746  62.964  1.00  0.00    -0.323 Cl 
HETATM   20  C   UNL     1     -11.819  12.594  65.366  1.00  0.00    -0.473 A  
ENDBRANCH   9  13
TORSDOF 1
ENDMDL
MODEL       18
REMARK 921   NORMALIZED FREE ENERGY PREDICTED BY IDOCK:   -6.53 KCAL/MOL
REMARK 922        TOTAL FREE ENERGY PREDICTED BY IDOCK:   -7.11 KCAL/MOL
REMARK 923 INTER-LIGAND FREE ENERGY PREDICTED BY IDOCK:   -6.89 KCAL/MOL
REMARK 924 INTRA-LIGAND FREE ENERGY PREDICTED BY IDOCK:   -0.21 KCAL/MOL
REMARK 927      BINDING AFFINITY PREDICTED BY RF-SCORE:    0.00 PKD
ROOT
HETATM    1  O   UNL     1      -7.113  19.054  64.968  1.00  0.00    -0.400 OA 
HETATM    2  C   UNL     1      -7.743  19.401  66.109  1.00  0.00    -0.303 C  
HETATM    3  C   UNL     1      -8.711  18.392  66.605  1.00  0.00    -0.295 A  
HETATM    4  O   UNL     1      -7.519  20.441  66.703  1.00  0.00    -0.274 OA 
HETATM    5  C   UNL     1      -9.443  17.587  65.711  1.00  0.00     0.154 A  
HETATM    6  C   UNL     1     -10.364  16.642  66.182  1.00  0.00    -0.340 A  
HETATM    7  C   UNL     1     -10.553  16.536  67.565  1.00  0.00    -0.313 A  
HETATM    8  N   UNL     1     -11.379  15.722  68.286  1.00  0.00    -0.358 NA 
HETATM    9  C   UNL     1     -11.146  16.063  69.541  1.00  0.00    -0.333 A  
HETATM   10  O   UNL     1     -10.212  17.059  69.699  1.00  0.00    -0.161 OA 
HETATM   11  C   UNL     1      -8.905  18.302  67.998  1.00  0.00    -0.290 A  
HETATM   12  C   UNL     1      -9.834  17.360  68.416  1.00  0.00    -0.316 A  
ENDROOT
BRANCH   9  13
HETATM   13  C   UNL     1     -11.748  15.494  70.743  1.00  0.00    -0.397 A  
HETATM   14  C   UNL     1     -12.246  14.181  70.683  1.00  0.00    -0.432 A  
HETATM   15  C   UNL     1     -12.805  13.579  71.809  1.00  0.00    -0.306 A  
HETATM   16 CL   UNL     1     -13.398  11.967  71.706  1.00  0.00    -0.444 Cl 
HETATM   17  C   UNL     1     -12.882  14.270  73.012  1.00  0.00    -0.461 A  
HETATM   18  C   UNL     1     -12.398  15.575  73.077  1.00  0.00    -0.444 A  
HETATM   19 CL   UNL     1     -12.487  16.436  74.565  1.00  0.00    -0.566 Cl 
HETATM   20  C   UNL     1     -11.835  16.190  71.955  1.00  0.00    -0.615 A  
ENDBRANCH   9  13
TORSDOF 1
ENDMDL
MODEL       19
REMARK 921   NORMALIZED FREE ENERGY PREDICTED BY IDOCK:   -6.48 KCAL/MOL
REMARK 922        TOTAL FREE ENERGY PREDICTED BY IDOCK:   -7.05 KCAL/MOL
REMARK 923 INTER-LIGAND FREE ENERGY PREDICTED BY IDOCK:   -6.84 KCAL/MOL
REMARK 924 INTRA-LIGAND FREE ENERGY PREDICTED BY IDOCK:   -0.22 KCAL/MOL
REMARK 927      BINDING AFFINITY PREDICTED BY RF-SCORE:    0.00 PKD
ROOT
HETATM    1  O   UNL     1     -13.049  15.767  73.100  1.00  0.00    -0.472 OA 
HETATM    2  C   UNL     1     -13.420  14.689  72.379  1.00  0.00    -0.436 C  
HETATM    3  C   UNL     1     -12.720  14.553  71.077  1.00  0.00    -0.413 A  
HETATM    4  O   UNL     1     -14.237  13.875  72.772  1.00  0.00    -0.620 OA 
HETATM    5  C   UNL     1     -12.330  15.688  70.341  1.00  0.00    -0.427 A  
HETATM    6  C   UNL     1     -11.679  15.556  69.107  1.00  0.00    -0.380 A  
HETATM    7  C   UNL     1     -11.449  14.266  68.615  1.00  0.00    -0.296 A  
HETATM    8  N   UNL     1     -10.856  13.853  67.457  1.00  0.00    -0.264 NA 
HETATM    9  C   UNL     1     -10.924  12.535  67.517  1.00  0.00    -0.251 A  
HETATM   10  O   UNL     1     -11.530  12.045  68.649  1.00  0.00    -0.246 OA 
HETATM   11  C   UNL     1     -12.505  13.250  70.584  1.00  0.00    -0.373 A  
HETATM   12  C   UNL     1     -11.868  13.171  69.353  1.00  0.00    -0.326 A  
ENDROOT
BRANCH   9  13
HETATM   13  C   UNL     1     -10.419  11.573  66.542  1.00  0.00    -0.284 A  
HETATM   14  C   UNL     1     -10.288  10.230  66.933  1.00  0.00    -0.298 A  
HETATM   15  C   UNL     1      -9.837   9.266  66.033  1.00  0.00    -0.293 A  
HETATM   16 CL   UNL     1      -9.697   7.628  66.541  1.00  0.00    -0.271 Cl 
HETATM   17  C   UNL     1      -9.506   9.619  64.731  1.00  0.00    -0.256 A  
HETATM   18  C   UNL     1      -9.625  10.950  64.337  1.00  0.00    -0.265 A  
HETATM   19 CL   UNL     1      -9.219  11.394  62.725  1.00  0.00    -0.375 Cl 
HETATM   20  C   UNL     1     -10.076  11.927  65.230  1.00  0.00    -0.290 A  
ENDBRANCH   9  13
TORSDOF 1
ENDMDL
MODEL       20
REMARK 921   NORMALIZED FREE ENERGY PREDICTED BY IDOCK:   -6.48 KCAL/MOL
REMARK 922        TOTAL FREE ENERGY PREDICTED BY IDOCK:   -7.05 KCAL/MOL
REMARK 923 INTER-LIGAND FREE ENERGY PREDICTED BY IDOCK:   -6.84 KCAL/MOL
REMARK 924 INTRA-LIGAND FREE ENERGY PREDICTED BY IDOCK:   -0.21 KCAL/MOL
REMARK 927      BINDING AFFINITY PREDICTED BY RF-SCORE:    0.00 PKD
ROOT
HETATM    1  O   UNL     1     -14.071  16.057  72.941  1.00  0.00    -0.530 OA 
HETATM    2  C   UNL     1     -12.886  15.774  72.363  1.00  0.00    -0.457 C  
HETATM    3  C   UNL     1     -12.782  14.395  71.824  1.00  0.00    -0.427 A  
HETATM    4  O   UNL     1     -11.983  16.586  72.263  1.00  0.00    -0.494 OA 
HETATM    5  C   UNL     1     -13.442  13.320  72.448  1.00  0.00    -0.670 A  
HETATM    6  C   UNL     1     -13.334  12.017  71.942  1.00  0.00    -0.408 A  
HETATM    7  C   UNL     1     -12.533  11.812  70.812  1.00  0.00    -0.312 A  
HETATM    8  N   UNL     1     -12.246  10.666  70.126  1.00  0.00    -0.316 NA 
HETATM    9  C   UNL     1     -11.437  11.067  69.162  1.00  0.00    -0.301 A  
HETATM   10  O   UNL     1     -11.166  12.414  69.166  1.00  0.00    -0.245 OA 
HETATM   11  C   UNL     1     -11.963  14.196  70.694  1.00  0.00    -0.385 A  
HETATM   12  C   UNL     1     -11.877  12.888  70.236  1.00  0.00    -0.213 A  
ENDROOT
BRANCH   9  13
HETATM   13  C   UNL     1     -10.834  10.251  68.113  1.00  0.00    -0.312 A  
HETATM   14  C   UNL     1     -10.535   8.908  68.398  1.00  0.00    -0.230 A  
HETATM   15  C   UNL     1      -9.985   8.077  67.424  1.00  0.00    -0.207 A  
HETATM   16 CL   UNL     1      -9.640   6.434  67.802  1.00  0.00    -0.121 Cl 
HETATM   17  C   UNL     1      -9.718   8.566  66.151  1.00  0.00    -0.259 A  
HETATM   18  C   UNL     1     -10.002   9.899  65.862  1.00  0.00    -0.277 A  
HETATM   19 CL   UNL     1      -9.677  10.511  64.287  1.00  0.00    -0.362 Cl 
HETATM   20  C   UNL     1     -10.555  10.742  66.831  1.00  0.00    -0.312 A  
ENDBRANCH   9  13
TORSDOF 1
ENDMDL
MODEL       21
REMARK 921   NORMALIZED FREE ENERGY PREDICTED BY IDOCK:   -6.47 KCAL/MOL
REMARK 922        TOTAL FREE ENERGY PREDICTED BY IDOCK:   -7.04 KCAL/MOL
REMARK 923 INTER-LIGAND FREE ENERGY PREDICTED BY IDOCK:   -6.83 KCAL/MOL
REMARK 924 INTRA-LIGAND FREE ENERGY PREDICTED BY IDOCK:   -0.21 KCAL/MOL
REMARK 927      BINDING AFFINITY PREDICTED BY RF-SCORE:    0.00 PKD
ROOT
HETATM    1  O   UNL     1      -5.630  21.234  68.454  1.00  0.00    -0.322 OA 
HETATM    2  C   UNL     1      -6.386  20.293  69.055  1.00  0.00    -0.312 C  
HETATM    3  C   UNL     1      -7.296  19.563  68.137  1.00  0.00    -0.334 A  
HETATM    4  O   UNL     1      -6.312  20.037  70.243  1.00  0.00    -0.358 OA 
HETATM    5  C   UNL     1      -7.870  20.203  67.023  1.00  0.00    -0.354 A  
HETATM    6  C   UNL     1      -8.738  19.513  66.164  1.00  0.00    -0.332 A  
HETATM    7  C   UNL     1      -9.036  18.178  66.459  1.00  0.00    -0.275 A  
HETATM    8  N   UNL     1      -9.842  17.287  65.811  1.00  0.00    -0.551 NA 
HETATM    9  C   UNL     1      -9.752  16.188  66.539  1.00  0.00    -0.263 A  
HETATM   10  O   UNL     1      -8.932  16.295  67.636  1.00  0.00    -0.191 OA 
HETATM   11  C   UNL     1      -7.602  18.222  68.450  1.00  0.00    -0.302 A  
HETATM   12  C   UNL     1      -8.473  17.585  67.578  1.00  0.00    -0.213 A  
ENDROOT
BRANCH   9  13
HETATM   13  C   UNL     1     -10.401  14.904  66.293  1.00  0.00    -0.302 A  
HETATM   14  C   UNL     1     -10.812  14.140  67.398  1.00  0.00    -0.291 A  
HETATM   15  C   UNL     1     -11.461  12.919  67.220  1.00  0.00    -0.336 A  
HETATM   16 CL   UNL     1     -11.961  12.013  68.594  1.00  0.00    -0.351 Cl 
HETATM   17  C   UNL     1     -11.710  12.434  65.942  1.00  0.00    -0.476 A  
HETATM   18  C   UNL     1     -11.297  13.181  64.840  1.00  0.00    -0.309 A  
HETATM   19 CL   UNL     1     -11.605  12.589  63.254  1.00  0.00    -0.510 Cl 
HETATM   20  C   UNL     1     -10.646  14.407  65.006  1.00  0.00    -0.452 A  
ENDBRANCH   9  13
TORSDOF 1
ENDMDL
MODEL       22
REMARK 921   NORMALIZED FREE ENERGY PREDICTED BY IDOCK:   -6.42 KCAL/MOL
REMARK 922        TOTAL FREE ENERGY PREDICTED BY IDOCK:   -6.99 KCAL/MOL
REMARK 923 INTER-LIGAND FREE ENERGY PREDICTED BY IDOCK:   -6.79 KCAL/MOL
REMARK 924 INTRA-LIGAND FREE ENERGY PREDICTED BY IDOCK:   -0.20 KCAL/MOL
REMARK 927      BINDING AFFINITY PREDICTED BY RF-SCORE:    0.00 PKD
ROOT
HETATM    1  O   UNL     1     -11.229   7.488  73.169  1.00  0.00    -0.369 OA 
HETATM    2  C   UNL     1     -11.284   7.519  71.821  1.00  0.00    -0.246 C  
HETATM    3  C   UNL     1     -11.616   8.849  71.253  1.00  0.00    -0.371 A  
HETATM    4  O   UNL     1     -11.052   6.548  71.123  1.00  0.00    -0.256 OA 
HETATM    5  C   UNL     1     -12.476   9.734  71.930  1.00  0.00    -0.451 A  
HETATM    6  C   UNL     1     -12.796  10.986  71.386  1.00  0.00    -0.548 A  
HETATM    7  C   UNL     1     -12.255  11.322  70.140  1.00  0.00    -0.330 A  
HETATM    8  N   UNL     1     -12.403  12.450  69.385  1.00  0.00    -0.023 NA 
HETATM    9  C   UNL     1     -11.676  12.211  68.308  1.00  0.00    -0.342 A  
HETATM   10  O   UNL     1     -11.050  10.987  68.301  1.00  0.00    -0.215 OA 
HETATM   11  C   UNL     1     -11.077   9.174  69.991  1.00  0.00    -0.208 A  
HETATM   12  C   UNL     1     -11.430  10.418  69.488  1.00  0.00    -0.246 A  
ENDROOT
BRANCH   9  13
HETATM   13  C   UNL     1     -11.459  13.096  67.168  1.00  0.00    -0.378 A  
HETATM   14  C   UNL     1     -11.877  12.664  65.897  1.00  0.00    -0.499 A  
HETATM   15  C   UNL     1     -11.720  13.481  64.779  1.00  0.00    -0.370 A  
HETATM   16 CL   UNL     1     -12.252  12.927  63.240  1.00  0.00    -0.590 Cl 
HETATM   17  C   UNL     1     -11.142  14.739  64.902  1.00  0.00    -0.416 A  
HETATM   18  C   UNL     1     -10.716  15.171  66.156  1.00  0.00    -0.325 A  
HETATM   19 CL   UNL     1     -10.002  16.728  66.316  1.00  0.00    -0.317 Cl 
HETATM   20  C   UNL     1     -10.869  14.361  67.286  1.00  0.00    -0.290 A  
ENDBRANCH   9  13
TORSDOF 1
ENDMDL
MODEL       23
REMARK 921   NORMALIZED FREE ENERGY PREDICTED BY IDOCK:   -6.42 KCAL/MOL
REMARK 922        TOTAL FREE ENERGY PREDICTED BY IDOCK:   -6.99 KCAL/MOL
REMARK 923 INTER-LIGAND FREE ENERGY PREDICTED BY IDOCK:   -6.76 KCAL/MOL
REMARK 924 INTRA-LIGAND FREE ENERGY PREDICTED BY IDOCK:   -0.22 KCAL/MOL
REMARK 927      BINDING AFFINITY PREDICTED BY RF-SCORE:    0.00 PKD
ROOT
HETATM    1  O   UNL     1     -10.268   7.735  73.369  1.00  0.00    -0.328 OA 
HETATM    2  C   UNL     1     -10.396   7.417  72.064  1.00  0.00    -0.193 C  
HETATM    3  C   UNL     1     -10.836   8.541  71.201  1.00  0.00    -0.298 A  
HETATM    4  O   UNL     1     -10.144   6.311  71.621  1.00  0.00    -0.186 OA 
HETATM    5  C   UNL     1     -11.711   9.531  71.688  1.00  0.00    -0.460 A  
HETATM    6  C   UNL     1     -12.133  10.586  70.867  1.00  0.00    -0.487 A  
HETATM    7  C   UNL     1     -11.680  10.615  69.544  1.00  0.00    -0.284 A  
HETATM    8  N   UNL     1     -11.935  11.504  68.540  1.00  0.00    -0.529 NA 
HETATM    9  C   UNL     1     -11.253  11.030  67.512  1.00  0.00    -0.302 A  
HETATM   10  O   UNL     1     -10.557   9.874  67.774  1.00  0.00    -0.226 OA 
HETATM   11  C   UNL     1     -10.385   8.555  69.866  1.00  0.00    -0.210 A  
HETATM   12  C   UNL     1     -10.839   9.612  69.089  1.00  0.00    -0.190 A  
ENDROOT
BRANCH   9  13
HETATM   13  C   UNL     1     -11.150  11.601  66.174  1.00  0.00    -0.335 A  
HETATM   14  C   UNL     1     -10.440  10.888  65.194  1.00  0.00    -0.316 A  
HETATM   15  C   UNL     1     -10.334  11.374  63.893  1.00  0.00    -0.379 A  
HETATM   16 CL   UNL     1      -9.466  10.471  62.714  1.00  0.00    -0.333 Cl 
HETATM   17  C   UNL     1     -10.930  12.580  63.541  1.00  0.00    -0.472 A  
HETATM   18  C   UNL     1     -11.629  13.298  64.509  1.00  0.00    -0.369 A  
HETATM   19 CL   UNL     1     -12.372  14.790  64.080  1.00  0.00    -0.420 Cl 
HETATM   20  C   UNL     1     -11.742  12.821  65.818  1.00  0.00    -0.449 A  
ENDBRANCH   9  13
TORSDOF 1
ENDMDL
MODEL       24
REMARK 921   NORMALIZED FREE ENERGY PREDICTED BY IDOCK:   -6.41 KCAL/MOL
REMARK 922        TOTAL FREE ENERGY PREDICTED BY IDOCK:   -6.98 KCAL/MOL
REMARK 923 INTER-LIGAND FREE ENERGY PREDICTED BY IDOCK:   -6.77 KCAL/MOL
REMARK 924 INTRA-LIGAND FREE ENERGY PREDICTED BY IDOCK:   -0.21 KCAL/MOL
REMARK 927      BINDING AFFINITY PREDICTED BY RF-SCORE:    0.00 PKD
ROOT
HETATM    1  O   UNL     1     -13.119  15.565  73.052  1.00  0.00    -0.428 OA 
HETATM    2  C   UNL     1     -13.465  14.455  72.368  1.00  0.00    -0.462 C  
HETATM    3  C   UNL     1     -12.781  14.304  71.060  1.00  0.00    -0.430 A  
HETATM    4  O   UNL     1     -14.250  13.627  72.795  1.00  0.00    -0.676 OA 
HETATM    5  C   UNL     1     -12.438  15.429  70.286  1.00  0.00    -0.413 A  
HETATM    6  C   UNL     1     -11.801  15.283  69.046  1.00  0.00    -0.342 A  
HETATM    7  C   UNL     1     -11.536  13.987  68.588  1.00  0.00    -0.302 A  
HETATM    8  N   UNL     1     -10.946  13.560  67.433  1.00  0.00    -0.268 NA 
HETATM    9  C   UNL     1     -10.971  12.243  67.531  1.00  0.00    -0.254 A  
HETATM   10  O   UNL     1     -11.545  11.767  68.686  1.00  0.00    -0.258 OA 
HETATM   11  C   UNL     1     -12.531  12.995  70.600  1.00  0.00    -0.347 A  
HETATM   12  C   UNL     1     -11.908  12.901  69.363  1.00  0.00    -0.312 A  
ENDROOT
BRANCH   9  13
HETATM   13  C   UNL     1     -10.449  11.270  66.576  1.00  0.00    -0.299 A  
HETATM   14  C   UNL     1     -10.179  11.699  65.265  1.00  0.00    -0.316 A  
HETATM   15  C   UNL     1      -9.654  10.819  64.321  1.00  0.00    -0.283 A  
HETATM   16 CL   UNL     1      -9.325  11.378  62.728  1.00  0.00    -0.387 Cl 
HETATM   17  C   UNL     1      -9.391   9.497  64.660  1.00  0.00    -0.201 A  
HETATM   18  C   UNL     1      -9.664   9.062  65.955  1.00  0.00    -0.269 A  
HETATM   19 CL   UNL     1      -9.337   7.427  66.384  1.00  0.00    -0.219 Cl 
HETATM   20  C   UNL     1     -10.190   9.935  66.912  1.00  0.00    -0.302 A  
ENDBRANCH   9  13
TORSDOF 1
ENDMDL
MODEL       25
REMARK 921   NORMALIZED FREE ENERGY PREDICTED BY IDOCK:   -6.41 KCAL/MOL
REMARK 922        TOTAL FREE ENERGY PREDICTED BY IDOCK:   -6.98 KCAL/MOL
REMARK 923 INTER-LIGAND FREE ENERGY PREDICTED BY IDOCK:   -6.77 KCAL/MOL
REMARK 924 INTRA-LIGAND FREE ENERGY PREDICTED BY IDOCK:   -0.21 KCAL/MOL
REMARK 927      BINDING AFFINITY PREDICTED BY RF-SCORE:    0.00 PKD
ROOT
HETATM    1  O   UNL     1      -9.033   9.119  62.333  1.00  0.00    -0.237 OA 
HETATM    2  C   UNL     1      -8.618   9.284  63.606  1.00  0.00    -0.196 C  
HETATM    3  C   UNL     1      -9.501  10.148  64.429  1.00  0.00    -0.368 A  
HETATM    4  O   UNL     1      -7.621   8.748  64.057  1.00  0.00    -0.112 OA 
HETATM    5  C   UNL     1     -10.197  11.229  63.857  1.00  0.00    -0.420 A  
HETATM    6  C   UNL     1     -11.021  12.050  64.639  1.00  0.00    -0.367 A  
HETATM    7  C   UNL     1     -11.115  11.778  66.009  1.00  0.00    -0.312 A  
HETATM    8  N   UNL     1     -11.824  12.410  66.990  1.00  0.00    -0.546 NA 
HETATM    9  C   UNL     1     -11.527  11.732  68.084  1.00  0.00    -0.316 A  
HETATM   10  O   UNL     1     -10.660  10.683  67.889  1.00  0.00    -0.196 OA 
HETATM   11  C   UNL     1      -9.578   9.875  65.810  1.00  0.00    -0.312 A  
HETATM   12  C   UNL     1     -10.398  10.721  66.545  1.00  0.00    -0.244 A  
ENDROOT
BRANCH   9  13
HETATM   13  C   UNL     1     -12.027  11.963  69.436  1.00  0.00    -0.350 A  
HETATM   14  C   UNL     1     -12.396  10.851  70.212  1.00  0.00    -0.412 A  
HETATM   15  C   UNL     1     -12.853  11.013  71.518  1.00  0.00    -0.450 A  
HETATM   16 CL   UNL     1     -13.289   9.631  72.445  1.00  0.00    -0.484 Cl 
HETATM   17  C   UNL     1     -12.954  12.282  72.076  1.00  0.00    -0.375 A  
HETATM   18  C   UNL     1     -12.598  13.390  71.311  1.00  0.00    -0.322 A  
HETATM   19 CL   UNL     1     -12.718  14.964  71.997  1.00  0.00    -0.370 Cl 
HETATM   20  C   UNL     1     -12.138  13.241  69.999  1.00  0.00    -0.385 A  
ENDBRANCH   9  13
TORSDOF 1
ENDMDL
MODEL       26
REMARK 921   NORMALIZED FREE ENERGY PREDICTED BY IDOCK:   -6.39 KCAL/MOL
REMARK 922        TOTAL FREE ENERGY PREDICTED BY IDOCK:   -6.96 KCAL/MOL
REMARK 923 INTER-LIGAND FREE ENERGY PREDICTED BY IDOCK:   -6.74 KCAL/MOL
REMARK 924 INTRA-LIGAND FREE ENERGY PREDICTED BY IDOCK:   -0.21 KCAL/MOL
REMARK 927      BINDING AFFINITY PREDICTED BY RF-SCORE:    0.00 PKD
ROOT
HETATM    1  O   UNL     1     -10.354   7.712  73.438  1.00  0.00    -0.341 OA 
HETATM    2  C   UNL     1     -10.448   7.379  72.134  1.00  0.00    -0.209 C  
HETATM    3  C   UNL     1     -10.892   8.485  71.251  1.00  0.00    -0.312 A  
HETATM    4  O   UNL     1     -10.166   6.273  71.707  1.00  0.00    -0.192 OA 
HETATM    5  C   UNL     1     -11.795   9.463  71.709  1.00  0.00    -0.452 A  
HETATM    6  C   UNL     1     -12.220  10.501  70.868  1.00  0.00    -0.490 A  
HETATM    7  C   UNL     1     -11.740  10.526  69.554  1.00  0.00    -0.241 A  
HETATM    8  N   UNL     1     -11.991  11.399  68.535  1.00  0.00    -0.555 NA 
HETATM    9  C   UNL     1     -11.279  10.928  67.528  1.00  0.00    -0.293 A  
HETATM   10  O   UNL     1     -10.567   9.788  67.815  1.00  0.00    -0.233 OA 
HETATM   11  C   UNL     1     -10.413   8.494  69.924  1.00  0.00    -0.219 A  
HETATM   12  C   UNL     1     -10.871   9.534  69.127  1.00  0.00    -0.173 A  
ENDROOT
BRANCH   9  13
HETATM   13  C   UNL     1     -11.160  11.488  66.185  1.00  0.00    -0.302 A  
HETATM   14  C   UNL     1     -11.798  12.709  65.911  1.00  0.00    -0.499 A  
HETATM   15  C   UNL     1     -11.694  13.302  64.654  1.00  0.00    -0.364 A  
HETATM   16 CL   UNL     1     -12.479  14.803  64.353  1.00  0.00    -0.411 Cl 
HETATM   17  C   UNL     1     -10.956  12.692  63.647  1.00  0.00    -0.464 A  
HETATM   18  C   UNL     1     -10.327  11.476  63.908  1.00  0.00    -0.371 A  
HETATM   19 CL   UNL     1      -9.409  10.716  62.666  1.00  0.00    -0.308 Cl 
HETATM   20  C   UNL     1     -10.424  10.871  65.165  1.00  0.00    -0.316 A  
ENDBRANCH   9  13
TORSDOF 1
ENDMDL
MODEL       27
REMARK 921   NORMALIZED FREE ENERGY PREDICTED BY IDOCK:   -6.37 KCAL/MOL
REMARK 922        TOTAL FREE ENERGY PREDICTED BY IDOCK:   -6.93 KCAL/MOL
REMARK 923 INTER-LIGAND FREE ENERGY PREDICTED BY IDOCK:   -6.75 KCAL/MOL
REMARK 924 INTRA-LIGAND FREE ENERGY PREDICTED BY IDOCK:   -0.18 KCAL/MOL
REMARK 927      BINDING AFFINITY PREDICTED BY RF-SCORE:    0.00 PKD
ROOT
HETATM    1  O   UNL     1     -10.936   7.407  73.455  1.00  0.00    -0.378 OA 
HETATM    2  C   UNL     1     -10.942   7.365  72.107  1.00  0.00    -0.245 C  
HETATM    3  C   UNL     1     -11.299   8.651  71.457  1.00  0.00    -0.358 A  
HETATM    4  O   UNL     1     -10.650   6.369  71.470  1.00  0.00    -0.221 OA 
HETATM    5  C   UNL     1     -12.215   9.537  72.055  1.00  0.00    -0.370 A  
HETATM    6  C   UNL     1     -12.558  10.746  71.434  1.00  0.00    -0.516 A  
HETATM    7  C   UNL     1     -11.983  11.037  70.191  1.00  0.00    -0.360 A  
HETATM    8  N   UNL     1     -12.144  12.117  69.373  1.00  0.00    -0.237 NA 
HETATM    9  C   UNL     1     -11.369  11.850  68.337  1.00  0.00    -0.276 A  
HETATM   10  O   UNL     1     -10.701  10.652  68.417  1.00  0.00    -0.193 OA 
HETATM   11  C   UNL     1     -10.726   8.929  70.199  1.00  0.00    -0.245 A  
HETATM   12  C   UNL     1     -11.104  10.131  69.618  1.00  0.00    -0.263 A  
ENDROOT
BRANCH   9  13
HETATM   13  C   UNL     1     -11.142  12.682  67.159  1.00  0.00    -0.321 A  
HETATM   14  C   UNL     1     -10.235  13.750  67.260  1.00  0.00    -0.253 A  
HETATM   15  C   UNL     1      -9.960  14.559  66.159  1.00  0.00    -0.311 A  
HETATM   16 CL   UNL     1      -8.836  15.852  66.312  1.00  0.00    -0.368 Cl 
HETATM   17  C   UNL     1     -10.583  14.323  64.939  1.00  0.00    -0.452 A  
HETATM   18  C   UNL     1     -11.491  13.271  64.833  1.00  0.00    -0.318 A  
HETATM   19 CL   UNL     1     -12.264  12.972  63.325  1.00  0.00    -0.589 Cl 
HETATM   20  C   UNL     1     -11.775  12.453  65.930  1.00  0.00    -0.476 A  
ENDBRANCH   9  13
TORSDOF 1
ENDMDL
MODEL       28
REMARK 921   NORMALIZED FREE ENERGY PREDICTED BY IDOCK:   -6.36 KCAL/MOL
REMARK 922        TOTAL FREE ENERGY PREDICTED BY IDOCK:   -6.93 KCAL/MOL
REMARK 923 INTER-LIGAND FREE ENERGY PREDICTED BY IDOCK:   -6.75 KCAL/MOL
REMARK 924 INTRA-LIGAND FREE ENERGY PREDICTED BY IDOCK:   -0.18 KCAL/MOL
REMARK 927      BINDING AFFINITY PREDICTED BY RF-SCORE:    0.00 PKD
ROOT
HETATM    1  O   UNL     1     -10.275   6.763  74.340  1.00  0.00    -0.355 OA 
HETATM    2  C   UNL     1      -9.875   7.044  73.083  1.00  0.00    -0.197 C  
HETATM    3  C   UNL     1     -10.712   8.052  72.386  1.00  0.00    -0.386 A  
HETATM    4  O   UNL     1      -8.892   6.540  72.568  1.00  0.00    -0.133 OA 
HETATM    5  C   UNL     1     -12.095   8.143  72.633  1.00  0.00    -0.311 A  
HETATM    6  C   UNL     1     -12.885   9.089  71.965  1.00  0.00    -0.468 A  
HETATM    7  C   UNL     1     -12.265   9.924  71.029  1.00  0.00    -0.353 A  
HETATM    8  N   UNL     1     -12.785  10.910  70.240  1.00  0.00    -0.266 NA 
HETATM    9  C   UNL     1     -11.746  11.350  69.553  1.00  0.00    -0.348 A  
HETATM   10  O   UNL     1     -10.562  10.713  69.837  1.00  0.00    -0.238 OA 
HETATM   11  C   UNL     1     -10.082   8.880  71.435  1.00  0.00    -0.379 A  
HETATM   12  C   UNL     1     -10.906   9.792  70.791  1.00  0.00    -0.333 A  
ENDROOT
BRANCH   9  13
HETATM   13  C   UNL     1     -11.725  12.425  68.566  1.00  0.00    -0.373 A  
HETATM   14  C   UNL     1     -11.898  12.093  67.211  1.00  0.00    -0.293 A  
HETATM   15  C   UNL     1     -11.913  13.082  66.231  1.00  0.00    -0.414 A  
HETATM   16 CL   UNL     1     -12.137  12.643  64.582  1.00  0.00    -0.453 Cl 
HETATM   17  C   UNL     1     -11.754  14.419  66.576  1.00  0.00    -0.404 A  
HETATM   18  C   UNL     1     -11.573  14.756  67.916  1.00  0.00    -0.351 A  
HETATM   19 CL   UNL     1     -11.379  16.409  68.352  1.00  0.00    -0.335 Cl 
HETATM   20  C   UNL     1     -11.556  13.773  68.910  1.00  0.00    -0.358 A  
ENDBRANCH   9  13
TORSDOF 1
ENDMDL
MODEL       29
REMARK 921   NORMALIZED FREE ENERGY PREDICTED BY IDOCK:   -6.33 KCAL/MOL
REMARK 922        TOTAL FREE ENERGY PREDICTED BY IDOCK:   -6.89 KCAL/MOL
REMARK 923 INTER-LIGAND FREE ENERGY PREDICTED BY IDOCK:   -6.69 KCAL/MOL
REMARK 924 INTRA-LIGAND FREE ENERGY PREDICTED BY IDOCK:   -0.21 KCAL/MOL
REMARK 927      BINDING AFFINITY PREDICTED BY RF-SCORE:    0.00 PKD
ROOT
HETATM    1  O   UNL     1      -8.953   9.146  62.366  1.00  0.00    -0.237 OA 
HETATM    2  C   UNL     1      -8.576   9.240  63.658  1.00  0.00    -0.196 C  
HETATM    3  C   UNL     1      -9.463  10.086  64.494  1.00  0.00    -0.359 A  
HETATM    4  O   UNL     1      -7.607   8.658  64.113  1.00  0.00    -0.109 OA 
HETATM    5  C   UNL     1     -10.114  11.211  63.954  1.00  0.00    -0.404 A  
HETATM    6  C   UNL     1     -10.944  12.014  64.749  1.00  0.00    -0.361 A  
HETATM    7  C   UNL     1     -11.089  11.680  66.100  1.00  0.00    -0.280 A  
HETATM    8  N   UNL     1     -11.813  12.282  67.089  1.00  0.00    -0.566 NA 
HETATM    9  C   UNL     1     -11.568  11.544  68.157  1.00  0.00    -0.308 A  
HETATM   10  O   UNL     1     -10.721  10.485  67.939  1.00  0.00    -0.218 OA 
HETATM   11  C   UNL     1      -9.592   9.749  65.857  1.00  0.00    -0.313 A  
HETATM   12  C   UNL     1     -10.414  10.580  66.607  1.00  0.00    -0.228 A  
ENDROOT
BRANCH   9  13
HETATM   13  C   UNL     1     -12.105  11.724  69.503  1.00  0.00    -0.314 A  
HETATM   14  C   UNL     1     -12.254  13.031  69.995  1.00  0.00    -0.306 A  
HETATM   15  C   UNL     1     -12.787  13.260  71.261  1.00  0.00    -0.312 A  
HETATM   16 CL   UNL     1     -12.966  14.874  71.831  1.00  0.00    -0.384 Cl 
HETATM   17  C   UNL     1     -13.180  12.195  72.063  1.00  0.00    -0.496 A  
HETATM   18  C   UNL     1     -13.028  10.895  71.586  1.00  0.00    -0.464 A  
HETATM   19 CL   UNL     1     -13.515   9.571  72.572  1.00  0.00    -0.452 Cl 
HETATM   20  C   UNL     1     -12.494  10.652  70.317  1.00  0.00    -0.381 A  
ENDBRANCH   9  13
TORSDOF 1
ENDMDL
MODEL       30
REMARK 921   NORMALIZED FREE ENERGY PREDICTED BY IDOCK:   -6.30 KCAL/MOL
REMARK 922        TOTAL FREE ENERGY PREDICTED BY IDOCK:   -6.87 KCAL/MOL
REMARK 923 INTER-LIGAND FREE ENERGY PREDICTED BY IDOCK:   -6.66 KCAL/MOL
REMARK 924 INTRA-LIGAND FREE ENERGY PREDICTED BY IDOCK:   -0.20 KCAL/MOL
REMARK 927      BINDING AFFINITY PREDICTED BY RF-SCORE:    0.00 PKD
ROOT
HETATM    1  O   UNL     1     -11.905   8.015  72.660  1.00  0.00    -0.377 OA 
HETATM    2  C   UNL     1     -11.805   8.440  71.383  1.00  0.00    -0.296 C  
HETATM    3  C   UNL     1     -12.005   9.900  71.208  1.00  0.00    -0.489 A  
HETATM    4  O   UNL     1     -11.542   7.699  70.453  1.00  0.00    -0.231 OA 
HETATM    5  C   UNL     1     -12.893  10.615  72.033  1.00  0.00    -0.389 A  
HETATM    6  C   UNL     1     -13.089  11.992  71.858  1.00  0.00    -0.475 A  
HETATM    7  C   UNL     1     -12.394  12.632  70.825  1.00  0.00    -0.283 A  
HETATM    8  N   UNL     1     -12.402  13.938  70.429  1.00  0.00    -0.352 NA 
HETATM    9  C   UNL     1     -11.569  13.966  69.403  1.00  0.00    -0.297 A  
HETATM   10  O   UNL     1     -11.007  12.751  69.092  1.00  0.00    -0.216 OA 
HETATM   11  C   UNL     1     -11.312  10.533  70.156  1.00  0.00    -0.400 A  
HETATM   12  C   UNL     1     -11.546  11.894  70.014  1.00  0.00    -0.220 A  
ENDROOT
BRANCH   9  13
HETATM   13  C   UNL     1     -11.183  15.123  68.603  1.00  0.00    -0.295 A  
HETATM   14  C   UNL     1     -11.207  15.007  67.203  1.00  0.00    -0.336 A  
HETATM   15  C   UNL     1     -10.874  16.090  66.391  1.00  0.00    -0.159 A  
HETATM   16 CL   UNL     1     -10.924  15.918  64.680  1.00  0.00    -0.426 Cl 
HETATM   17  C   UNL     1     -10.508  17.306  66.955  1.00  0.00    -0.287 A  
HETATM   18  C   UNL     1     -10.472  17.427  68.343  1.00  0.00    -0.384 A  
HETATM   19 CL   UNL     1     -10.023  18.931  69.048  1.00  0.00    -0.425 Cl 
HETATM   20  C   UNL     1     -10.805  16.349  69.168  1.00  0.00    -0.329 A  
ENDBRANCH   9  13
TORSDOF 1
ENDMDL
MODEL       31
REMARK 921   NORMALIZED FREE ENERGY PREDICTED BY IDOCK:   -6.27 KCAL/MOL
REMARK 922        TOTAL FREE ENERGY PREDICTED BY IDOCK:   -6.83 KCAL/MOL
REMARK 923 INTER-LIGAND FREE ENERGY PREDICTED BY IDOCK:   -6.63 KCAL/MOL
REMARK 924 INTRA-LIGAND FREE ENERGY PREDICTED BY IDOCK:   -0.20 KCAL/MOL
REMARK 927      BINDING AFFINITY PREDICTED BY RF-SCORE:    0.00 PKD
ROOT
HETATM    1  O   UNL     1     -12.075   8.236  72.800  1.00  0.00    -0.353 OA 
HETATM    2  C   UNL     1     -11.993   8.572  71.497  1.00  0.00    -0.303 C  
HETATM    3  C   UNL     1     -12.174  10.020  71.227  1.00  0.00    -0.498 A  
HETATM    4  O   UNL     1     -11.760   7.766  70.614  1.00  0.00    -0.266 OA 
HETATM    5  C   UNL     1     -13.035  10.804  72.018  1.00  0.00    -0.444 A  
HETATM    6  C   UNL     1     -13.211  12.170  71.754  1.00  0.00    -0.423 A  
HETATM    7  C   UNL     1     -12.527  12.727  70.668  1.00  0.00    -0.246 A  
HETATM    8  N   UNL     1     -12.522  14.003  70.184  1.00  0.00    -0.341 NA 
HETATM    9  C   UNL     1     -11.709  13.947  69.144  1.00  0.00    -0.338 A  
HETATM   10  O   UNL     1     -11.172  12.705  68.905  1.00  0.00    -0.252 OA 
HETATM   11  C   UNL     1     -11.491  10.569  70.122  1.00  0.00    -0.405 A  
HETATM   12  C   UNL     1     -11.707  11.921  69.893  1.00  0.00    -0.308 A  
ENDROOT
BRANCH   9  13
HETATM   13  C   UNL     1     -11.320  15.042  68.261  1.00  0.00    -0.331 A  
HETATM   14  C   UNL     1     -10.838  16.229  68.839  1.00  0.00    -0.317 A  
HETATM   15  C   UNL     1     -10.427  17.295  68.041  1.00  0.00    -0.375 A  
HETATM   16 CL   UNL     1      -9.831  18.730  68.780  1.00  0.00    -0.426 Cl 
HETATM   17  C   UNL     1     -10.489  17.203  66.656  1.00  0.00    -0.259 A  
HETATM   18  C   UNL     1     -10.974  16.033  66.075  1.00  0.00    -0.097 A  
HETATM   19 CL   UNL     1     -11.053  15.911  64.360  1.00  0.00    -0.311 Cl 
HETATM   20  C   UNL     1     -11.390  14.956  66.864  1.00  0.00    -0.338 A  
ENDBRANCH   9  13
TORSDOF 1
ENDMDL
MODEL       32
REMARK 921   NORMALIZED FREE ENERGY PREDICTED BY IDOCK:   -6.25 KCAL/MOL
REMARK 922        TOTAL FREE ENERGY PREDICTED BY IDOCK:   -6.80 KCAL/MOL
REMARK 923 INTER-LIGAND FREE ENERGY PREDICTED BY IDOCK:   -6.61 KCAL/MOL
REMARK 924 INTRA-LIGAND FREE ENERGY PREDICTED BY IDOCK:   -0.20 KCAL/MOL
REMARK 927      BINDING AFFINITY PREDICTED BY RF-SCORE:    0.00 PKD
ROOT
HETATM    1  O   UNL     1     -11.389   7.207  72.880  1.00  0.00    -0.281 OA 
HETATM    2  C   UNL     1     -11.993   8.364  72.542  1.00  0.00    -0.350 C  
HETATM    3  C   UNL     1     -11.337   9.095  71.430  1.00  0.00    -0.414 A  
HETATM    4  O   UNL     1     -13.010   8.766  73.079  1.00  0.00    -0.286 OA 
HETATM    5  C   UNL     1      -9.941   9.049  71.255  1.00  0.00    -0.381 A  
HETATM    6  C   UNL     1      -9.322   9.749  70.210  1.00  0.00    -0.236 A  
HETATM    7  C   UNL     1     -10.128  10.513  69.358  1.00  0.00    -0.209 A  
HETATM    8  N   UNL     1      -9.797  11.289  68.285  1.00  0.00    -0.190 NA 
HETATM    9  C   UNL     1     -10.954  11.777  67.875  1.00  0.00    -0.221 A  
HETATM   10  O   UNL     1     -12.039  11.372  68.615  1.00  0.00    -0.518 OA 
HETATM   11  C   UNL     1     -12.155   9.873  70.585  1.00  0.00    -0.343 A  
HETATM   12  C   UNL     1     -11.497  10.556  69.573  1.00  0.00    -0.272 A  
ENDROOT
BRANCH   9  13
HETATM   13  C   UNL     1     -11.193  12.661  66.739  1.00  0.00    -0.347 A  
HETATM   14  C   UNL     1     -11.780  12.120  65.582  1.00  0.00    -0.385 A  
HETATM   15  C   UNL     1     -12.056  12.925  64.479  1.00  0.00    -0.413 A  
HETATM   16 CL   UNL     1     -12.785  12.235  63.083  1.00  0.00    -0.389 Cl 
HETATM   17  C   UNL     1     -11.750  14.281  64.502  1.00  0.00    -0.431 A  
HETATM   18  C   UNL     1     -11.159  14.823  65.641  1.00  0.00    -0.342 A  
HETATM   19 CL   UNL     1     -10.779  16.502  65.679  1.00  0.00    -0.308 Cl 
HETATM   20  C   UNL     1     -10.878  14.026  66.755  1.00  0.00    -0.294 A  
ENDBRANCH   9  13
TORSDOF 1
ENDMDL
MODEL       33
REMARK 921   NORMALIZED FREE ENERGY PREDICTED BY IDOCK:   -6.21 KCAL/MOL
REMARK 922        TOTAL FREE ENERGY PREDICTED BY IDOCK:   -6.77 KCAL/MOL
REMARK 923 INTER-LIGAND FREE ENERGY PREDICTED BY IDOCK:   -6.56 KCAL/MOL
REMARK 924 INTRA-LIGAND FREE ENERGY PREDICTED BY IDOCK:   -0.21 KCAL/MOL
REMARK 927      BINDING AFFINITY PREDICTED BY RF-SCORE:    0.00 PKD
ROOT
HETATM    1  O   UNL     1      -8.993  20.282  66.982  1.00  0.00    -0.341 OA 
HETATM    2  C   UNL     1      -9.805  19.653  67.856  1.00  0.00    -0.399 C  
HETATM    3  C   UNL     1     -10.048  18.222  67.545  1.00  0.00    -0.362 A  
HETATM    4  O   UNL     1     -10.278  20.199  68.837  1.00  0.00    -0.385 OA 
HETATM    5  C   UNL     1     -10.097  17.767  66.214  1.00  0.00    -0.345 A  
HETATM    6  C   UNL     1     -10.337  16.417  65.922  1.00  0.00    -0.378 A  
HETATM    7  C   UNL     1     -10.550  15.538  66.991  1.00  0.00    -0.311 A  
HETATM    8  N   UNL     1     -10.812  14.199  66.997  1.00  0.00    -0.292 NA 
HETATM    9  C   UNL     1     -10.931  13.903  68.279  1.00  0.00    -0.255 A  
HETATM   10  O   UNL     1     -10.764  14.970  69.129  1.00  0.00    -0.231 OA 
HETATM   11  C   UNL     1     -10.276  17.348  68.627  1.00  0.00    -0.361 A  
HETATM   12  C   UNL     1     -10.520  16.024  68.289  1.00  0.00    -0.269 A  
ENDROOT
BRANCH   9  13
HETATM   13  C   UNL     1     -11.194  12.594  68.868  1.00  0.00    -0.329 A  
HETATM   14  C   UNL     1     -11.981  12.529  70.031  1.00  0.00    -0.372 A  
HETATM   15  C   UNL     1     -12.285  11.303  70.618  1.00  0.00    -0.393 A  
HETATM   16 CL   UNL     1     -13.261  11.258  72.035  1.00  0.00    -0.564 Cl 
HETATM   17  C   UNL     1     -11.812  10.120  70.065  1.00  0.00    -0.253 A  
HETATM   18  C   UNL     1     -11.023  10.175  68.918  1.00  0.00    -0.223 A  
HETATM   19 CL   UNL     1     -10.435   8.714  68.225  1.00  0.00    -0.253 Cl 
HETATM   20  C   UNL     1     -10.711  11.399  68.318  1.00  0.00    -0.240 A  
ENDBRANCH   9  13
TORSDOF 1
ENDMDL
MODEL       34
REMARK 921   NORMALIZED FREE ENERGY PREDICTED BY IDOCK:   -6.20 KCAL/MOL
REMARK 922        TOTAL FREE ENERGY PREDICTED BY IDOCK:   -6.76 KCAL/MOL
REMARK 923 INTER-LIGAND FREE ENERGY PREDICTED BY IDOCK:   -6.55 KCAL/MOL
REMARK 924 INTRA-LIGAND FREE ENERGY PREDICTED BY IDOCK:   -0.21 KCAL/MOL
REMARK 927      BINDING AFFINITY PREDICTED BY RF-SCORE:    0.00 PKD
ROOT
HETATM    1  O   UNL     1     -13.147  11.845  63.552  1.00  0.00    -0.715 OA 
HETATM    2  C   UNL     1     -11.828  12.096  63.677  1.00  0.00    -0.516 C  
HETATM    3  C   UNL     1     -11.510  13.454  64.185  1.00  0.00    -0.421 A  
HETATM    4  O   UNL     1     -10.966  11.272  63.427  1.00  0.00    -0.355 OA 
HETATM    5  C   UNL     1     -12.325  14.557  63.867  1.00  0.00    -0.063 A  
HETATM    6  C   UNL     1     -12.016  15.840  64.339  1.00  0.00    -0.082 A  
HETATM    7  C   UNL     1     -10.862  15.998  65.115  1.00  0.00    -0.395 A  
HETATM    8  N   UNL     1     -10.326  17.116  65.687  1.00  0.00    -0.601 NA 
HETATM    9  C   UNL     1      -9.235  16.675  66.288  1.00  0.00    -0.294 A  
HETATM   10  O   UNL     1      -9.012  15.326  66.150  1.00  0.00    -0.301 OA 
HETATM   11  C   UNL     1     -10.338  13.606  64.954  1.00  0.00    -0.408 A  
HETATM   12  C   UNL     1     -10.068  14.896  65.389  1.00  0.00    -0.367 A  
ENDROOT
BRANCH   9  13
HETATM   13  C   UNL     1      -8.281  17.448  67.078  1.00  0.00    -0.240 A  
HETATM   14  C   UNL     1      -7.610  16.806  68.132  1.00  0.00    -0.177 A  
HETATM   15  C   UNL     1      -6.669  17.489  68.900  1.00  0.00    -0.239 A  
HETATM   16 CL   UNL     1      -5.858  16.671  70.177  1.00  0.00    -0.207 Cl 
HETATM   17  C   UNL     1      -6.380  18.822  68.637  1.00  0.00    -0.248 A  
HETATM   18  C   UNL     1      -7.047  19.469  67.598  1.00  0.00    -0.233 A  
HETATM   19 CL   UNL     1      -6.691  21.119  67.264  1.00  0.00    -0.422 Cl 
HETATM   20  C   UNL     1      -7.993  18.795  66.820  1.00  0.00    -0.265 A  
ENDBRANCH   9  13
TORSDOF 1
ENDMDL
MODEL       35
REMARK 921   NORMALIZED FREE ENERGY PREDICTED BY IDOCK:   -6.15 KCAL/MOL
REMARK 922        TOTAL FREE ENERGY PREDICTED BY IDOCK:   -6.70 KCAL/MOL
REMARK 923 INTER-LIGAND FREE ENERGY PREDICTED BY IDOCK:   -6.50 KCAL/MOL
REMARK 924 INTRA-LIGAND FREE ENERGY PREDICTED BY IDOCK:   -0.21 KCAL/MOL
REMARK 927      BINDING AFFINITY PREDICTED BY RF-SCORE:    0.00 PKD
ROOT
HETATM    1  O   UNL     1     -14.382  15.466  72.439  1.00  0.00    -0.543 OA 
HETATM    2  C   UNL     1     -13.179  15.295  71.853  1.00  0.00    -0.415 C  
HETATM    3  C   UNL     1     -12.895  13.899  71.435  1.00  0.00    -0.439 A  
HETATM    4  O   UNL     1     -12.400  16.210  71.653  1.00  0.00    -0.442 OA 
HETATM    5  C   UNL     1     -13.388  12.806  72.173  1.00  0.00    -0.593 A  
HETATM    6  C   UNL     1     -13.109  11.489  71.782  1.00  0.00    -0.503 A  
HETATM    7  C   UNL     1     -12.308  11.291  70.651  1.00  0.00    -0.383 A  
HETATM    8  N   UNL     1     -11.878  10.138  70.062  1.00  0.00    -0.215 NA 
HETATM    9  C   UNL     1     -11.150  10.553  69.041  1.00  0.00    -0.249 A  
HETATM   10  O   UNL     1     -11.068  11.919  68.916  1.00  0.00    -0.221 OA 
HETATM   11  C   UNL     1     -12.077  13.710  70.303  1.00  0.00    -0.427 A  
HETATM   12  C   UNL     1     -11.819  12.390  69.962  1.00  0.00    -0.288 A  
ENDROOT
BRANCH   9  13
HETATM   13  C   UNL     1     -10.458   9.734  68.051  1.00  0.00    -0.271 A  
HETATM   14  C   UNL     1     -10.417  10.186  66.721  1.00  0.00    -0.270 A  
HETATM   15  C   UNL     1      -9.747   9.457  65.740  1.00  0.00    -0.284 A  
HETATM   16 CL   UNL     1      -9.706  10.042  64.123  1.00  0.00    -0.295 Cl 
HETATM   17  C   UNL     1      -9.109   8.265  66.062  1.00  0.00    -0.228 A  
HETATM   18  C   UNL     1      -9.153   7.805  67.377  1.00  0.00    -0.126 A  
HETATM   19 CL   UNL     1      -8.363   6.331  67.783  1.00  0.00    -0.117 Cl 
HETATM   20  C   UNL     1      -9.822   8.527  68.369  1.00  0.00    -0.189 A  
ENDBRANCH   9  13
TORSDOF 1
ENDMDL
MODEL       36
REMARK 921   NORMALIZED FREE ENERGY PREDICTED BY IDOCK:   -6.15 KCAL/MOL
REMARK 922        TOTAL FREE ENERGY PREDICTED BY IDOCK:   -6.70 KCAL/MOL
REMARK 923 INTER-LIGAND FREE ENERGY PREDICTED BY IDOCK:   -6.51 KCAL/MOL
REMARK 924 INTRA-LIGAND FREE ENERGY PREDICTED BY IDOCK:   -0.19 KCAL/MOL
REMARK 927      BINDING AFFINITY PREDICTED BY RF-SCORE:    0.00 PKD
ROOT
HETATM    1  O   UNL     1     -12.330  10.340  70.901  1.00  0.00    -0.315 OA 
HETATM    2  C   UNL     1     -12.225  11.022  69.742  1.00  0.00    -0.318 C  
HETATM    3  C   UNL     1     -11.974  12.476  69.908  1.00  0.00    -0.371 A  
HETATM    4  O   UNL     1     -12.297  10.492  68.647  1.00  0.00    -0.214 OA 
HETATM    5  C   UNL     1     -12.511  13.184  71.000  1.00  0.00    -0.406 A  
HETATM    6  C   UNL     1     -12.281  14.559  71.149  1.00  0.00    -0.411 A  
HETATM    7  C   UNL     1     -11.523  15.212  70.170  1.00  0.00    -0.281 A  
HETATM    8  N   UNL     1     -11.160  16.523  70.060  1.00  0.00    -0.303 NA 
HETATM    9  C   UNL     1     -10.462  16.568  68.939  1.00  0.00    -0.304 A  
HETATM   10  O   UNL     1     -10.341  15.361  68.293  1.00  0.00    -0.232 OA 
HETATM   11  C   UNL     1     -11.221  13.127  68.910  1.00  0.00    -0.324 A  
HETATM   12  C   UNL     1     -11.030  14.490  69.095  1.00  0.00    -0.268 A  
ENDROOT
BRANCH   9  13
HETATM   13  C   UNL     1      -9.811  17.731  68.343  1.00  0.00    -0.347 A  
HETATM   14  C   UNL     1     -10.432  18.358  67.250  1.00  0.00    -0.434 A  
HETATM   15  C   UNL     1      -9.867  19.488  66.661  1.00  0.00    -0.394 A  
HETATM   16 CL   UNL     1     -10.657  20.239  65.330  1.00  0.00    -0.252 Cl 
HETATM   17  C   UNL     1      -8.675  20.013  67.145  1.00  0.00    -0.414 A  
HETATM   18  C   UNL     1      -8.048  19.392  68.223  1.00  0.00    -0.336 A  
HETATM   19 CL   UNL     1      -6.573  20.038  68.830  1.00  0.00    -0.350 Cl 
HETATM   20  C   UNL     1      -8.605  18.258  68.823  1.00  0.00    -0.240 A  
ENDBRANCH   9  13
TORSDOF 1
ENDMDL
MODEL       37
REMARK 921   NORMALIZED FREE ENERGY PREDICTED BY IDOCK:   -6.15 KCAL/MOL
REMARK 922        TOTAL FREE ENERGY PREDICTED BY IDOCK:   -6.70 KCAL/MOL
REMARK 923 INTER-LIGAND FREE ENERGY PREDICTED BY IDOCK:   -6.49 KCAL/MOL
REMARK 924 INTRA-LIGAND FREE ENERGY PREDICTED BY IDOCK:   -0.21 KCAL/MOL
REMARK 927      BINDING AFFINITY PREDICTED BY RF-SCORE:    0.00 PKD
ROOT
HETATM    1  O   UNL     1     -13.097  11.781  63.644  1.00  0.00    -0.595 OA 
HETATM    2  C   UNL     1     -11.777  12.037  63.762  1.00  0.00    -0.481 C  
HETATM    3  C   UNL     1     -11.461  13.394  64.272  1.00  0.00    -0.429 A  
HETATM    4  O   UNL     1     -10.914  11.217  63.502  1.00  0.00    -0.381 OA 
HETATM    5  C   UNL     1     -12.282  14.495  63.964  1.00  0.00    -0.262 A  
HETATM    6  C   UNL     1     -11.974  15.778  64.438  1.00  0.00    -0.082 A  
HETATM    7  C   UNL     1     -10.815  15.938  65.207  1.00  0.00    -0.387 A  
HETATM    8  N   UNL     1     -10.280  17.056  65.779  1.00  0.00    -0.564 NA 
HETATM    9  C   UNL     1      -9.183  16.616  66.371  1.00  0.00    -0.287 A  
HETATM   10  O   UNL     1      -8.957  15.269  66.226  1.00  0.00    -0.299 OA 
HETATM   11  C   UNL     1     -10.284  13.548  65.034  1.00  0.00    -0.345 A  
HETATM   12  C   UNL     1     -10.015  14.837  65.471  1.00  0.00    -0.356 A  
ENDROOT
BRANCH   9  13
HETATM   13  C   UNL     1      -8.227  17.390  67.157  1.00  0.00    -0.229 A  
HETATM   14  C   UNL     1      -8.007  18.733  66.809  1.00  0.00    -0.265 A  
HETATM   15  C   UNL     1      -7.125  19.525  67.542  1.00  0.00    -0.216 A  
HETATM   16 CL   UNL     1      -6.886  21.169  67.097  1.00  0.00    -0.418 Cl 
HETATM   17  C   UNL     1      -6.444  18.996  68.632  1.00  0.00    -0.277 A  
HETATM   18  C   UNL     1      -6.650  17.662  68.979  1.00  0.00    -0.244 A  
HETATM   19 CL   UNL     1      -5.812  17.001  70.329  1.00  0.00    -0.185 Cl 
HETATM   20  C   UNL     1      -7.532  16.858  68.251  1.00  0.00    -0.192 A  
ENDBRANCH   9  13
TORSDOF 1
ENDMDL
MODEL       38
REMARK 921   NORMALIZED FREE ENERGY PREDICTED BY IDOCK:   -6.15 KCAL/MOL
REMARK 922        TOTAL FREE ENERGY PREDICTED BY IDOCK:   -6.70 KCAL/MOL
REMARK 923 INTER-LIGAND FREE ENERGY PREDICTED BY IDOCK:   -6.49 KCAL/MOL
REMARK 924 INTRA-LIGAND FREE ENERGY PREDICTED BY IDOCK:   -0.21 KCAL/MOL
REMARK 927      BINDING AFFINITY PREDICTED BY RF-SCORE:    0.00 PKD
ROOT
HETATM    1  O   UNL     1      -9.250  20.007  66.373  1.00  0.00    -0.365 OA 
HETATM    2  C   UNL     1     -10.047  19.427  67.295  1.00  0.00    -0.390 C  
HETATM    3  C   UNL     1     -10.261  17.973  67.090  1.00  0.00    -0.366 A  
HETATM    4  O   UNL     1     -10.530  20.034  68.234  1.00  0.00    -0.406 OA 
HETATM    5  C   UNL     1     -10.302  17.420  65.797  1.00  0.00    -0.226 A  
HETATM    6  C   UNL     1     -10.515  16.047  65.607  1.00  0.00    -0.416 A  
HETATM    7  C   UNL     1     -10.707  15.246  66.738  1.00  0.00    -0.313 A  
HETATM    8  N   UNL     1     -10.940  13.905  66.844  1.00  0.00    -0.293 NA 
HETATM    9  C   UNL     1     -11.051  13.702  68.144  1.00  0.00    -0.256 A  
HETATM   10  O   UNL     1     -10.906  14.832  68.913  1.00  0.00    -0.237 OA 
HETATM   11  C   UNL     1     -10.468  17.176  68.235  1.00  0.00    -0.373 A  
HETATM   12  C   UNL     1     -10.685  15.826  67.996  1.00  0.00    -0.296 A  
ENDROOT
BRANCH   9  13
HETATM   13  C   UNL     1     -11.285  12.435  68.829  1.00  0.00    -0.318 A  
HETATM   14  C   UNL     1     -10.675  11.276  68.319  1.00  0.00    -0.231 A  
HETATM   15  C   UNL     1     -10.843  10.045  68.950  1.00  0.00    -0.220 A  
HETATM   16 CL   UNL     1     -10.074   8.647  68.306  1.00  0.00    -0.211 Cl 
HETATM   17  C   UNL     1     -11.621   9.942  70.097  1.00  0.00    -0.281 A  
HETATM   18  C   UNL     1     -12.237  11.084  70.605  1.00  0.00    -0.385 A  
HETATM   19 CL   UNL     1     -13.199  10.965  72.026  1.00  0.00    -0.563 Cl 
HETATM   20  C   UNL     1     -12.076  12.325  69.981  1.00  0.00    -0.346 A  
ENDBRANCH   9  13
TORSDOF 1
ENDMDL
MODEL       39
REMARK 921   NORMALIZED FREE ENERGY PREDICTED BY IDOCK:   -6.13 KCAL/MOL
REMARK 922        TOTAL FREE ENERGY PREDICTED BY IDOCK:   -6.68 KCAL/MOL
REMARK 923 INTER-LIGAND FREE ENERGY PREDICTED BY IDOCK:   -6.49 KCAL/MOL
REMARK 924 INTRA-LIGAND FREE ENERGY PREDICTED BY IDOCK:   -0.18 KCAL/MOL
REMARK 927      BINDING AFFINITY PREDICTED BY RF-SCORE:    0.00 PKD
ROOT
HETATM    1  O   UNL     1     -11.475   7.146  72.795  1.00  0.00    -0.266 OA 
HETATM    2  C   UNL     1     -12.049   8.330  72.496  1.00  0.00    -0.337 C  
HETATM    3  C   UNL     1     -11.359   9.091  71.425  1.00  0.00    -0.394 A  
HETATM    4  O   UNL     1     -13.065   8.732  73.035  1.00  0.00    -0.292 OA 
HETATM    5  C   UNL     1      -9.962   9.021  71.269  1.00  0.00    -0.381 A  
HETATM    6  C   UNL     1      -9.313   9.749  70.262  1.00  0.00    -0.236 A  
HETATM    7  C   UNL     1     -10.089  10.565  69.432  1.00  0.00    -0.209 A  
HETATM    8  N   UNL     1      -9.724  11.377  68.396  1.00  0.00    -0.198 NA 
HETATM    9  C   UNL     1     -10.864  11.907  67.990  1.00  0.00    -0.216 A  
HETATM   10  O   UNL     1     -11.969  11.497  68.697  1.00  0.00    -0.424 OA 
HETATM   11  C   UNL     1     -12.148   9.921  70.602  1.00  0.00    -0.343 A  
HETATM   12  C   UNL     1     -11.460  10.630  69.628  1.00  0.00    -0.291 A  
ENDROOT
BRANCH   9  13
HETATM   13  C   UNL     1     -11.066  12.843  66.888  1.00  0.00    -0.312 A  
HETATM   14  C   UNL     1     -10.704  14.187  67.077  1.00  0.00    -0.285 A  
HETATM   15  C   UNL     1     -10.850  15.116  66.049  1.00  0.00    -0.335 A  
HETATM   16 CL   UNL     1     -10.388  16.753  66.308  1.00  0.00    -0.321 Cl 
HETATM   17  C   UNL     1     -11.361  14.728  64.816  1.00  0.00    -0.399 A  
HETATM   18  C   UNL     1     -11.731  13.398  64.623  1.00  0.00    -0.372 A  
HETATM   19 CL   UNL     1     -12.361  12.909  63.098  1.00  0.00    -0.441 Cl 
HETATM   20  C   UNL     1     -11.589  12.457  65.647  1.00  0.00    -0.441 A  
ENDBRANCH   9  13
TORSDOF 1
ENDMDL
MODEL       40
REMARK 921   NORMALIZED FREE ENERGY PREDICTED BY IDOCK:   -6.12 KCAL/MOL
REMARK 922        TOTAL FREE ENERGY PREDICTED BY IDOCK:   -6.67 KCAL/MOL
REMARK 923 INTER-LIGAND FREE ENERGY PREDICTED BY IDOCK:   -6.49 KCAL/MOL
REMARK 924 INTRA-LIGAND FREE ENERGY PREDICTED BY IDOCK:   -0.19 KCAL/MOL
REMARK 927      BINDING AFFINITY PREDICTED BY RF-SCORE:    0.00 PKD
ROOT
HETATM    1  O   UNL     1     -11.680  16.001  64.318  1.00  0.00    -0.434 OA 
HETATM    2  C   UNL     1     -11.956  14.681  64.283  1.00  0.00    -0.386 C  
HETATM    3  C   UNL     1     -11.280  13.887  65.339  1.00  0.00    -0.306 A  
HETATM    4  O   UNL     1     -12.719  14.181  63.476  1.00  0.00    -0.794 OA 
HETATM    5  C   UNL     1     -10.001  14.242  65.807  1.00  0.00    -0.346 A  
HETATM    6  C   UNL     1      -9.360  13.484  66.797  1.00  0.00    -0.262 A  
HETATM    7  C   UNL     1     -10.016  12.351  67.290  1.00  0.00    -0.206 A  
HETATM    8  N   UNL     1      -9.628  11.442  68.232  1.00  0.00    -0.186 NA 
HETATM    9  C   UNL     1     -10.634  10.588  68.284  1.00  0.00    -0.206 A  
HETATM   10  O   UNL     1     -11.672  10.874  67.430  1.00  0.00    -0.510 OA 
HETATM   11  C   UNL     1     -11.943  12.740  65.820  1.00  0.00    -0.502 A  
HETATM   12  C   UNL     1     -11.265  12.015  66.790  1.00  0.00    -0.322 A  
ENDROOT
BRANCH   9  13
HETATM   13  C   UNL     1     -10.761   9.416  69.145  1.00  0.00    -0.216 A  
HETATM   14  C   UNL     1     -10.475   8.152  68.601  1.00  0.00    -0.195 A  
HETATM   15  C   UNL     1     -10.553   7.003  69.385  1.00  0.00    -0.230 A  
HETATM   16 CL   UNL     1     -10.187   5.472  68.692  1.00  0.00    -0.249 Cl 
HETATM   17  C   UNL     1     -10.920   7.088  70.723  1.00  0.00    -0.285 A  
HETATM   18  C   UNL     1     -11.214   8.336  71.269  1.00  0.00    -0.259 A  
HETATM   19 CL   UNL     1     -11.665   8.450  72.925  1.00  0.00    -0.250 Cl 
HETATM   20  C   UNL     1     -11.138   9.496  70.492  1.00  0.00    -0.342 A  
ENDBRANCH   9  13
TORSDOF 1
ENDMDL
MODEL       41
REMARK 921   NORMALIZED FREE ENERGY PREDICTED BY IDOCK:   -6.12 KCAL/MOL
REMARK 922        TOTAL FREE ENERGY PREDICTED BY IDOCK:   -6.67 KCAL/MOL
REMARK 923 INTER-LIGAND FREE ENERGY PREDICTED BY IDOCK:   -6.49 KCAL/MOL
REMARK 924 INTRA-LIGAND FREE ENERGY PREDICTED BY IDOCK:   -0.18 KCAL/MOL
REMARK 927      BINDING AFFINITY PREDICTED BY RF-SCORE:    0.00 PKD
ROOT
HETATM    1  O   UNL     1     -11.325  16.701  63.834  1.00  0.00    -1.104 OA 
HETATM    2  C   UNL     1     -10.806  16.402  65.042  1.00  0.00    -0.273 C  
HETATM    3  C   UNL     1     -11.116  15.032  65.519  1.00  0.00    -0.358 A  
HETATM    4  O   UNL     1     -10.115  17.177  65.680  1.00  0.00    -0.561 OA 
HETATM    5  C   UNL     1     -12.337  14.410  65.197  1.00  0.00    -0.383 A  
HETATM    6  C   UNL     1     -12.632  13.119  65.657  1.00  0.00    -0.414 A  
HETATM    7  C   UNL     1     -11.688  12.475  66.466  1.00  0.00    -0.391 A  
HETATM    8  N   UNL     1     -11.718  11.242  67.052  1.00  0.00    -0.457 NA 
HETATM    9  C   UNL     1     -10.571  11.170  67.702  1.00  0.00    -0.211 A  
HETATM   10  O   UNL     1      -9.777  12.286  67.585  1.00  0.00    -0.186 OA 
HETATM   11  C   UNL     1     -10.166  14.397  66.345  1.00  0.00    -0.294 A  
HETATM   12  C   UNL     1     -10.507  13.125  66.786  1.00  0.00    -0.261 A  
ENDROOT
BRANCH   9  13
HETATM   13  C   UNL     1     -10.066  10.052  68.493  1.00  0.00    -0.187 A  
HETATM   14  C   UNL     1     -10.378  10.007  69.863  1.00  0.00    -0.315 A  
HETATM   15  C   UNL     1      -9.946   8.948  70.658  1.00  0.00    -0.216 A  
HETATM   16 CL   UNL     1     -10.354   8.917  72.329  1.00  0.00    -0.322 Cl 
HETATM   17  C   UNL     1      -9.193   7.917  70.110  1.00  0.00    -0.153 A  
HETATM   18  C   UNL     1      -8.871   7.958  68.755  1.00  0.00    -0.138 A  
HETATM   19 CL   UNL     1      -7.942   6.683  68.067  1.00  0.00    -0.109 Cl 
HETATM   20  C   UNL     1      -9.300   9.015  67.946  1.00  0.00    -0.155 A  
ENDBRANCH   9  13
TORSDOF 1
ENDMDL
MODEL       42
REMARK 921   NORMALIZED FREE ENERGY PREDICTED BY IDOCK:   -6.12 KCAL/MOL
REMARK 922        TOTAL FREE ENERGY PREDICTED BY IDOCK:   -6.67 KCAL/MOL
REMARK 923 INTER-LIGAND FREE ENERGY PREDICTED BY IDOCK:   -6.45 KCAL/MOL
REMARK 924 INTRA-LIGAND FREE ENERGY PREDICTED BY IDOCK:   -0.22 KCAL/MOL
REMARK 927      BINDING AFFINITY PREDICTED BY RF-SCORE:    0.00 PKD
ROOT
HETATM    1  O   UNL     1     -11.147   3.946  72.902  1.00  0.00    -0.096 OA 
HETATM    2  C   UNL     1     -10.917   5.187  73.380  1.00  0.00    -0.320 C  
HETATM    3  C   UNL     1     -10.976   6.257  72.354  1.00  0.00    -0.291 A  
HETATM    4  O   UNL     1     -10.708   5.419  74.557  1.00  0.00    -0.293 OA 
HETATM    5  C   UNL     1     -10.568   6.016  71.028  1.00  0.00    -0.305 A  
HETATM    6  C   UNL     1     -10.615   7.032  70.064  1.00  0.00    -0.251 A  
HETATM    7  C   UNL     1     -11.057   8.300  70.461  1.00  0.00    -0.249 A  
HETATM    8  N   UNL     1     -11.192   9.454  69.745  1.00  0.00    -0.170 NA 
HETATM    9  C   UNL     1     -11.638  10.328  70.630  1.00  0.00    -0.347 A  
HETATM   10  O   UNL     1     -11.807   9.822  71.897  1.00  0.00    -0.342 OA 
HETATM   11  C   UNL     1     -11.410   7.534  72.766  1.00  0.00    -0.388 A  
HETATM   12  C   UNL     1     -11.429   8.510  71.779  1.00  0.00    -0.310 A  
ENDROOT
BRANCH   9  13
HETATM   13  C   UNL     1     -11.977  11.729  70.403  1.00  0.00    -0.422 A  
HETATM   14  C   UNL     1     -12.699  12.412  71.397  1.00  0.00    -0.346 A  
HETATM   15  C   UNL     1     -13.025  13.758  71.243  1.00  0.00    -0.334 A  
HETATM   16 CL   UNL     1     -13.901  14.568  72.483  1.00  0.00    -0.559 Cl 
HETATM   17  C   UNL     1     -12.644  14.449  70.100  1.00  0.00    -0.340 A  
HETATM   18  C   UNL     1     -11.935  13.777  69.106  1.00  0.00    -0.361 A  
HETATM   19 CL   UNL     1     -11.457  14.627  67.688  1.00  0.00    -0.347 Cl 
HETATM   20  C   UNL     1     -11.602  12.427  69.248  1.00  0.00    -0.379 A  
ENDBRANCH   9  13
TORSDOF 1
ENDMDL
MODEL       43
REMARK 921   NORMALIZED FREE ENERGY PREDICTED BY IDOCK:   -6.11 KCAL/MOL
REMARK 922        TOTAL FREE ENERGY PREDICTED BY IDOCK:   -6.66 KCAL/MOL
REMARK 923 INTER-LIGAND FREE ENERGY PREDICTED BY IDOCK:   -6.46 KCAL/MOL
REMARK 924 INTRA-LIGAND FREE ENERGY PREDICTED BY IDOCK:   -0.20 KCAL/MOL
REMARK 927      BINDING AFFINITY PREDICTED BY RF-SCORE:    0.00 PKD
ROOT
HETATM    1  O   UNL     1      -9.708  19.002  65.748  1.00  0.00    -0.428 OA 
HETATM    2  C   UNL     1     -10.399  18.490  66.787  1.00  0.00    -0.401 C  
HETATM    3  C   UNL     1     -10.530  17.012  66.765  1.00  0.00    -0.257 A  
HETATM    4  O   UNL     1     -10.853  19.175  67.686  1.00  0.00    -0.448 OA 
HETATM    5  C   UNL     1     -10.625  16.310  65.549  1.00  0.00    -0.369 A  
HETATM    6  C   UNL     1     -10.760  14.914  65.532  1.00  0.00    -0.369 A  
HETATM    7  C   UNL     1     -10.820  14.241  66.758  1.00  0.00    -0.298 A  
HETATM    8  N   UNL     1     -10.956  12.911  67.032  1.00  0.00    -0.257 NA 
HETATM    9  C   UNL     1     -10.962  12.857  68.352  1.00  0.00    -0.258 A  
HETATM   10  O   UNL     1     -10.838  14.075  68.974  1.00  0.00    -0.251 OA 
HETATM   11  C   UNL     1     -10.604  16.345  68.004  1.00  0.00    -0.314 A  
HETATM   12  C   UNL     1     -10.748  14.966  67.937  1.00  0.00    -0.265 A  
ENDROOT
BRANCH   9  13
HETATM   13  C   UNL     1     -11.064  11.667  69.191  1.00  0.00    -0.302 A  
HETATM   14  C   UNL     1     -12.082  11.616  70.159  1.00  0.00    -0.414 A  
HETATM   15  C   UNL     1     -12.242  10.494  70.968  1.00  0.00    -0.400 A  
HETATM   16 CL   UNL     1     -13.505  10.459  72.136  1.00  0.00    -0.425 Cl 
HETATM   17  C   UNL     1     -11.392   9.402  70.834  1.00  0.00    -0.386 A  
HETATM   18  C   UNL     1     -10.375   9.447  69.883  1.00  0.00    -0.227 A  
HETATM   19 CL   UNL     1      -9.320   8.099  69.709  1.00  0.00    -0.159 Cl 
HETATM   20  C   UNL     1     -10.204  10.568  69.065  1.00  0.00    -0.233 A  
ENDBRANCH   9  13
TORSDOF 1
ENDMDL
MODEL       44
REMARK 921   NORMALIZED FREE ENERGY PREDICTED BY IDOCK:   -6.10 KCAL/MOL
REMARK 922        TOTAL FREE ENERGY PREDICTED BY IDOCK:   -6.65 KCAL/MOL
REMARK 923 INTER-LIGAND FREE ENERGY PREDICTED BY IDOCK:   -6.45 KCAL/MOL
REMARK 924 INTRA-LIGAND FREE ENERGY PREDICTED BY IDOCK:   -0.20 KCAL/MOL
REMARK 927      BINDING AFFINITY PREDICTED BY RF-SCORE:    0.00 PKD
ROOT
HETATM    1  O   UNL     1     -12.284  11.496  68.491  1.00  0.00    -0.524 OA 
HETATM    2  C   UNL     1     -11.861  12.292  67.487  1.00  0.00    -0.261 C  
HETATM    3  C   UNL     1     -11.414  13.639  67.921  1.00  0.00    -0.348 A  
HETATM    4  O   UNL     1     -11.819  11.931  66.324  1.00  0.00    -0.546 OA 
HETATM    5  C   UNL     1     -12.018  14.287  69.015  1.00  0.00    -0.360 A  
HETATM    6  C   UNL     1     -11.600  15.563  69.416  1.00  0.00    -0.366 A  
HETATM    7  C   UNL     1     -10.582  16.186  68.684  1.00  0.00    -0.283 A  
HETATM    8  N   UNL     1      -9.998  17.409  68.844  1.00  0.00    -0.316 NA 
HETATM    9  C   UNL     1      -9.112  17.469  67.866  1.00  0.00    -0.261 A  
HETATM   10  O   UNL     1      -9.071  16.355  67.062  1.00  0.00    -0.204 OA 
HETATM   11  C   UNL     1     -10.398  14.263  67.169  1.00  0.00    -0.262 A  
HETATM   12  C   UNL     1     -10.026  15.530  67.597  1.00  0.00    -0.233 A  
ENDROOT
BRANCH   9  13
HETATM   13  C   UNL     1      -8.184  18.557  67.573  1.00  0.00    -0.262 A  
HETATM   14  C   UNL     1      -7.464  19.127  68.636  1.00  0.00    -0.370 A  
HETATM   15  C   UNL     1      -6.545  20.149  68.408  1.00  0.00    -0.302 A  
HETATM   16 CL   UNL     1      -5.671  20.818  69.731  1.00  0.00    -0.392 Cl 
HETATM   17  C   UNL     1      -6.328  20.627  67.122  1.00  0.00    -0.308 A  
HETATM   18  C   UNL     1      -7.045  20.074  66.063  1.00  0.00    -0.283 A  
HETATM   19 CL   UNL     1      -6.779  20.658  64.466  1.00  0.00    -0.264 Cl 
HETATM   20  C   UNL     1      -7.969  19.047  66.278  1.00  0.00    -0.302 A  
ENDBRANCH   9  13
TORSDOF 1
ENDMDL
MODEL       45
REMARK 921   NORMALIZED FREE ENERGY PREDICTED BY IDOCK:   -6.08 KCAL/MOL
REMARK 922        TOTAL FREE ENERGY PREDICTED BY IDOCK:   -6.63 KCAL/MOL
REMARK 923 INTER-LIGAND FREE ENERGY PREDICTED BY IDOCK:   -6.43 KCAL/MOL
REMARK 924 INTRA-LIGAND FREE ENERGY PREDICTED BY IDOCK:   -0.20 KCAL/MOL
REMARK 927      BINDING AFFINITY PREDICTED BY RF-SCORE:    0.00 PKD
ROOT
HETATM    1  O   UNL     1     -10.627  18.124  65.349  1.00  0.00    -0.636 OA 
HETATM    2  C   UNL     1     -10.945  16.866  64.978  1.00  0.00    -0.046 C  
HETATM    3  C   UNL     1     -10.382  15.809  65.854  1.00  0.00    -0.372 A  
HETATM    4  O   UNL     1     -11.660  16.614  64.024  1.00  0.00    -1.197 OA 
HETATM    5  C   UNL     1      -9.131  15.975  66.479  1.00  0.00    -0.319 A  
HETATM    6  C   UNL     1      -8.597  14.970  67.297  1.00  0.00    -0.226 A  
HETATM    7  C   UNL     1      -9.329  13.788  67.457  1.00  0.00    -0.222 A  
HETATM    8  N   UNL     1      -9.048  12.662  68.175  1.00  0.00    -0.202 NA 
HETATM    9  C   UNL     1     -10.084  11.874  67.951  1.00  0.00    -0.192 A  
HETATM   10  O   UNL     1     -11.041  12.410  67.124  1.00  0.00    -0.253 OA 
HETATM   11  C   UNL     1     -11.120  14.617  65.997  1.00  0.00    -0.332 A  
HETATM   12  C   UNL     1     -10.546  13.647  66.807  1.00  0.00    -0.273 A  
ENDROOT
BRANCH   9  13
HETATM   13  C   UNL     1     -10.319  10.539  68.492  1.00  0.00    -0.199 A  
HETATM   14  C   UNL     1     -10.299   9.446  67.610  1.00  0.00    -0.303 A  
HETATM   15  C   UNL     1     -10.489   8.147  68.078  1.00  0.00    -0.183 A  
HETATM   16 CL   UNL     1     -10.449   6.830  66.972  1.00  0.00    -0.339 Cl 
HETATM   17  C   UNL     1     -10.706   7.911  69.430  1.00  0.00    -0.174 A  
HETATM   18  C   UNL     1     -10.736   8.990  70.311  1.00  0.00    -0.230 A  
HETATM   19 CL   UNL     1     -11.001   8.705  71.987  1.00  0.00    -0.410 Cl 
HETATM   20  C   UNL     1     -10.546  10.297  69.854  1.00  0.00    -0.324 A  
ENDBRANCH   9  13
TORSDOF 1
ENDMDL
MODEL       46
REMARK 921   NORMALIZED FREE ENERGY PREDICTED BY IDOCK:   -6.06 KCAL/MOL
REMARK 922        TOTAL FREE ENERGY PREDICTED BY IDOCK:   -6.60 KCAL/MOL
REMARK 923 INTER-LIGAND FREE ENERGY PREDICTED BY IDOCK:   -6.40 KCAL/MOL
REMARK 924 INTRA-LIGAND FREE ENERGY PREDICTED BY IDOCK:   -0.20 KCAL/MOL
REMARK 927      BINDING AFFINITY PREDICTED BY RF-SCORE:    0.00 PKD
ROOT
HETATM    1  O   UNL     1     -10.721   5.840  72.579  1.00  0.00    -0.212 OA 
HETATM    2  C   UNL     1     -10.887   6.228  71.297  1.00  0.00    -0.265 C  
HETATM    3  C   UNL     1     -11.314   7.641  71.137  1.00  0.00    -0.286 A  
HETATM    4  O   UNL     1     -10.677   5.496  70.347  1.00  0.00    -0.285 OA 
HETATM    5  C   UNL     1     -12.149   8.259  72.087  1.00  0.00    -0.425 A  
HETATM    6  C   UNL     1     -12.559   9.590  71.927  1.00  0.00    -0.479 A  
HETATM    7  C   UNL     1     -12.135  10.280  70.785  1.00  0.00    -0.353 A  
HETATM    8  N   UNL     1     -12.387  11.558  70.377  1.00  0.00    -0.322 NA 
HETATM    9  C   UNL     1     -11.742  11.659  69.229  1.00  0.00    -0.331 A  
HETATM   10  O   UNL     1     -11.074  10.521  68.846  1.00  0.00    -0.230 OA 
HETATM   11  C   UNL     1     -10.893   8.322  69.977  1.00  0.00    -0.232 A  
HETATM   12  C   UNL     1     -11.334   9.633  69.857  1.00  0.00    -0.159 A  
ENDROOT
BRANCH   9  13
HETATM   13  C   UNL     1     -11.654  12.829  68.360  1.00  0.00    -0.365 A  
HETATM   14  C   UNL     1     -11.301  14.063  68.933  1.00  0.00    -0.314 A  
HETATM   15  C   UNL     1     -11.175  15.205  68.145  1.00  0.00    -0.320 A  
HETATM   16 CL   UNL     1     -10.731  16.698  68.876  1.00  0.00    -0.323 Cl 
HETATM   17  C   UNL     1     -11.400  15.144  66.775  1.00  0.00    -0.248 A  
HETATM   18  C   UNL     1     -11.759  13.927  66.200  1.00  0.00    -0.376 A  
HETATM   19 CL   UNL     1     -12.036  13.842  64.504  1.00  0.00    -0.452 Cl 
HETATM   20  C   UNL     1     -11.888  12.773  66.980  1.00  0.00    -0.428 A  
ENDBRANCH   9  13
TORSDOF 1
ENDMDL
MODEL       47
REMARK 921   NORMALIZED FREE ENERGY PREDICTED BY IDOCK:   -6.01 KCAL/MOL
REMARK 922        TOTAL FREE ENERGY PREDICTED BY IDOCK:   -6.55 KCAL/MOL
REMARK 923 INTER-LIGAND FREE ENERGY PREDICTED BY IDOCK:   -6.34 KCAL/MOL
REMARK 924 INTRA-LIGAND FREE ENERGY PREDICTED BY IDOCK:   -0.21 KCAL/MOL
REMARK 927      BINDING AFFINITY PREDICTED BY RF-SCORE:    0.00 PKD
ROOT
HETATM    1  O   UNL     1      -9.752   4.367  72.122  1.00  0.00    -0.147 OA 
HETATM    2  C   UNL     1     -10.174   4.968  70.990  1.00  0.00    -0.213 C  
HETATM    3  C   UNL     1     -10.698   6.343  71.187  1.00  0.00    -0.293 A  
HETATM    4  O   UNL     1     -10.106   4.444  69.892  1.00  0.00    -0.222 OA 
HETATM    5  C   UNL     1     -11.372   6.700  72.369  1.00  0.00    -0.309 A  
HETATM    6  C   UNL     1     -11.875   7.997  72.548  1.00  0.00    -0.419 A  
HETATM    7  C   UNL     1     -11.708   8.919  71.508  1.00  0.00    -0.324 A  
HETATM    8  N   UNL     1     -12.099  10.223  71.411  1.00  0.00    -0.377 NA 
HETATM    9  C   UNL     1     -11.686  10.591  70.211  1.00  0.00    -0.332 A  
HETATM   10  O   UNL     1     -11.041   9.606  69.502  1.00  0.00    -0.229 OA 
HETATM   11  C   UNL     1     -10.537   7.261  70.129  1.00  0.00    -0.245 A  
HETATM   12  C   UNL     1     -11.060   8.527  70.347  1.00  0.00    -0.231 A  
ENDROOT
BRANCH   9  13
HETATM   13  C   UNL     1     -11.822  11.903  69.587  1.00  0.00    -0.406 A  
HETATM   14  C   UNL     1     -12.100  13.009  70.409  1.00  0.00    -0.391 A  
HETATM   15  C   UNL     1     -12.213  14.288  69.870  1.00  0.00    -0.352 A  
HETATM   16 CL   UNL     1     -12.543  15.622  70.905  1.00  0.00    -0.497 Cl 
HETATM   17  C   UNL     1     -12.056  14.493  68.505  1.00  0.00    -0.257 A  
HETATM   18  C   UNL     1     -11.789  13.402  67.681  1.00  0.00    -0.354 A  
HETATM   19 CL   UNL     1     -11.590  13.648  65.989  1.00  0.00    -0.339 Cl 
HETATM   20  C   UNL     1     -11.673  12.113  68.210  1.00  0.00    -0.401 A  
ENDBRANCH   9  13
TORSDOF 1
ENDMDL
MODEL       48
REMARK 921   NORMALIZED FREE ENERGY PREDICTED BY IDOCK:   -6.00 KCAL/MOL
REMARK 922        TOTAL FREE ENERGY PREDICTED BY IDOCK:   -6.55 KCAL/MOL
REMARK 923 INTER-LIGAND FREE ENERGY PREDICTED BY IDOCK:   -6.35 KCAL/MOL
REMARK 924 INTRA-LIGAND FREE ENERGY PREDICTED BY IDOCK:   -0.20 KCAL/MOL
REMARK 927      BINDING AFFINITY PREDICTED BY RF-SCORE:    0.00 PKD
ROOT
HETATM    1  O   UNL     1      -7.044  21.367  67.206  1.00  0.00    -0.565 OA 
HETATM    2  C   UNL     1      -6.805  20.179  67.800  1.00  0.00    -0.274 C  
HETATM    3  C   UNL     1      -7.992  19.293  67.892  1.00  0.00    -0.327 A  
HETATM    4  O   UNL     1      -5.705  19.844  68.201  1.00  0.00    -0.208 OA 
HETATM    5  C   UNL     1      -9.284  19.825  68.064  1.00  0.00    -0.425 A  
HETATM    6  C   UNL     1     -10.402  18.985  68.161  1.00  0.00    -0.446 A  
HETATM    7  C   UNL     1     -10.196  17.602  68.107  1.00  0.00    -0.371 A  
HETATM    8  N   UNL     1     -11.086  16.570  68.186  1.00  0.00    -0.340 NA 
HETATM    9  C   UNL     1     -10.332  15.490  68.087  1.00  0.00    -0.237 A  
HETATM   10  O   UNL     1      -8.988  15.742  67.947  1.00  0.00    -0.179 OA 
HETATM   11  C   UNL     1      -7.773  17.901  67.851  1.00  0.00    -0.224 A  
HETATM   12  C   UNL     1      -8.908  17.110  67.962  1.00  0.00    -0.229 A  
ENDROOT
BRANCH   9  13
HETATM   13  C   UNL     1     -10.769  14.098  68.090  1.00  0.00    -0.251 A  
HETATM   14  C   UNL     1     -10.638  13.352  66.907  1.00  0.00    -0.273 A  
HETATM   15  C   UNL     1     -11.014  12.011  66.863  1.00  0.00    -0.281 A  
HETATM   16 CL   UNL     1     -10.830  11.123  65.401  1.00  0.00    -0.260 Cl 
HETATM   17  C   UNL     1     -11.530  11.387  67.992  1.00  0.00    -0.377 A  
HETATM   18  C   UNL     1     -11.672  12.122  69.168  1.00  0.00    -0.328 A  
HETATM   19 CL   UNL     1     -12.308  11.355  70.571  1.00  0.00    -0.440 Cl 
HETATM   20  C   UNL     1     -11.298  13.468  69.225  1.00  0.00    -0.317 A  
ENDBRANCH   9  13
TORSDOF 1
ENDMDL
MODEL       49
REMARK 921   NORMALIZED FREE ENERGY PREDICTED BY IDOCK:   -6.00 KCAL/MOL
REMARK 922        TOTAL FREE ENERGY PREDICTED BY IDOCK:   -6.54 KCAL/MOL
REMARK 923 INTER-LIGAND FREE ENERGY PREDICTED BY IDOCK:   -6.34 KCAL/MOL
REMARK 924 INTRA-LIGAND FREE ENERGY PREDICTED BY IDOCK:   -0.20 KCAL/MOL
REMARK 927      BINDING AFFINITY PREDICTED BY RF-SCORE:    0.00 PKD
ROOT
HETATM    1  O   UNL     1     -12.240  11.417  68.503  1.00  0.00    -0.557 OA 
HETATM    2  C   UNL     1     -11.784  12.225  67.524  1.00  0.00    -0.332 C  
HETATM    3  C   UNL     1     -11.338  13.561  67.992  1.00  0.00    -0.318 A  
HETATM    4  O   UNL     1     -11.714  11.883  66.357  1.00  0.00    -0.522 OA 
HETATM    5  C   UNL     1     -11.965  14.196  69.081  1.00  0.00    -0.388 A  
HETATM    6  C   UNL     1     -11.548  15.462  69.514  1.00  0.00    -0.346 A  
HETATM    7  C   UNL     1     -10.506  16.087  68.820  1.00  0.00    -0.248 A  
HETATM    8  N   UNL     1      -9.916  17.303  69.015  1.00  0.00    -0.294 NA 
HETATM    9  C   UNL     1      -9.003  17.371  68.063  1.00  0.00    -0.255 A  
HETATM   10  O   UNL     1      -8.951  16.270  67.242  1.00  0.00    -0.191 OA 
HETATM   11  C   UNL     1     -10.297  14.189  67.278  1.00  0.00    -0.267 A  
HETATM   12  C   UNL     1      -9.926  15.445  67.737  1.00  0.00    -0.225 A  
ENDROOT
BRANCH   9  13
HETATM   13  C   UNL     1      -8.059  18.456  67.812  1.00  0.00    -0.264 A  
HETATM   14  C   UNL     1      -7.915  18.926  66.496  1.00  0.00    -0.289 A  
HETATM   15  C   UNL     1      -7.048  19.978  66.206  1.00  0.00    -0.259 A  
HETATM   16 CL   UNL     1      -6.902  20.538  64.586  1.00  0.00    -0.225 Cl 
HETATM   17  C   UNL     1      -6.308  20.580  67.216  1.00  0.00    -0.281 A  
HETATM   18  C   UNL     1      -6.438  20.114  68.523  1.00  0.00    -0.307 A  
HETATM   19 CL   UNL     1      -5.527  20.855  69.780  1.00  0.00    -0.408 Cl 
HETATM   20  C   UNL     1      -7.305  19.059  68.827  1.00  0.00    -0.366 A  
ENDBRANCH   9  13
TORSDOF 1
ENDMDL
MODEL       50
REMARK 921   NORMALIZED FREE ENERGY PREDICTED BY IDOCK:   -6.00 KCAL/MOL
REMARK 922        TOTAL FREE ENERGY PREDICTED BY IDOCK:   -6.54 KCAL/MOL
REMARK 923 INTER-LIGAND FREE ENERGY PREDICTED BY IDOCK:   -6.33 KCAL/MOL
REMARK 924 INTRA-LIGAND FREE ENERGY PREDICTED BY IDOCK:   -0.21 KCAL/MOL
REMARK 927      BINDING AFFINITY PREDICTED BY RF-SCORE:    0.00 PKD
ROOT
HETATM    1  O   UNL     1     -11.073   4.667  73.169  1.00  0.00    -0.260 OA 
HETATM    2  C   UNL     1     -10.761   5.952  73.433  1.00  0.00    -0.267 C  
HETATM    3  C   UNL     1     -10.823   6.851  72.254  1.00  0.00    -0.262 A  
HETATM    4  O   UNL     1     -10.481   6.354  74.548  1.00  0.00    -0.274 OA 
HETATM    5  C   UNL     1     -10.495   6.384  70.967  1.00  0.00    -0.268 A  
HETATM    6  C   UNL     1     -10.544   7.238  69.856  1.00  0.00    -0.244 A  
HETATM    7  C   UNL     1     -10.906   8.574  70.066  1.00  0.00    -0.223 A  
HETATM    8  N   UNL     1     -11.023   9.608  69.183  1.00  0.00    -0.192 NA 
HETATM    9  C   UNL     1     -11.381  10.632  69.937  1.00  0.00    -0.313 A  
HETATM   10  O   UNL     1     -11.508  10.340  71.274  1.00  0.00    -0.318 OA 
HETATM   11  C   UNL     1     -11.174   8.198  72.477  1.00  0.00    -0.459 A  
HETATM   12  C   UNL     1     -11.198   9.008  71.349  1.00  0.00    -0.324 A  
ENDROOT
BRANCH   9  13
HETATM   13  C   UNL     1     -11.665  11.997  69.506  1.00  0.00    -0.408 A  
HETATM   14  C   UNL     1     -11.567  12.300  68.137  1.00  0.00    -0.396 A  
HETATM   15  C   UNL     1     -11.854  13.580  67.668  1.00  0.00    -0.363 A  
HETATM   16 CL   UNL     1     -11.734  13.916  65.985  1.00  0.00    -0.358 Cl 
HETATM   17  C   UNL     1     -12.242  14.583  68.549  1.00  0.00    -0.164 A  
HETATM   18  C   UNL     1     -12.333  14.293  69.908  1.00  0.00    -0.324 A  
HETATM   19 CL   UNL     1     -12.815  15.529  71.005  1.00  0.00    -0.517 Cl 
HETATM   20  C   UNL     1     -12.048  13.013  70.392  1.00  0.00    -0.391 A  
ENDBRANCH   9  13
TORSDOF 1
ENDMDL
MODEL       51
REMARK 921   NORMALIZED FREE ENERGY PREDICTED BY IDOCK:   -5.99 KCAL/MOL
REMARK 922        TOTAL FREE ENERGY PREDICTED BY IDOCK:   -6.53 KCAL/MOL
REMARK 923 INTER-LIGAND FREE ENERGY PREDICTED BY IDOCK:   -6.35 KCAL/MOL
REMARK 924 INTRA-LIGAND FREE ENERGY PREDICTED BY IDOCK:   -0.18 KCAL/MOL
REMARK 927      BINDING AFFINITY PREDICTED BY RF-SCORE:    0.00 PKD
ROOT
HETATM    1  O   UNL     1     -13.314  10.273  70.683  1.00  0.00    -0.311 OA 
HETATM    2  C   UNL     1     -12.891  11.449  71.193  1.00  0.00    -0.341 C  
HETATM    3  C   UNL     1     -12.040  12.243  70.272  1.00  0.00    -0.376 A  
HETATM    4  O   UNL     1     -13.202  11.845  72.302  1.00  0.00    -0.451 OA 
HETATM    5  C   UNL     1     -11.172  11.612  69.360  1.00  0.00    -0.311 A  
HETATM    6  C   UNL     1     -10.361  12.365  68.499  1.00  0.00    -0.232 A  
HETATM    7  C   UNL     1     -10.421  13.761  68.588  1.00  0.00    -0.239 A  
HETATM    8  N   UNL     1      -9.747  14.722  67.891  1.00  0.00    -0.209 NA 
HETATM    9  C   UNL     1     -10.193  15.857  68.400  1.00  0.00    -0.226 A  
HETATM   10  O   UNL     1     -11.127  15.707  69.397  1.00  0.00    -0.260 OA 
HETATM   11  C   UNL     1     -12.096  13.647  70.378  1.00  0.00    -0.421 A  
HETATM   12  C   UNL     1     -11.268  14.350  69.514  1.00  0.00    -0.254 A  
ENDROOT
BRANCH   9  13
HETATM   13  C   UNL     1      -9.822  17.213  68.009  1.00  0.00    -0.283 A  
HETATM   14  C   UNL     1      -8.740  17.825  68.663  1.00  0.00    -0.260 A  
HETATM   15  C   UNL     1      -8.325  19.107  68.310  1.00  0.00    -0.335 A  
HETATM   16 CL   UNL     1      -6.990  19.825  69.124  1.00  0.00    -0.380 Cl 
HETATM   17  C   UNL     1      -8.980  19.806  67.303  1.00  0.00    -0.403 A  
HETATM   18  C   UNL     1     -10.059  19.210  66.655  1.00  0.00    -0.395 A  
HETATM   19 CL   UNL     1     -10.873  20.069  65.404  1.00  0.00    -0.316 Cl 
HETATM   20  C   UNL     1     -10.484  17.924  67.000  1.00  0.00    -0.345 A  
ENDBRANCH   9  13
TORSDOF 1
ENDMDL
MODEL       52
REMARK 921   NORMALIZED FREE ENERGY PREDICTED BY IDOCK:   -5.90 KCAL/MOL
REMARK 922        TOTAL FREE ENERGY PREDICTED BY IDOCK:   -6.44 KCAL/MOL
REMARK 923 INTER-LIGAND FREE ENERGY PREDICTED BY IDOCK:   -6.24 KCAL/MOL
REMARK 924 INTRA-LIGAND FREE ENERGY PREDICTED BY IDOCK:   -0.19 KCAL/MOL
REMARK 927      BINDING AFFINITY PREDICTED BY RF-SCORE:    0.00 PKD
ROOT
HETATM    1  O   UNL     1     -13.210   7.165  72.076  1.00  0.00    -0.236 OA 
HETATM    2  C   UNL     1     -13.328   8.508  72.127  1.00  0.00    -0.351 C  
HETATM    3  C   UNL     1     -12.374   9.240  71.257  1.00  0.00    -0.403 A  
HETATM    4  O   UNL     1     -14.166   9.078  72.804  1.00  0.00    -0.572 OA 
HETATM    5  C   UNL     1     -11.081   8.739  71.016  1.00  0.00    -0.328 A  
HETATM    6  C   UNL     1     -10.178   9.438  70.203  1.00  0.00    -0.271 A  
HETATM    7  C   UNL     1     -10.590  10.659  69.656  1.00  0.00    -0.217 A  
HETATM    8  N   UNL     1      -9.924  11.538  68.851  1.00  0.00    -0.153 NA 
HETATM    9  C   UNL     1     -10.793  12.514  68.657  1.00  0.00    -0.248 A  
HETATM   10  O   UNL     1     -12.001  12.336  69.288  1.00  0.00    -0.296 OA 
HETATM   11  C   UNL     1     -12.793  10.475  70.722  1.00  0.00    -0.454 A  
HETATM   12  C   UNL     1     -11.861  11.135  69.933  1.00  0.00    -0.363 A  
ENDROOT
BRANCH   9  13
HETATM   13  C   UNL     1     -10.614  13.716  67.850  1.00  0.00    -0.255 A  
HETATM   14  C   UNL     1     -11.246  13.780  66.596  1.00  0.00    -0.327 A  
HETATM   15  C   UNL     1     -11.130  14.915  65.796  1.00  0.00    -0.342 A  
HETATM   16 CL   UNL     1     -11.925  14.966  64.271  1.00  0.00    -0.417 Cl 
HETATM   17  C   UNL     1     -10.384  16.006  66.226  1.00  0.00    -0.330 A  
HETATM   18  C   UNL     1      -9.747  15.948  67.464  1.00  0.00    -0.223 A  
HETATM   19 CL   UNL     1      -8.823  17.295  68.003  1.00  0.00    -0.232 Cl 
HETATM   20  C   UNL     1      -9.855  14.814  68.275  1.00  0.00    -0.222 A  
ENDBRANCH   9  13
TORSDOF 1
ENDMDL
MODEL       53
REMARK 921   NORMALIZED FREE ENERGY PREDICTED BY IDOCK:   -5.83 KCAL/MOL
REMARK 922        TOTAL FREE ENERGY PREDICTED BY IDOCK:   -6.36 KCAL/MOL
REMARK 923 INTER-LIGAND FREE ENERGY PREDICTED BY IDOCK:   -6.14 KCAL/MOL
REMARK 924 INTRA-LIGAND FREE ENERGY PREDICTED BY IDOCK:   -0.21 KCAL/MOL
REMARK 927      BINDING AFFINITY PREDICTED BY RF-SCORE:    0.00 PKD
ROOT
HETATM    1  O   UNL     1     -12.872  14.687  64.623  1.00  0.00    -0.559 OA 
HETATM    2  C   UNL     1     -11.971  13.685  64.676  1.00  0.00    -0.407 C  
HETATM    3  C   UNL     1     -11.833  13.057  66.013  1.00  0.00    -0.471 A  
HETATM    4  O   UNL     1     -11.342  13.304  63.705  1.00  0.00    -0.366 OA 
HETATM    5  C   UNL     1     -11.992  13.812  67.190  1.00  0.00    -0.442 A  
HETATM    6  C   UNL     1     -11.851  13.217  68.452  1.00  0.00    -0.395 A  
HETATM    7  C   UNL     1     -11.525  11.858  68.509  1.00  0.00    -0.295 A  
HETATM    8  N   UNL     1     -11.320  11.040  69.583  1.00  0.00    -0.268 NA 
HETATM    9  C   UNL     1     -11.033   9.869  69.042  1.00  0.00    -0.190 A  
HETATM   10  O   UNL     1     -11.033   9.859  67.668  1.00  0.00    -0.289 OA 
HETATM   11  C   UNL     1     -11.490  11.690  66.060  1.00  0.00    -0.195 A  
HETATM   12  C   UNL     1     -11.351  11.148  67.331  1.00  0.00    -0.255 A  
ENDROOT
BRANCH   9  13
HETATM   13  C   UNL     1     -10.743   8.618  69.735  1.00  0.00    -0.215 A  
HETATM   14  C   UNL     1     -10.836   8.592  71.137  1.00  0.00    -0.320 A  
HETATM   15  C   UNL     1     -10.597   7.417  71.847  1.00  0.00    -0.203 A  
HETATM   16 CL   UNL     1     -10.729   7.417  73.562  1.00  0.00    -0.412 Cl 
HETATM   17  C   UNL     1     -10.257   6.248  71.178  1.00  0.00    -0.238 A  
HETATM   18  C   UNL     1     -10.154   6.266  69.788  1.00  0.00    -0.176 A  
HETATM   19 CL   UNL     1      -9.737   4.821  68.952  1.00  0.00    -0.236 Cl 
HETATM   20  C   UNL     1     -10.392   7.439  69.065  1.00  0.00    -0.214 A  
ENDBRANCH   9  13
TORSDOF 1
ENDMDL
MODEL       54
REMARK 921   NORMALIZED FREE ENERGY PREDICTED BY IDOCK:   -5.81 KCAL/MOL
REMARK 922        TOTAL FREE ENERGY PREDICTED BY IDOCK:   -6.35 KCAL/MOL
REMARK 923 INTER-LIGAND FREE ENERGY PREDICTED BY IDOCK:   -6.13 KCAL/MOL
REMARK 924 INTRA-LIGAND FREE ENERGY PREDICTED BY IDOCK:   -0.22 KCAL/MOL
REMARK 927      BINDING AFFINITY PREDICTED BY RF-SCORE:    0.00 PKD
ROOT
HETATM    1  O   UNL     1     -10.901   5.405  72.473  1.00  0.00    -0.227 OA 
HETATM    2  C   UNL     1     -10.665   6.731  72.549  1.00  0.00    -0.230 C  
HETATM    3  C   UNL     1     -10.652   7.426  71.237  1.00  0.00    -0.231 A  
HETATM    4  O   UNL     1     -10.505   7.320  73.603  1.00  0.00    -0.365 OA 
HETATM    5  C   UNL     1     -10.189   6.777  70.077  1.00  0.00    -0.211 A  
HETATM    6  C   UNL     1     -10.169   7.439  68.842  1.00  0.00    -0.200 A  
HETATM    7  C   UNL     1     -10.599   8.770  68.798  1.00  0.00    -0.145 A  
HETATM    8  N   UNL     1     -10.675   9.643  67.751  1.00  0.00    -0.267 NA 
HETATM    9  C   UNL     1     -11.140  10.753  68.294  1.00  0.00    -0.271 A  
HETATM   10  O   UNL     1     -11.379  10.672  69.645  1.00  0.00    -0.249 OA 
HETATM   11  C   UNL     1     -11.075   8.770  71.206  1.00  0.00    -0.348 A  
HETATM   12  C   UNL     1     -11.026   9.387  69.964  1.00  0.00    -0.239 A  
ENDROOT
BRANCH   9  13
HETATM   13  C   UNL     1     -11.436  12.015  67.622  1.00  0.00    -0.392 A  
HETATM   14  C   UNL     1     -11.488  13.188  68.394  1.00  0.00    -0.350 A  
HETATM   15  C   UNL     1     -11.740  14.423  67.800  1.00  0.00    -0.376 A  
HETATM   16 CL   UNL     1     -11.786  15.841  68.772  1.00  0.00    -0.383 Cl 
HETATM   17  C   UNL     1     -11.947  14.515  66.429  1.00  0.00    -0.350 A  
HETATM   18  C   UNL     1     -11.906  13.355  65.657  1.00  0.00    -0.370 A  
HETATM   19 CL   UNL     1     -12.159  13.462  63.958  1.00  0.00    -0.500 Cl 
HETATM   20  C   UNL     1     -11.654  12.110  66.242  1.00  0.00    -0.424 A  
ENDBRANCH   9  13
TORSDOF 1
ENDMDL
MODEL       55
REMARK 921   NORMALIZED FREE ENERGY PREDICTED BY IDOCK:   -5.79 KCAL/MOL
REMARK 922        TOTAL FREE ENERGY PREDICTED BY IDOCK:   -6.32 KCAL/MOL
REMARK 923 INTER-LIGAND FREE ENERGY PREDICTED BY IDOCK:   -6.10 KCAL/MOL
REMARK 924 INTRA-LIGAND FREE ENERGY PREDICTED BY IDOCK:   -0.22 KCAL/MOL
REMARK 927      BINDING AFFINITY PREDICTED BY RF-SCORE:    0.00 PKD
ROOT
HETATM    1  O   UNL     1     -12.875  15.630  70.943  1.00  0.00    -0.472 OA 
HETATM    2  C   UNL     1     -13.413  14.462  71.351  1.00  0.00    -0.351 C  
HETATM    3  C   UNL     1     -12.732  13.257  70.818  1.00  0.00    -0.284 A  
HETATM    4  O   UNL     1     -14.359  14.396  72.116  1.00  0.00    -0.506 OA 
HETATM    5  C   UNL     1     -12.149  13.259  69.536  1.00  0.00    -0.315 A  
HETATM    6  C   UNL     1     -11.516  12.115  69.032  1.00  0.00    -0.351 A  
HETATM    7  C   UNL     1     -11.499  10.963  69.827  1.00  0.00    -0.313 A  
HETATM    8  N   UNL     1     -10.970   9.728  69.586  1.00  0.00    -0.240 NA 
HETATM    9  C   UNL     1     -11.258   9.039  70.676  1.00  0.00    -0.270 A  
HETATM   10  O   UNL     1     -11.951   9.745  71.631  1.00  0.00    -0.383 OA 
HETATM   11  C   UNL     1     -12.732  12.098  71.621  1.00  0.00    -0.314 A  
HETATM   12  C   UNL     1     -12.103  10.987  71.074  1.00  0.00    -0.301 A  
ENDROOT
BRANCH   9  13
HETATM   13  C   UNL     1     -10.910   7.653  70.969  1.00  0.00    -0.255 A  
HETATM   14  C   UNL     1     -10.957   7.219  72.305  1.00  0.00    -0.286 A  
HETATM   15  C   UNL     1     -10.661   5.899  72.638  1.00  0.00    -0.234 A  
HETATM   16 CL   UNL     1     -10.738   5.397  74.281  1.00  0.00    -0.223 Cl 
HETATM   17  C   UNL     1     -10.311   4.986  71.650  1.00  0.00    -0.262 A  
HETATM   18  C   UNL     1     -10.253   5.409  70.324  1.00  0.00    -0.267 A  
HETATM   19 CL   UNL     1      -9.823   4.284  69.096  1.00  0.00    -0.221 Cl 
HETATM   20  C   UNL     1     -10.548   6.731  69.978  1.00  0.00    -0.256 A  
ENDBRANCH   9  13
TORSDOF 1
ENDMDL
MODEL       56
REMARK 921   NORMALIZED FREE ENERGY PREDICTED BY IDOCK:   -5.78 KCAL/MOL
REMARK 922        TOTAL FREE ENERGY PREDICTED BY IDOCK:   -6.31 KCAL/MOL
REMARK 923 INTER-LIGAND FREE ENERGY PREDICTED BY IDOCK:   -6.10 KCAL/MOL
REMARK 924 INTRA-LIGAND FREE ENERGY PREDICTED BY IDOCK:   -0.21 KCAL/MOL
REMARK 927      BINDING AFFINITY PREDICTED BY RF-SCORE:    0.00 PKD
ROOT
HETATM    1  O   UNL     1     -14.297  15.600  71.389  1.00  0.00    -0.524 OA 
HETATM    2  C   UNL     1     -13.081  15.191  70.973  1.00  0.00    -0.452 C  
HETATM    3  C   UNL     1     -12.887  13.720  71.006  1.00  0.00    -0.376 A  
HETATM    4  O   UNL     1     -12.221  15.956  70.574  1.00  0.00    -0.380 OA 
HETATM    5  C   UNL     1     -13.505  12.928  71.992  1.00  0.00    -0.568 A  
HETATM    6  C   UNL     1     -13.311  11.540  72.027  1.00  0.00    -0.397 A  
HETATM    7  C   UNL     1     -12.467  10.966  71.069  1.00  0.00    -0.411 A  
HETATM    8  N   UNL     1     -12.098   9.666  70.879  1.00  0.00    -0.302 NA 
HETATM    9  C   UNL     1     -11.283   9.714  69.841  1.00  0.00    -0.207 A  
HETATM   10  O   UNL     1     -11.086  10.974  69.327  1.00  0.00    -0.218 OA 
HETATM   11  C   UNL     1     -12.024  13.153  70.046  1.00  0.00    -0.391 A  
HETATM   12  C   UNL     1     -11.854  11.778  70.128  1.00  0.00    -0.324 A  
ENDROOT
BRANCH   9  13
HETATM   13  C   UNL     1     -10.605   8.597  69.190  1.00  0.00    -0.193 A  
HETATM   14  C   UNL     1     -10.514   7.377  69.880  1.00  0.00    -0.238 A  
HETATM   15  C   UNL     1      -9.902   6.270  69.295  1.00  0.00    -0.141 A  
HETATM   16 CL   UNL     1      -9.816   4.787  70.163  1.00  0.00    -0.290 Cl 
HETATM   17  C   UNL     1      -9.367   6.356  68.016  1.00  0.00    -0.115 A  
HETATM   18  C   UNL     1      -9.445   7.565  67.327  1.00  0.00    -0.151 A  
HETATM   19 CL   UNL     1      -8.787   7.679  65.741  1.00  0.00    -0.167 Cl 
HETATM   20  C   UNL     1     -10.057   8.683  67.904  1.00  0.00    -0.254 A  
ENDBRANCH   9  13
TORSDOF 1
ENDMDL
MODEL       57
REMARK 921   NORMALIZED FREE ENERGY PREDICTED BY IDOCK:   -5.74 KCAL/MOL
REMARK 922        TOTAL FREE ENERGY PREDICTED BY IDOCK:   -6.27 KCAL/MOL
REMARK 923 INTER-LIGAND FREE ENERGY PREDICTED BY IDOCK:   -6.05 KCAL/MOL
REMARK 924 INTRA-LIGAND FREE ENERGY PREDICTED BY IDOCK:   -0.22 KCAL/MOL
REMARK 927      BINDING AFFINITY PREDICTED BY RF-SCORE:    0.00 PKD
ROOT
HETATM    1  O   UNL     1     -10.234  20.400  66.714  1.00  0.00    -0.410 OA 
HETATM    2  C   UNL     1      -9.379  19.405  66.399  1.00  0.00    -0.368 C  
HETATM    3  C   UNL     1      -9.807  18.062  66.864  1.00  0.00    -0.330 A  
HETATM    4  O   UNL     1      -8.357  19.583  65.761  1.00  0.00    -0.420 OA 
HETATM    5  C   UNL     1     -10.529  17.905  68.061  1.00  0.00    -0.390 A  
HETATM    6  C   UNL     1     -10.922  16.633  68.503  1.00  0.00    -0.339 A  
HETATM    7  C   UNL     1     -10.556  15.524  67.732  1.00  0.00    -0.281 A  
HETATM    8  N   UNL     1     -10.793  14.194  67.927  1.00  0.00    -0.242 NA 
HETATM    9  C   UNL     1     -10.208  13.611  66.895  1.00  0.00    -0.261 A  
HETATM   10  O   UNL     1      -9.595  14.478  66.023  1.00  0.00    -0.303 OA 
HETATM   11  C   UNL     1      -9.421  16.950  66.088  1.00  0.00    -0.274 A  
HETATM   12  C   UNL     1      -9.823  15.712  66.571  1.00  0.00    -0.261 A  
ENDROOT
BRANCH   9  13
HETATM   13  C   UNL     1     -10.166  12.186  66.586  1.00  0.00    -0.223 A  
HETATM   14  C   UNL     1      -9.890  11.796  65.265  1.00  0.00    -0.267 A  
HETATM   15  C   UNL     1      -9.811  10.448  64.920  1.00  0.00    -0.334 A  
HETATM   16 CL   UNL     1      -9.461  10.003  63.296  1.00  0.00    -0.307 Cl 
HETATM   17  C   UNL     1     -10.007   9.463  65.881  1.00  0.00    -0.327 A  
HETATM   18  C   UNL     1     -10.290   9.841  67.192  1.00  0.00    -0.248 A  
HETATM   19 CL   UNL     1     -10.532   8.627  68.388  1.00  0.00    -0.240 Cl 
HETATM   20  C   UNL     1     -10.372  11.190  67.550  1.00  0.00    -0.228 A  
ENDBRANCH   9  13
TORSDOF 1
ENDMDL
MODEL       58
REMARK 921   NORMALIZED FREE ENERGY PREDICTED BY IDOCK:   -5.72 KCAL/MOL
REMARK 922        TOTAL FREE ENERGY PREDICTED BY IDOCK:   -6.25 KCAL/MOL
REMARK 923 INTER-LIGAND FREE ENERGY PREDICTED BY IDOCK:   -6.06 KCAL/MOL
REMARK 924 INTRA-LIGAND FREE ENERGY PREDICTED BY IDOCK:   -0.19 KCAL/MOL
REMARK 927      BINDING AFFINITY PREDICTED BY RF-SCORE:    0.00 PKD
ROOT
HETATM    1  O   UNL     1     -13.123  15.232  73.560  1.00  0.00    -0.492 OA 
HETATM    2  C   UNL     1     -13.419  14.285  72.647  1.00  0.00    -0.525 C  
HETATM    3  C   UNL     1     -12.604  14.355  71.409  1.00  0.00    -0.426 A  
HETATM    4  O   UNL     1     -14.260  13.423  72.830  1.00  0.00    -0.693 OA 
HETATM    5  C   UNL     1     -12.160  15.590  70.901  1.00  0.00    -0.433 A  
HETATM    6  C   UNL     1     -11.400  15.653  69.725  1.00  0.00    -0.327 A  
HETATM    7  C   UNL     1     -11.114  14.457  69.057  1.00  0.00    -0.261 A  
HETATM    8  N   UNL     1     -10.416  14.230  67.906  1.00  0.00    -0.238 NA 
HETATM    9  C   UNL     1     -10.478  12.920  67.749  1.00  0.00    -0.220 A  
HETATM   10  O   UNL     1     -11.178  12.259  68.729  1.00  0.00    -0.230 OA 
HETATM   11  C   UNL     1     -12.334  13.146  70.735  1.00  0.00    -0.404 A  
HETATM   12  C   UNL     1     -11.588  13.260  69.570  1.00  0.00    -0.286 A  
ENDROOT
BRANCH   9  13
HETATM   13  C   UNL     1      -9.878  12.123  66.682  1.00  0.00    -0.224 A  
HETATM   14  C   UNL     1      -8.719  11.384  66.970  1.00  0.00    -0.160 A  
HETATM   15  C   UNL     1      -8.122  10.585  65.997  1.00  0.00    -0.148 A  
HETATM   16 CL   UNL     1      -6.708   9.685  66.385  1.00  0.00    -0.074 Cl 
HETATM   17  C   UNL     1      -8.664  10.509  64.720  1.00  0.00    -0.196 A  
HETATM   18  C   UNL     1      -9.809  11.245  64.423  1.00  0.00    -0.269 A  
HETATM   19 CL   UNL     1     -10.487  11.154  62.844  1.00  0.00    -0.138 Cl 
HETATM   20  C   UNL     1     -10.417  12.050  65.391  1.00  0.00    -0.313 A  
ENDBRANCH   9  13
TORSDOF 1
ENDMDL
MODEL       59
REMARK 921   NORMALIZED FREE ENERGY PREDICTED BY IDOCK:   -5.72 KCAL/MOL
REMARK 922        TOTAL FREE ENERGY PREDICTED BY IDOCK:   -6.25 KCAL/MOL
REMARK 923 INTER-LIGAND FREE ENERGY PREDICTED BY IDOCK:   -6.03 KCAL/MOL
REMARK 924 INTRA-LIGAND FREE ENERGY PREDICTED BY IDOCK:   -0.22 KCAL/MOL
REMARK 927      BINDING AFFINITY PREDICTED BY RF-SCORE:    0.00 PKD
ROOT
HETATM    1  O   UNL     1     -13.830  15.664  70.886  1.00  0.00    -0.516 OA 
HETATM    2  C   UNL     1     -12.650  15.073  70.607  1.00  0.00    -0.374 C  
HETATM    3  C   UNL     1     -12.633  13.606  70.829  1.00  0.00    -0.397 A  
HETATM    4  O   UNL     1     -11.685  15.682  70.179  1.00  0.00    -0.307 OA 
HETATM    5  C   UNL     1     -13.394  13.019  71.858  1.00  0.00    -0.539 A  
HETATM    6  C   UNL     1     -13.368  11.634  72.072  1.00  0.00    -0.405 A  
HETATM    7  C   UNL     1     -12.547  10.854  71.250  1.00  0.00    -0.421 A  
HETATM    8  N   UNL     1     -12.325   9.507  71.243  1.00  0.00    -0.326 NA 
HETATM    9  C   UNL     1     -11.454   9.332  70.265  1.00  0.00    -0.162 A  
HETATM   10  O   UNL     1     -11.081  10.487  69.619  1.00  0.00    -0.244 OA 
HETATM   11  C   UNL     1     -11.793  12.830  70.006  1.00  0.00    -0.352 A  
HETATM   12  C   UNL     1     -11.791  11.466  70.262  1.00  0.00    -0.350 A  
ENDROOT
BRANCH   9  13
HETATM   13  C   UNL     1     -10.879   8.074  69.801  1.00  0.00    -0.194 A  
HETATM   14  C   UNL     1     -10.424   7.995  68.473  1.00  0.00    -0.200 A  
HETATM   15  C   UNL     1      -9.842   6.827  67.987  1.00  0.00    -0.136 A  
HETATM   16 CL   UNL     1      -9.286   6.766  66.360  1.00  0.00    -0.190 Cl 
HETATM   17  C   UNL     1      -9.703   5.714  68.808  1.00  0.00    -0.178 A  
HETATM   18  C   UNL     1     -10.159   5.781  70.123  1.00  0.00    -0.212 A  
HETATM   19 CL   UNL     1      -9.987   4.408  71.147  1.00  0.00    -0.261 Cl 
HETATM   20  C   UNL     1     -10.745   6.948  70.623  1.00  0.00    -0.267 A  
ENDBRANCH   9  13
TORSDOF 1
ENDMDL
MODEL       60
REMARK 921   NORMALIZED FREE ENERGY PREDICTED BY IDOCK:   -5.71 KCAL/MOL
REMARK 922        TOTAL FREE ENERGY PREDICTED BY IDOCK:   -6.24 KCAL/MOL
REMARK 923 INTER-LIGAND FREE ENERGY PREDICTED BY IDOCK:   -6.03 KCAL/MOL
REMARK 924 INTRA-LIGAND FREE ENERGY PREDICTED BY IDOCK:   -0.21 KCAL/MOL
REMARK 927      BINDING AFFINITY PREDICTED BY RF-SCORE:    0.00 PKD
ROOT
HETATM    1  O   UNL     1     -13.483  10.059  70.619  1.00  0.00    -0.260 OA 
HETATM    2  C   UNL     1     -12.878  11.203  71.000  1.00  0.00    -0.329 C  
HETATM    3  C   UNL     1     -11.971  11.785  69.979  1.00  0.00    -0.421 A  
HETATM    4  O   UNL     1     -13.078  11.736  72.077  1.00  0.00    -0.467 OA 
HETATM    5  C   UNL     1     -11.244  10.961  69.100  1.00  0.00    -0.318 A  
HETATM    6  C   UNL     1     -10.380  11.513  68.144  1.00  0.00    -0.211 A  
HETATM    7  C   UNL     1     -10.244  12.905  68.102  1.00  0.00    -0.239 A  
HETATM    8  N   UNL     1      -9.479  13.696  67.295  1.00  0.00    -0.222 NA 
HETATM    9  C   UNL     1      -9.740  14.923  67.710  1.00  0.00    -0.212 A  
HETATM   10  O   UNL     1     -10.636  14.996  68.750  1.00  0.00    -0.226 OA 
HETATM   11  C   UNL     1     -11.830  13.188  69.954  1.00  0.00    -0.378 A  
HETATM   12  C   UNL     1     -10.956  13.687  68.998  1.00  0.00    -0.234 A  
ENDROOT
BRANCH   9  13
HETATM   13  C   UNL     1      -9.205  16.173  67.180  1.00  0.00    -0.220 A  
HETATM   14  C   UNL     1     -10.070  17.275  67.063  1.00  0.00    -0.303 A  
HETATM   15  C   UNL     1      -9.605  18.500  66.589  1.00  0.00    -0.321 A  
HETATM   16 CL   UNL     1     -10.688  19.831  66.467  1.00  0.00    -0.565 Cl 
HETATM   17  C   UNL     1      -8.274  18.653  66.220  1.00  0.00    -0.258 A  
HETATM   18  C   UNL     1      -7.411  17.564  66.325  1.00  0.00    -0.319 A  
HETATM   19 CL   UNL     1      -5.761  17.746  65.873  1.00  0.00    -0.231 Cl 
HETATM   20  C   UNL     1      -7.866  16.329  66.799  1.00  0.00    -0.300 A  
ENDBRANCH   9  13
TORSDOF 1
ENDMDL
MODEL       61
REMARK 921   NORMALIZED FREE ENERGY PREDICTED BY IDOCK:   -5.69 KCAL/MOL
REMARK 922        TOTAL FREE ENERGY PREDICTED BY IDOCK:   -6.22 KCAL/MOL
REMARK 923 INTER-LIGAND FREE ENERGY PREDICTED BY IDOCK:   -6.03 KCAL/MOL
REMARK 924 INTRA-LIGAND FREE ENERGY PREDICTED BY IDOCK:   -0.18 KCAL/MOL
REMARK 927      BINDING AFFINITY PREDICTED BY RF-SCORE:    0.00 PKD
ROOT
HETATM    1  O   UNL     1     -10.291   8.618  66.967  1.00  0.00    -0.270 OA 
HETATM    2  C   UNL     1     -10.031   9.643  66.129  1.00  0.00    -0.276 C  
HETATM    3  C   UNL     1     -10.333  10.983  66.691  1.00  0.00    -0.288 A  
HETATM    4  O   UNL     1      -9.559   9.490  65.017  1.00  0.00    -0.268 OA 
HETATM    5  C   UNL     1     -11.400  11.171  67.588  1.00  0.00    -0.356 A  
HETATM    6  C   UNL     1     -11.690  12.440  68.108  1.00  0.00    -0.408 A  
HETATM    7  C   UNL     1     -10.902  13.520  67.693  1.00  0.00    -0.260 A  
HETATM    8  N   UNL     1     -10.966  14.842  68.025  1.00  0.00    -0.270 NA 
HETATM    9  C   UNL     1      -9.989  15.393  67.328  1.00  0.00    -0.226 A  
HETATM   10  O   UNL     1      -9.276  14.514  66.548  1.00  0.00    -0.265 OA 
HETATM   11  C   UNL     1      -9.543  12.067  66.255  1.00  0.00    -0.243 A  
HETATM   12  C   UNL     1      -9.874  13.305  66.788  1.00  0.00    -0.264 A  
ENDROOT
BRANCH   9  13
HETATM   13  C   UNL     1      -9.587  16.797  67.316  1.00  0.00    -0.234 A  
HETATM   14  C   UNL     1     -10.249  17.675  66.441  1.00  0.00    -0.364 A  
HETATM   15  C   UNL     1      -9.924  19.029  66.409  1.00  0.00    -0.395 A  
HETATM   16 CL   UNL     1     -10.760  20.080  65.333  1.00  0.00    -0.355 Cl 
HETATM   17  C   UNL     1      -8.936  19.536  67.243  1.00  0.00    -0.367 A  
HETATM   18  C   UNL     1      -8.268  18.671  68.108  1.00  0.00    -0.303 A  
HETATM   19 CL   UNL     1      -7.045  19.292  69.147  1.00  0.00    -0.380 Cl 
HETATM   20  C   UNL     1      -8.585  17.310  68.150  1.00  0.00    -0.242 A  
ENDBRANCH   9  13
TORSDOF 1
ENDMDL
MODEL       62
REMARK 921   NORMALIZED FREE ENERGY PREDICTED BY IDOCK:   -5.65 KCAL/MOL
REMARK 922        TOTAL FREE ENERGY PREDICTED BY IDOCK:   -6.17 KCAL/MOL
REMARK 923 INTER-LIGAND FREE ENERGY PREDICTED BY IDOCK:   -5.96 KCAL/MOL
REMARK 924 INTRA-LIGAND FREE ENERGY PREDICTED BY IDOCK:   -0.21 KCAL/MOL
REMARK 927      BINDING AFFINITY PREDICTED BY RF-SCORE:    0.00 PKD
ROOT
HETATM    1  O   UNL     1     -11.165  16.746  64.170  1.00  0.00    -1.155 OA 
HETATM    2  C   UNL     1     -10.409  16.213  65.152  1.00  0.00    -0.171 C  
HETATM    3  C   UNL     1     -10.814  14.844  65.559  1.00  0.00    -0.365 A  
HETATM    4  O   UNL     1      -9.455  16.787  65.645  1.00  0.00    -0.523 OA 
HETATM    5  C   UNL     1     -12.165  14.448  65.529  1.00  0.00    -0.352 A  
HETATM    6  C   UNL     1     -12.545  13.158  65.925  1.00  0.00    -0.271 A  
HETATM    7  C   UNL     1     -11.549  12.283  66.374  1.00  0.00    -0.383 A  
HETATM    8  N   UNL     1     -11.636  10.996  66.821  1.00  0.00    -0.238 NA 
HETATM    9  C   UNL     1     -10.389  10.677  67.117  1.00  0.00    -0.228 A  
HETATM   10  O   UNL     1      -9.474  11.678  66.894  1.00  0.00    -0.179 OA 
HETATM   11  C   UNL     1      -9.806  13.975  66.023  1.00  0.00    -0.316 A  
HETATM   12  C   UNL     1     -10.232  12.714  66.414  1.00  0.00    -0.251 A  
ENDROOT
BRANCH   9  13
HETATM   13  C   UNL     1      -9.895   9.401  67.624  1.00  0.00    -0.217 A  
HETATM   14  C   UNL     1     -10.466   8.217  67.126  1.00  0.00    -0.386 A  
HETATM   15  C   UNL     1     -10.013   6.971  67.555  1.00  0.00    -0.156 A  
HETATM   16 CL   UNL     1     -10.727   5.541  66.919  1.00  0.00    -0.339 Cl 
HETATM   17  C   UNL     1      -8.988   6.878  68.488  1.00  0.00    -0.122 A  
HETATM   18  C   UNL     1      -8.421   8.046  68.993  1.00  0.00    -0.130 A  
HETATM   19 CL   UNL     1      -7.149   7.939  70.147  1.00  0.00    -0.049 Cl 
HETATM   20  C   UNL     1      -8.867   9.302  68.571  1.00  0.00    -0.129 A  
ENDBRANCH   9  13
TORSDOF 1
ENDMDL
MODEL       63
REMARK 921   NORMALIZED FREE ENERGY PREDICTED BY IDOCK:   -5.64 KCAL/MOL
REMARK 922        TOTAL FREE ENERGY PREDICTED BY IDOCK:   -6.17 KCAL/MOL
REMARK 923 INTER-LIGAND FREE ENERGY PREDICTED BY IDOCK:   -5.95 KCAL/MOL
REMARK 924 INTRA-LIGAND FREE ENERGY PREDICTED BY IDOCK:   -0.21 KCAL/MOL
REMARK 927      BINDING AFFINITY PREDICTED BY RF-SCORE:    0.00 PKD
ROOT
HETATM    1  O   UNL     1     -11.323   4.920  73.548  1.00  0.00    -0.329 OA 
HETATM    2  C   UNL     1     -10.757   6.109  73.255  1.00  0.00    -0.260 C  
HETATM    3  C   UNL     1     -10.702   6.419  71.805  1.00  0.00    -0.273 A  
HETATM    4  O   UNL     1     -10.351   6.881  74.105  1.00  0.00    -0.373 OA 
HETATM    5  C   UNL     1     -10.532   5.398  70.850  1.00  0.00    -0.307 A  
HETATM    6  C   UNL     1     -10.470   5.695  69.481  1.00  0.00    -0.372 A  
HETATM    7  C   UNL     1     -10.557   7.037  69.092  1.00  0.00    -0.219 A  
HETATM    8  N   UNL     1     -10.516   7.603  67.850  1.00  0.00    -0.218 NA 
HETATM    9  C   UNL     1     -10.634   8.897  68.086  1.00  0.00    -0.157 A  
HETATM   10  O   UNL     1     -10.751   9.228  69.415  1.00  0.00    -0.225 OA 
HETATM   11  C   UNL     1     -10.777   7.774  71.423  1.00  0.00    -0.250 A  
HETATM   12  C   UNL     1     -10.699   8.020  70.059  1.00  0.00    -0.244 A  
ENDROOT
BRANCH   9  13
HETATM   13  C   UNL     1     -10.671   9.979  67.107  1.00  0.00    -0.279 A  
HETATM   14  C   UNL     1     -10.129   9.746  65.832  1.00  0.00    -0.314 A  
HETATM   15  C   UNL     1     -10.164  10.735  64.851  1.00  0.00    -0.320 A  
HETATM   16 CL   UNL     1      -9.500  10.415  63.296  1.00  0.00    -0.337 Cl 
HETATM   17  C   UNL     1     -10.734  11.973  65.119  1.00  0.00    -0.332 A  
HETATM   18  C   UNL     1     -11.266  12.216  66.383  1.00  0.00    -0.331 A  
HETATM   19 CL   UNL     1     -11.977  13.746  66.722  1.00  0.00    -0.444 Cl 
HETATM   20  C   UNL     1     -11.238  11.232  67.376  1.00  0.00    -0.370 A  
ENDBRANCH   9  13
TORSDOF 1
ENDMDL
MODEL       64
REMARK 921   NORMALIZED FREE ENERGY PREDICTED BY IDOCK:   -5.63 KCAL/MOL
REMARK 922        TOTAL FREE ENERGY PREDICTED BY IDOCK:   -6.15 KCAL/MOL
REMARK 923 INTER-LIGAND FREE ENERGY PREDICTED BY IDOCK:   -5.95 KCAL/MOL
REMARK 924 INTRA-LIGAND FREE ENERGY PREDICTED BY IDOCK:   -0.21 KCAL/MOL
REMARK 927      BINDING AFFINITY PREDICTED BY RF-SCORE:    0.00 PKD
ROOT
HETATM    1  O   UNL     1     -11.446   5.703  72.413  1.00  0.00    -0.285 OA 
HETATM    2  C   UNL     1     -11.238   7.033  72.510  1.00  0.00    -0.275 C  
HETATM    3  C   UNL     1     -11.037   7.716  71.208  1.00  0.00    -0.268 A  
HETATM    4  O   UNL     1     -11.244   7.632  73.571  1.00  0.00    -0.283 OA 
HETATM    5  C   UNL     1     -10.399   7.064  70.137  1.00  0.00    -0.213 A  
HETATM    6  C   UNL     1     -10.201   7.717  68.912  1.00  0.00    -0.217 A  
HETATM    7  C   UNL     1     -10.635   9.042  68.791  1.00  0.00    -0.169 A  
HETATM    8  N   UNL     1     -10.562   9.905  67.736  1.00  0.00    -0.243 NA 
HETATM    9  C   UNL     1     -11.115  11.014  68.193  1.00  0.00    -0.270 A  
HETATM   10  O   UNL     1     -11.553  10.941  69.494  1.00  0.00    -0.258 OA 
HETATM   11  C   UNL     1     -11.465   9.056  71.101  1.00  0.00    -0.376 A  
HETATM   12  C   UNL     1     -11.237   9.663  69.874  1.00  0.00    -0.207 A  
ENDROOT
BRANCH   9  13
HETATM   13  C   UNL     1     -11.321  12.267  67.472  1.00  0.00    -0.388 A  
HETATM   14  C   UNL     1     -11.656  12.207  66.109  1.00  0.00    -0.418 A  
HETATM   15  C   UNL     1     -11.891  13.371  65.380  1.00  0.00    -0.353 A  
HETATM   16 CL   UNL     1     -12.310  13.263  63.715  1.00  0.00    -0.467 Cl 
HETATM   17  C   UNL     1     -11.794  14.615  65.991  1.00  0.00    -0.280 A  
HETATM   18  C   UNL     1     -11.454  14.685  67.340  1.00  0.00    -0.369 A  
HETATM   19 CL   UNL     1     -11.335  16.222  68.104  1.00  0.00    -0.304 Cl 
HETATM   20  C   UNL     1     -11.217  13.524  68.082  1.00  0.00    -0.302 A  
ENDBRANCH   9  13
TORSDOF 1
ENDMDL
MODEL       65
REMARK 921   NORMALIZED FREE ENERGY PREDICTED BY IDOCK:   -5.62 KCAL/MOL
REMARK 922        TOTAL FREE ENERGY PREDICTED BY IDOCK:   -6.14 KCAL/MOL
REMARK 923 INTER-LIGAND FREE ENERGY PREDICTED BY IDOCK:   -5.95 KCAL/MOL
REMARK 924 INTRA-LIGAND FREE ENERGY PREDICTED BY IDOCK:   -0.19 KCAL/MOL
REMARK 927      BINDING AFFINITY PREDICTED BY RF-SCORE:    0.00 PKD
ROOT
HETATM    1  O   UNL     1      -9.738  16.824  65.705  1.00  0.00    -0.539 OA 
HETATM    2  C   UNL     1      -9.558  16.242  66.908  1.00  0.00    -0.232 C  
HETATM    3  C   UNL     1     -10.248  14.938  67.066  1.00  0.00    -0.256 A  
HETATM    4  O   UNL     1      -8.865  16.726  67.785  1.00  0.00    -0.204 OA 
HETATM    5  C   UNL     1     -11.479  14.686  66.432  1.00  0.00    -0.348 A  
HETATM    6  C   UNL     1     -12.133  13.457  66.592  1.00  0.00    -0.429 A  
HETATM    7  C   UNL     1     -11.540  12.495  67.417  1.00  0.00    -0.370 A  
HETATM    8  N   UNL     1     -11.955  11.238  67.752  1.00  0.00    -0.635 NA 
HETATM    9  C   UNL     1     -11.010  10.797  68.564  1.00  0.00    -0.243 A  
HETATM   10  O   UNL     1      -9.989  11.687  68.790  1.00  0.00    -0.200 OA 
HETATM   11  C   UNL     1      -9.649  13.980  67.910  1.00  0.00    -0.221 A  
HETATM   12  C   UNL     1     -10.339  12.783  68.046  1.00  0.00    -0.229 A  
ENDROOT
BRANCH   9  13
HETATM   13  C   UNL     1     -10.934   9.490  69.211  1.00  0.00    -0.167 A  
HETATM   14  C   UNL     1     -10.762   8.353  68.403  1.00  0.00    -0.076 A  
HETATM   15  C   UNL     1     -10.655   7.085  68.970  1.00  0.00    -0.217 A  
HETATM   16 CL   UNL     1     -10.435   5.714  67.954  1.00  0.00    -0.271 Cl 
HETATM   17  C   UNL     1     -10.720   6.923  70.349  1.00  0.00    -0.278 A  
HETATM   18  C   UNL     1     -10.899   8.044  71.157  1.00  0.00    -0.238 A  
HETATM   19 CL   UNL     1     -10.977   7.851  72.865  1.00  0.00    -0.461 Cl 
HETATM   20  C   UNL     1     -11.007   9.322  70.600  1.00  0.00    -0.336 A  
ENDBRANCH   9  13
TORSDOF 1
ENDMDL
MODEL       66
REMARK 921   NORMALIZED FREE ENERGY PREDICTED BY IDOCK:   -5.58 KCAL/MOL
REMARK 922        TOTAL FREE ENERGY PREDICTED BY IDOCK:   -6.10 KCAL/MOL
REMARK 923 INTER-LIGAND FREE ENERGY PREDICTED BY IDOCK:   -5.89 KCAL/MOL
REMARK 924 INTRA-LIGAND FREE ENERGY PREDICTED BY IDOCK:   -0.21 KCAL/MOL
REMARK 927      BINDING AFFINITY PREDICTED BY RF-SCORE:    0.00 PKD
ROOT
HETATM    1  O   UNL     1     -10.159  20.453  66.679  1.00  0.00    -0.442 OA 
HETATM    2  C   UNL     1      -9.282  19.476  66.372  1.00  0.00    -0.371 C  
HETATM    3  C   UNL     1      -9.718  18.115  66.772  1.00  0.00    -0.324 A  
HETATM    4  O   UNL     1      -8.232  19.682  65.789  1.00  0.00    -0.408 OA 
HETATM    5  C   UNL     1     -10.494  17.912  67.928  1.00  0.00    -0.404 A  
HETATM    6  C   UNL     1     -10.896  16.624  68.309  1.00  0.00    -0.356 A  
HETATM    7  C   UNL     1     -10.483  15.543  67.520  1.00  0.00    -0.282 A  
HETATM    8  N   UNL     1     -10.716  14.205  67.660  1.00  0.00    -0.256 NA 
HETATM    9  C   UNL     1     -10.079  13.662  66.638  1.00  0.00    -0.277 A  
HETATM   10  O   UNL     1      -9.433  14.562  65.824  1.00  0.00    -0.251 OA 
HETATM   11  C   UNL     1      -9.286  17.031  65.979  1.00  0.00    -0.177 A  
HETATM   12  C   UNL     1      -9.698  15.775  66.402  1.00  0.00    -0.282 A  
ENDROOT
BRANCH   9  13
HETATM   13  C   UNL     1     -10.009  12.248  66.285  1.00  0.00    -0.249 A  
HETATM   14  C   UNL     1     -10.214  11.294  67.296  1.00  0.00    -0.226 A  
HETATM   15  C   UNL     1     -10.186   9.931  67.008  1.00  0.00    -0.233 A  
HETATM   16 CL   UNL     1     -10.451   8.790  68.268  1.00  0.00    -0.253 Cl 
HETATM   17  C   UNL     1      -9.950   9.490  65.712  1.00  0.00    -0.316 A  
HETATM   18  C   UNL     1      -9.737  10.429  64.704  1.00  0.00    -0.329 A  
HETATM   19 CL   UNL     1      -9.448   9.891  63.095  1.00  0.00    -0.238 Cl 
HETATM   20  C   UNL     1      -9.763  11.799  64.980  1.00  0.00    -0.212 A  
ENDBRANCH   9  13
TORSDOF 1
ENDMDL
MODEL       67
REMARK 921   NORMALIZED FREE ENERGY PREDICTED BY IDOCK:   -5.57 KCAL/MOL
REMARK 922        TOTAL FREE ENERGY PREDICTED BY IDOCK:   -6.09 KCAL/MOL
REMARK 923 INTER-LIGAND FREE ENERGY PREDICTED BY IDOCK:   -5.89 KCAL/MOL
REMARK 924 INTRA-LIGAND FREE ENERGY PREDICTED BY IDOCK:   -0.21 KCAL/MOL
REMARK 927      BINDING AFFINITY PREDICTED BY RF-SCORE:    0.00 PKD
ROOT
HETATM    1  O   UNL     1     -11.135  15.167  64.584  1.00  0.00    -0.375 OA 
HETATM    2  C   UNL     1     -11.954  14.250  65.138  1.00  0.00    -0.395 C  
HETATM    3  C   UNL     1     -11.275  12.999  65.559  1.00  0.00    -0.315 A  
HETATM    4  O   UNL     1     -13.146  14.437  65.308  1.00  0.00    -0.629 OA 
HETATM    5  C   UNL     1     -10.171  12.497  64.846  1.00  0.00    -0.301 A  
HETATM    6  C   UNL     1      -9.538  11.310  65.240  1.00  0.00    -0.265 A  
HETATM    7  C   UNL     1     -10.049  10.626  66.350  1.00  0.00    -0.225 A  
HETATM    8  N   UNL     1      -9.642   9.462  66.937  1.00  0.00    -0.155 NA 
HETATM    9  C   UNL     1     -10.494   9.294  67.933  1.00  0.00    -0.236 A  
HETATM   10  O   UNL     1     -11.446  10.278  68.043  1.00  0.00    -0.314 OA 
HETATM   11  C   UNL     1     -11.805  12.311  66.670  1.00  0.00    -0.362 A  
HETATM   12  C   UNL     1     -11.152  11.135  67.015  1.00  0.00    -0.273 A  
ENDROOT
BRANCH   9  13
HETATM   13  C   UNL     1     -10.514   8.210  68.911  1.00  0.00    -0.202 A  
HETATM   14  C   UNL     1     -10.825   8.520  70.245  1.00  0.00    -0.249 A  
HETATM   15  C   UNL     1     -10.886   7.520  71.214  1.00  0.00    -0.235 A  
HETATM   16 CL   UNL     1     -11.280   7.931  72.838  1.00  0.00    -0.468 Cl 
HETATM   17  C   UNL     1     -10.634   6.196  70.876  1.00  0.00    -0.298 A  
HETATM   18  C   UNL     1     -10.316   5.881  69.556  1.00  0.00    -0.248 A  
HETATM   19 CL   UNL     1     -10.007   4.243  69.129  1.00  0.00    -0.155 Cl 
HETATM   20  C   UNL     1     -10.253   6.875  68.575  1.00  0.00    -0.187 A  
ENDBRANCH   9  13
TORSDOF 1
ENDMDL
MODEL       68
REMARK 921   NORMALIZED FREE ENERGY PREDICTED BY IDOCK:   -5.56 KCAL/MOL
REMARK 922        TOTAL FREE ENERGY PREDICTED BY IDOCK:   -6.08 KCAL/MOL
REMARK 923 INTER-LIGAND FREE ENERGY PREDICTED BY IDOCK:   -5.89 KCAL/MOL
REMARK 924 INTRA-LIGAND FREE ENERGY PREDICTED BY IDOCK:   -0.19 KCAL/MOL
REMARK 927      BINDING AFFINITY PREDICTED BY RF-SCORE:    0.00 PKD
ROOT
HETATM    1  O   UNL     1     -10.572   8.589  67.847  1.00  0.00    -0.220 OA 
HETATM    2  C   UNL     1     -10.403   9.564  66.930  1.00  0.00    -0.237 C  
HETATM    3  C   UNL     1     -10.613  10.937  67.452  1.00  0.00    -0.285 A  
HETATM    4  O   UNL     1     -10.075   9.344  65.778  1.00  0.00    -0.288 OA 
HETATM    5  C   UNL     1     -11.559  11.192  68.463  1.00  0.00    -0.385 A  
HETATM    6  C   UNL     1     -11.763  12.492  68.946  1.00  0.00    -0.367 A  
HETATM    7  C   UNL     1     -11.017  13.533  68.380  1.00  0.00    -0.266 A  
HETATM    8  N   UNL     1     -11.020  14.871  68.646  1.00  0.00    -0.247 NA 
HETATM    9  C   UNL     1     -10.129  15.366  67.806  1.00  0.00    -0.227 A  
HETATM   10  O   UNL     1      -9.532  14.433  66.992  1.00  0.00    -0.229 OA 
HETATM   11  C   UNL     1      -9.868  11.980  66.865  1.00  0.00    -0.217 A  
HETATM   12  C   UNL     1     -10.112  13.250  67.368  1.00  0.00    -0.233 A  
ENDROOT
BRANCH   9  13
HETATM   13  C   UNL     1      -9.712  16.758  67.670  1.00  0.00    -0.251 A  
HETATM   14  C   UNL     1      -8.634  17.212  68.448  1.00  0.00    -0.246 A  
HETATM   15  C   UNL     1      -8.177  18.524  68.337  1.00  0.00    -0.328 A  
HETATM   16 CL   UNL     1      -6.847  19.045  69.296  1.00  0.00    -0.335 Cl 
HETATM   17  C   UNL     1      -8.784  19.409  67.455  1.00  0.00    -0.346 A  
HETATM   18  C   UNL     1      -9.860  18.970  66.687  1.00  0.00    -0.355 A  
HETATM   19 CL   UNL     1     -10.616  20.059  65.590  1.00  0.00    -0.499 Cl 
HETATM   20  C   UNL     1     -10.328  17.656  66.788  1.00  0.00    -0.331 A  
ENDBRANCH   9  13
TORSDOF 1
ENDMDL
MODEL       69
REMARK 921   NORMALIZED FREE ENERGY PREDICTED BY IDOCK:   -5.56 KCAL/MOL
REMARK 922        TOTAL FREE ENERGY PREDICTED BY IDOCK:   -6.08 KCAL/MOL
REMARK 923 INTER-LIGAND FREE ENERGY PREDICTED BY IDOCK:   -5.88 KCAL/MOL
REMARK 924 INTRA-LIGAND FREE ENERGY PREDICTED BY IDOCK:   -0.19 KCAL/MOL
REMARK 927      BINDING AFFINITY PREDICTED BY RF-SCORE:    0.00 PKD
ROOT
HETATM    1  O   UNL     1     -10.551  16.751  65.291  1.00  0.00    -0.621 OA 
HETATM    2  C   UNL     1      -9.700  15.889  65.885  1.00  0.00    -0.351 C  
HETATM    3  C   UNL     1     -10.338  14.644  66.380  1.00  0.00    -0.293 A  
HETATM    4  O   UNL     1      -8.503  16.095  65.983  1.00  0.00    -0.319 OA 
HETATM    5  C   UNL     1     -11.659  14.648  66.867  1.00  0.00    -0.374 A  
HETATM    6  C   UNL     1     -12.255  13.472  67.343  1.00  0.00    -0.278 A  
HETATM    7  C   UNL     1     -11.493  12.298  67.343  1.00  0.00    -0.352 A  
HETATM    8  N   UNL     1     -11.812  11.036  67.751  1.00  0.00    -0.591 NA 
HETATM    9  C   UNL     1     -10.710  10.341  67.529  1.00  0.00    -0.294 A  
HETATM   10  O   UNL     1      -9.674  11.068  66.995  1.00  0.00    -0.179 OA 
HETATM   11  C   UNL     1      -9.558  13.469  66.388  1.00  0.00    -0.268 A  
HETATM   12  C   UNL     1     -10.187  12.333  66.879  1.00  0.00    -0.213 A  
ENDROOT
BRANCH   9  13
HETATM   13  C   UNL     1     -10.495   8.917  67.767  1.00  0.00    -0.300 A  
HETATM   14  C   UNL     1     -10.598   8.435  69.083  1.00  0.00    -0.177 A  
HETATM   15  C   UNL     1     -10.429   7.081  69.362  1.00  0.00    -0.214 A  
HETATM   16 CL   UNL     1     -10.572   6.522  70.983  1.00  0.00    -0.262 Cl 
HETATM   17  C   UNL     1     -10.151   6.181  68.341  1.00  0.00    -0.186 A  
HETATM   18  C   UNL     1     -10.039   6.651  67.034  1.00  0.00    -0.187 A  
HETATM   19 CL   UNL     1      -9.698   5.542  65.763  1.00  0.00    -0.060 Cl 
HETATM   20  C   UNL     1     -10.207   8.008  66.741  1.00  0.00    -0.367 A  
ENDBRANCH   9  13
TORSDOF 1
ENDMDL
MODEL       70
REMARK 921   NORMALIZED FREE ENERGY PREDICTED BY IDOCK:   -5.55 KCAL/MOL
REMARK 922        TOTAL FREE ENERGY PREDICTED BY IDOCK:   -6.07 KCAL/MOL
REMARK 923 INTER-LIGAND FREE ENERGY PREDICTED BY IDOCK:   -5.86 KCAL/MOL
REMARK 924 INTRA-LIGAND FREE ENERGY PREDICTED BY IDOCK:   -0.21 KCAL/MOL
REMARK 927      BINDING AFFINITY PREDICTED BY RF-SCORE:    0.00 PKD
ROOT
HETATM    1  O   UNL     1     -11.480   5.441  72.967  1.00  0.00    -0.308 OA 
HETATM    2  C   UNL     1     -10.868   6.607  72.673  1.00  0.00    -0.248 C  
HETATM    3  C   UNL     1     -10.821   6.924  71.224  1.00  0.00    -0.263 A  
HETATM    4  O   UNL     1     -10.417   7.355  73.522  1.00  0.00    -0.355 OA 
HETATM    5  C   UNL     1     -10.710   5.904  70.261  1.00  0.00    -0.383 A  
HETATM    6  C   UNL     1     -10.655   6.207  68.893  1.00  0.00    -0.335 A  
HETATM    7  C   UNL     1     -10.690   7.554  68.514  1.00  0.00    -0.073 A  
HETATM    8  N   UNL     1     -10.643   8.126  67.275  1.00  0.00    -0.304 NA 
HETATM    9  C   UNL     1     -10.701   9.423  67.521  1.00  0.00    -0.222 A  
HETATM   10  O   UNL     1     -10.784   9.749  68.853  1.00  0.00    -0.216 OA 
HETATM   11  C   UNL     1     -10.843   8.284  70.852  1.00  0.00    -0.261 A  
HETATM   12  C   UNL     1     -10.775   8.535  69.489  1.00  0.00    -0.174 A  
ENDROOT
BRANCH   9  13
HETATM   13  C   UNL     1     -10.706  10.512  66.549  1.00  0.00    -0.191 A  
HETATM   14  C   UNL     1     -11.400  11.691  66.869  1.00  0.00    -0.364 A  
HETATM   15  C   UNL     1     -11.414  12.772  65.990  1.00  0.00    -0.350 A  
HETATM   16 CL   UNL     1     -12.265  14.205  66.417  1.00  0.00    -0.483 Cl 
HETATM   17  C   UNL     1     -10.742  12.701  64.776  1.00  0.00    -0.335 A  
HETATM   18  C   UNL     1     -10.059  11.532  64.446  1.00  0.00    -0.282 A  
HETATM   19 CL   UNL     1      -9.221  11.437  62.946  1.00  0.00    -0.345 Cl 
HETATM   20  C   UNL     1     -10.037  10.441  65.320  1.00  0.00    -0.370 A  
ENDBRANCH   9  13
TORSDOF 1
ENDMDL
MODEL       71
REMARK 921   NORMALIZED FREE ENERGY PREDICTED BY IDOCK:   -5.50 KCAL/MOL
REMARK 922        TOTAL FREE ENERGY PREDICTED BY IDOCK:   -6.01 KCAL/MOL
REMARK 923 INTER-LIGAND FREE ENERGY PREDICTED BY IDOCK:   -5.80 KCAL/MOL
REMARK 924 INTRA-LIGAND FREE ENERGY PREDICTED BY IDOCK:   -0.21 KCAL/MOL
REMARK 927      BINDING AFFINITY PREDICTED BY RF-SCORE:    0.00 PKD
ROOT
HETATM    1  O   UNL     1     -10.287   4.736  69.813  1.00  0.00    -0.227 OA 
HETATM    2  C   UNL     1     -10.002   5.811  70.577  1.00  0.00    -0.195 C  
HETATM    3  C   UNL     1     -10.268   7.115  69.920  1.00  0.00    -0.215 A  
HETATM    4  O   UNL     1      -9.592   5.725  71.720  1.00  0.00    -0.155 OA 
HETATM    5  C   UNL     1     -10.098   7.276  68.532  1.00  0.00    -0.182 A  
HETATM    6  C   UNL     1     -10.339   8.512  67.915  1.00  0.00    -0.281 A  
HETATM    7  C   UNL     1     -10.731   9.587  68.722  1.00  0.00    -0.190 A  
HETATM    8  N   UNL     1     -11.017  10.881  68.394  1.00  0.00    -0.217 NA 
HETATM    9  C   UNL     1     -11.317  11.444  69.552  1.00  0.00    -0.289 A  
HETATM   10  O   UNL     1     -11.246  10.599  70.633  1.00  0.00    -0.289 OA 
HETATM   11  C   UNL     1     -10.649   8.195  70.742  1.00  0.00    -0.234 A  
HETATM   12  C   UNL     1     -10.865   9.400  70.089  1.00  0.00    -0.249 A  
ENDROOT
BRANCH   9  13
HETATM   13  C   UNL     1     -11.722  12.825  69.789  1.00  0.00    -0.352 A  
HETATM   14  C   UNL     1     -12.573  13.096  70.874  1.00  0.00    -0.377 A  
HETATM   15  C   UNL     1     -12.968  14.400  71.163  1.00  0.00    -0.349 A  
HETATM   16 CL   UNL     1     -14.002  14.699  72.505  1.00  0.00    -0.545 Cl 
HETATM   17  C   UNL     1     -12.529  15.459  70.378  1.00  0.00    -0.447 A  
HETATM   18  C   UNL     1     -11.692  15.199  69.295  1.00  0.00    -0.329 A  
HETATM   19 CL   UNL     1     -11.141  16.506  68.320  1.00  0.00    -0.353 Cl 
HETATM   20  C   UNL     1     -11.288  13.895  68.995  1.00  0.00    -0.324 A  
ENDBRANCH   9  13
TORSDOF 1
ENDMDL
MODEL       72
REMARK 921   NORMALIZED FREE ENERGY PREDICTED BY IDOCK:   -5.49 KCAL/MOL
REMARK 922        TOTAL FREE ENERGY PREDICTED BY IDOCK:   -6.01 KCAL/MOL
REMARK 923 INTER-LIGAND FREE ENERGY PREDICTED BY IDOCK:   -5.79 KCAL/MOL
REMARK 924 INTRA-LIGAND FREE ENERGY PREDICTED BY IDOCK:   -0.22 KCAL/MOL
REMARK 927      BINDING AFFINITY PREDICTED BY RF-SCORE:    0.00 PKD
ROOT
HETATM    1  O   UNL     1     -12.230  14.356  66.788  1.00  0.00    -0.420 OA 
HETATM    2  C   UNL     1     -11.261  13.420  66.839  1.00  0.00    -0.308 C  
HETATM    3  C   UNL     1     -11.365  12.495  67.995  1.00  0.00    -0.339 A  
HETATM    4  O   UNL     1     -10.388  13.317  65.995  1.00  0.00    -0.277 OA 
HETATM    5  C   UNL     1     -11.870  12.934  69.233  1.00  0.00    -0.363 A  
HETATM    6  C   UNL     1     -11.958  12.060  70.326  1.00  0.00    -0.398 A  
HETATM    7  C   UNL     1     -11.506  10.746  70.159  1.00  0.00    -0.331 A  
HETATM    8  N   UNL     1     -11.465   9.705  71.042  1.00  0.00    -0.339 NA 
HETATM    9  C   UNL     1     -10.935   8.717  70.344  1.00  0.00    -0.235 A  
HETATM   10  O   UNL     1     -10.620   9.038  69.046  1.00  0.00    -0.223 OA 
HETATM   11  C   UNL     1     -10.895  11.177  67.822  1.00  0.00    -0.288 A  
HETATM   12  C   UNL     1     -10.991  10.353  68.934  1.00  0.00    -0.245 A  
ENDROOT
BRANCH   9  13
HETATM   13  C   UNL     1     -10.677   7.352  70.792  1.00  0.00    -0.245 A  
HETATM   14  C   UNL     1     -10.349   6.382  69.829  1.00  0.00    -0.246 A  
HETATM   15  C   UNL     1     -10.065   5.071  70.205  1.00  0.00    -0.268 A  
HETATM   16 CL   UNL     1      -9.657   3.910  69.002  1.00  0.00    -0.239 Cl 
HETATM   17  C   UNL     1     -10.105   4.698  71.542  1.00  0.00    -0.255 A  
HETATM   18  C   UNL     1     -10.438   5.650  72.503  1.00  0.00    -0.213 A  
HETATM   19 CL   UNL     1     -10.487   5.196  74.162  1.00  0.00    -0.308 Cl 
HETATM   20  C   UNL     1     -10.724   6.970  72.139  1.00  0.00    -0.247 A  
ENDBRANCH   9  13
TORSDOF 1
ENDMDL
MODEL       73
REMARK 921   NORMALIZED FREE ENERGY PREDICTED BY IDOCK:   -5.49 KCAL/MOL
REMARK 922        TOTAL FREE ENERGY PREDICTED BY IDOCK:   -6.00 KCAL/MOL
REMARK 923 INTER-LIGAND FREE ENERGY PREDICTED BY IDOCK:   -5.80 KCAL/MOL
REMARK 924 INTRA-LIGAND FREE ENERGY PREDICTED BY IDOCK:   -0.20 KCAL/MOL
REMARK 927      BINDING AFFINITY PREDICTED BY RF-SCORE:    0.00 PKD
ROOT
HETATM    1  O   UNL     1      -9.619   6.784  72.589  1.00  0.00    -0.146 OA 
HETATM    2  C   UNL     1     -10.442   7.818  72.320  1.00  0.00    -0.246 C  
HETATM    3  C   UNL     1      -9.941   8.741  71.272  1.00  0.00    -0.333 A  
HETATM    4  O   UNL     1     -11.520   7.971  72.867  1.00  0.00    -0.411 OA 
HETATM    5  C   UNL     1      -8.563   8.987  71.118  1.00  0.00    -0.250 A  
HETATM    6  C   UNL     1      -8.094   9.868  70.134  1.00  0.00    -0.169 A  
HETATM    7  C   UNL     1      -9.035  10.514  69.323  1.00  0.00    -0.134 A  
HETATM    8  N   UNL     1      -8.862  11.413  68.311  1.00  0.00    -0.162 NA 
HETATM    9  C   UNL     1     -10.092  11.689  67.916  1.00  0.00    -0.187 A  
HETATM   10  O   UNL     1     -11.076  11.026  68.608  1.00  0.00    -0.201 OA 
HETATM   11  C   UNL     1     -10.896   9.398  70.469  1.00  0.00    -0.336 A  
HETATM   12  C   UNL     1     -10.385  10.269  69.517  1.00  0.00    -0.242 A  
ENDROOT
BRANCH   9  13
HETATM   13  C   UNL     1     -10.499  12.586  66.838  1.00  0.00    -0.244 A  
HETATM   14  C   UNL     1     -11.214  12.048  65.755  1.00  0.00    -0.383 A  
HETATM   15  C   UNL     1     -11.651  12.863  64.713  1.00  0.00    -0.331 A  
HETATM   16 CL   UNL     1     -12.533  12.175  63.406  1.00  0.00    -0.677 Cl 
HETATM   17  C   UNL     1     -11.384  14.227  64.727  1.00  0.00    -0.382 A  
HETATM   18  C   UNL     1     -10.668  14.768  65.793  1.00  0.00    -0.326 A  
HETATM   19 CL   UNL     1     -10.336  16.456  65.819  1.00  0.00    -0.386 Cl 
HETATM   20  C   UNL     1     -10.224  13.960  66.845  1.00  0.00    -0.257 A  
ENDBRANCH   9  13
TORSDOF 1
ENDMDL
MODEL       74
REMARK 921   NORMALIZED FREE ENERGY PREDICTED BY IDOCK:   -5.48 KCAL/MOL
REMARK 922        TOTAL FREE ENERGY PREDICTED BY IDOCK:   -5.99 KCAL/MOL
REMARK 923 INTER-LIGAND FREE ENERGY PREDICTED BY IDOCK:   -5.78 KCAL/MOL
REMARK 924 INTRA-LIGAND FREE ENERGY PREDICTED BY IDOCK:   -0.21 KCAL/MOL
REMARK 927      BINDING AFFINITY PREDICTED BY RF-SCORE:    0.00 PKD
ROOT
HETATM    1  O   UNL     1     -10.224   4.746  69.820  1.00  0.00    -0.246 OA 
HETATM    2  C   UNL     1     -10.009   5.795  70.642  1.00  0.00    -0.194 C  
HETATM    3  C   UNL     1     -10.254   7.119  70.019  1.00  0.00    -0.205 A  
HETATM    4  O   UNL     1      -9.672   5.670  71.806  1.00  0.00    -0.155 OA 
HETATM    5  C   UNL     1      -9.997   7.338  68.653  1.00  0.00    -0.169 A  
HETATM    6  C   UNL     1     -10.220   8.593  68.070  1.00  0.00    -0.261 A  
HETATM    7  C   UNL     1     -10.682   9.629  68.889  1.00  0.00    -0.206 A  
HETATM    8  N   UNL     1     -10.970  10.931  68.594  1.00  0.00    -0.208 NA 
HETATM    9  C   UNL     1     -11.353  11.443  69.750  1.00  0.00    -0.255 A  
HETATM   10  O   UNL     1     -11.338  10.557  70.800  1.00  0.00    -0.327 OA 
HETATM   11  C   UNL     1     -10.707   8.160  70.855  1.00  0.00    -0.246 A  
HETATM   12  C   UNL     1     -10.902   9.387  70.236  1.00  0.00    -0.258 A  
ENDROOT
BRANCH   9  13
HETATM   13  C   UNL     1     -11.797  12.808  70.013  1.00  0.00    -0.352 A  
HETATM   14  C   UNL     1     -11.364  13.830  69.152  1.00  0.00    -0.329 A  
HETATM   15  C   UNL     1     -11.781  15.146  69.341  1.00  0.00    -0.332 A  
HETATM   16 CL   UNL     1     -11.241  16.373  68.263  1.00  0.00    -0.343 Cl 
HETATM   17  C   UNL     1     -12.631  15.472  70.390  1.00  0.00    -0.421 A  
HETATM   18  C   UNL     1     -13.059  14.466  71.255  1.00  0.00    -0.351 A  
HETATM   19 CL   UNL     1     -14.115  14.861  72.555  1.00  0.00    -0.527 Cl 
HETATM   20  C   UNL     1     -12.648  13.141  71.075  1.00  0.00    -0.397 A  
ENDBRANCH   9  13
TORSDOF 1
ENDMDL
MODEL       75
REMARK 921   NORMALIZED FREE ENERGY PREDICTED BY IDOCK:   -5.44 KCAL/MOL
REMARK 922        TOTAL FREE ENERGY PREDICTED BY IDOCK:   -5.95 KCAL/MOL
REMARK 923 INTER-LIGAND FREE ENERGY PREDICTED BY IDOCK:   -5.73 KCAL/MOL
REMARK 924 INTRA-LIGAND FREE ENERGY PREDICTED BY IDOCK:   -0.22 KCAL/MOL
REMARK 927      BINDING AFFINITY PREDICTED BY RF-SCORE:    0.00 PKD
ROOT
HETATM    1  O   UNL     1      -7.991   7.763  64.247  1.00  0.00    -0.134 OA 
HETATM    2  C   UNL     1      -8.624   8.951  64.156  1.00  0.00    -0.106 C  
HETATM    3  C   UNL     1      -9.319   9.370  65.399  1.00  0.00    -0.311 A  
HETATM    4  O   UNL     1      -8.605   9.641  63.153  1.00  0.00    -0.176 OA 
HETATM    5  C   UNL     1      -9.900   8.420  66.261  1.00  0.00    -0.257 A  
HETATM    6  C   UNL     1     -10.565   8.820  67.428  1.00  0.00    -0.304 A  
HETATM    7  C   UNL     1     -10.656  10.189  67.701  1.00  0.00    -0.265 A  
HETATM    8  N   UNL     1     -11.245  10.848  68.742  1.00  0.00    -0.247 NA 
HETATM    9  C   UNL     1     -11.030  12.123  68.475  1.00  0.00    -0.238 A  
HETATM   10  O   UNL     1     -10.332  12.354  67.314  1.00  0.00    -0.214 OA 
HETATM   11  C   UNL     1      -9.418  10.752  65.658  1.00  0.00    -0.250 A  
HETATM   12  C   UNL     1     -10.095  11.099  66.819  1.00  0.00    -0.218 A  
ENDROOT
BRANCH   9  13
HETATM   13  C   UNL     1     -11.430  13.278  69.274  1.00  0.00    -0.345 A  
HETATM   14  C   UNL     1     -10.920  14.540  68.926  1.00  0.00    -0.268 A  
HETATM   15  C   UNL     1     -11.290  15.680  69.638  1.00  0.00    -0.329 A  
HETATM   16 CL   UNL     1     -10.656  17.212  69.181  1.00  0.00    -0.308 Cl 
HETATM   17  C   UNL     1     -12.171  15.586  70.708  1.00  0.00    -0.450 A  
HETATM   18  C   UNL     1     -12.675  14.337  71.065  1.00  0.00    -0.359 A  
HETATM   19 CL   UNL     1     -13.769  14.213  72.388  1.00  0.00    -0.599 Cl 
HETATM   20  C   UNL     1     -12.311  13.186  70.359  1.00  0.00    -0.351 A  
ENDBRANCH   9  13
TORSDOF 1
ENDMDL
MODEL       76
REMARK 921   NORMALIZED FREE ENERGY PREDICTED BY IDOCK:   -5.43 KCAL/MOL
REMARK 922        TOTAL FREE ENERGY PREDICTED BY IDOCK:   -5.94 KCAL/MOL
REMARK 923 INTER-LIGAND FREE ENERGY PREDICTED BY IDOCK:   -5.76 KCAL/MOL
REMARK 924 INTRA-LIGAND FREE ENERGY PREDICTED BY IDOCK:   -0.18 KCAL/MOL
REMARK 927      BINDING AFFINITY PREDICTED BY RF-SCORE:    0.00 PKD
ROOT
HETATM    1  O   UNL     1      -8.893   8.683  62.335  1.00  0.00    -0.169 OA 
HETATM    2  C   UNL     1      -8.314   9.426  63.301  1.00  0.00    -0.187 C  
HETATM    3  C   UNL     1      -9.164  10.528  63.817  1.00  0.00    -0.292 A  
HETATM    4  O   UNL     1      -7.200   9.198  63.738  1.00  0.00    -0.095 OA 
HETATM    5  C   UNL     1     -10.071  11.200  62.976  1.00  0.00    -0.311 A  
HETATM    6  C   UNL     1     -10.864  12.247  63.464  1.00  0.00    -0.508 A  
HETATM    7  C   UNL     1     -10.713  12.622  64.804  1.00  0.00    -0.308 A  
HETATM    8  N   UNL     1     -11.338  13.597  65.527  1.00  0.00    -0.296 NA 
HETATM    9  C   UNL     1     -10.794  13.502  66.727  1.00  0.00    -0.282 A  
HETATM   10  O   UNL     1      -9.841  12.519  66.846  1.00  0.00    -0.219 OA 
HETATM   11  C   UNL     1      -8.994  10.907  65.164  1.00  0.00    -0.195 A  
HETATM   12  C   UNL     1      -9.793  11.956  65.598  1.00  0.00    -0.241 A  
ENDROOT
BRANCH   9  13
HETATM   13  C   UNL     1     -11.107  14.298  67.910  1.00  0.00    -0.293 A  
HETATM   14  C   UNL     1     -10.601  15.606  67.989  1.00  0.00    -0.271 A  
HETATM   15  C   UNL     1     -10.892  16.418  69.083  1.00  0.00    -0.329 A  
HETATM   16 CL   UNL     1     -10.265  18.019  69.145  1.00  0.00    -0.278 Cl 
HETATM   17  C   UNL     1     -11.688  15.946  70.119  1.00  0.00    -0.342 A  
HETATM   18  C   UNL     1     -12.187  14.646  70.053  1.00  0.00    -0.333 A  
HETATM   19 CL   UNL     1     -13.176  14.055  71.331  1.00  0.00    -0.411 Cl 
HETATM   20  C   UNL     1     -11.902  13.821  68.961  1.00  0.00    -0.397 A  
ENDBRANCH   9  13
TORSDOF 1
ENDMDL
MODEL       77
REMARK 921   NORMALIZED FREE ENERGY PREDICTED BY IDOCK:   -5.37 KCAL/MOL
REMARK 922        TOTAL FREE ENERGY PREDICTED BY IDOCK:   -5.88 KCAL/MOL
REMARK 923 INTER-LIGAND FREE ENERGY PREDICTED BY IDOCK:   -5.68 KCAL/MOL
REMARK 924 INTRA-LIGAND FREE ENERGY PREDICTED BY IDOCK:   -0.20 KCAL/MOL
REMARK 927      BINDING AFFINITY PREDICTED BY RF-SCORE:    0.00 PKD
ROOT
HETATM    1  O   UNL     1      -8.739   8.281  62.546  1.00  0.00    -0.091 OA 
HETATM    2  C   UNL     1      -8.169   9.077  63.474  1.00  0.00    -0.178 C  
HETATM    3  C   UNL     1      -9.002  10.235  63.881  1.00  0.00    -0.259 A  
HETATM    4  O   UNL     1      -7.076   8.852  63.963  1.00  0.00    -0.093 OA 
HETATM    5  C   UNL     1      -9.863  10.868  62.964  1.00  0.00    -0.358 A  
HETATM    6  C   UNL     1     -10.641  11.969  63.349  1.00  0.00    -0.478 A  
HETATM    7  C   UNL     1     -10.521  12.436  64.662  1.00  0.00    -0.309 A  
HETATM    8  N   UNL     1     -11.140  13.478  65.292  1.00  0.00    -0.292 NA 
HETATM    9  C   UNL     1     -10.636  13.457  66.513  1.00  0.00    -0.287 A  
HETATM   10  O   UNL     1      -9.715  12.461  66.734  1.00  0.00    -0.212 OA 
HETATM   11  C   UNL     1      -8.864  10.708  65.202  1.00  0.00    -0.207 A  
HETATM   12  C   UNL     1      -9.645  11.806  65.533  1.00  0.00    -0.201 A  
ENDROOT
BRANCH   9  13
HETATM   13  C   UNL     1     -10.962  14.345  67.624  1.00  0.00    -0.294 A  
HETATM   14  C   UNL     1     -11.758  13.845  68.669  1.00  0.00    -0.396 A  
HETATM   15  C   UNL     1     -12.076  14.642  69.767  1.00  0.00    -0.324 A  
HETATM   16 CL   UNL     1     -13.044  13.996  71.034  1.00  0.00    -0.372 Cl 
HETATM   17  C   UNL     1     -11.613  15.950  69.846  1.00  0.00    -0.337 A  
HETATM   18  C   UNL     1     -10.831  16.456  68.810  1.00  0.00    -0.338 A  
HETATM   19 CL   UNL     1     -10.252  18.074  68.902  1.00  0.00    -0.372 Cl 
HETATM   20  C   UNL     1     -10.504  15.667  67.703  1.00  0.00    -0.283 A  
ENDBRANCH   9  13
TORSDOF 1
ENDMDL
MODEL       78
REMARK 921   NORMALIZED FREE ENERGY PREDICTED BY IDOCK:   -5.34 KCAL/MOL
REMARK 922        TOTAL FREE ENERGY PREDICTED BY IDOCK:   -5.85 KCAL/MOL
REMARK 923 INTER-LIGAND FREE ENERGY PREDICTED BY IDOCK:   -5.64 KCAL/MOL
REMARK 924 INTRA-LIGAND FREE ENERGY PREDICTED BY IDOCK:   -0.21 KCAL/MOL
REMARK 927      BINDING AFFINITY PREDICTED BY RF-SCORE:    0.00 PKD
ROOT
HETATM    1  O   UNL     1     -13.925  13.713  71.599  1.00  0.00    -0.276 OA 
HETATM    2  C   UNL     1     -12.732  13.209  71.222  1.00  0.00    -0.306 C  
HETATM    3  C   UNL     1     -12.659  11.727  71.246  1.00  0.00    -0.401 A  
HETATM    4  O   UNL     1     -11.798  13.904  70.863  1.00  0.00    -0.276 OA 
HETATM    5  C   UNL     1     -13.377  10.980  72.200  1.00  0.00    -0.285 A  
HETATM    6  C   UNL     1     -13.298   9.581  72.226  1.00  0.00    -0.526 A  
HETATM    7  C   UNL     1     -12.468   8.948  71.293  1.00  0.00    -0.272 A  
HETATM    8  N   UNL     1     -12.200   7.623  71.102  1.00  0.00    -0.306 NA 
HETATM    9  C   UNL     1     -11.346   7.613  70.095  1.00  0.00    -0.132 A  
HETATM   10  O   UNL     1     -11.028   8.856  69.603  1.00  0.00    -0.216 OA 
HETATM   11  C   UNL     1     -11.811  11.099  70.312  1.00  0.00    -0.455 A  
HETATM   12  C   UNL     1     -11.757   9.714  70.384  1.00  0.00    -0.202 A  
ENDROOT
BRANCH   9  13
HETATM   13  C   UNL     1     -10.738   6.450  69.457  1.00  0.00    -0.347 A  
HETATM   14  C   UNL     1     -10.345   5.371  70.267  1.00  0.00    -0.357 A  
HETATM   15  C   UNL     1      -9.785   4.225  69.707  1.00  0.00    -0.220 A  
HETATM   16 CL   UNL     1      -9.324   2.918  70.726  1.00  0.00    -0.211 Cl 
HETATM   17  C   UNL     1      -9.603   4.130  68.333  1.00  0.00    -0.190 A  
HETATM   18  C   UNL     1      -9.981   5.198  67.522  1.00  0.00    -0.174 A  
HETATM   19 CL   UNL     1      -9.761   5.086  65.819  1.00  0.00    -0.174 Cl 
HETATM   20  C   UNL     1     -10.544   6.354  68.072  1.00  0.00    -0.315 A  
ENDBRANCH   9  13
TORSDOF 1
ENDMDL
MODEL       79
REMARK 921   NORMALIZED FREE ENERGY PREDICTED BY IDOCK:   -5.34 KCAL/MOL
REMARK 922        TOTAL FREE ENERGY PREDICTED BY IDOCK:   -5.84 KCAL/MOL
REMARK 923 INTER-LIGAND FREE ENERGY PREDICTED BY IDOCK:   -5.63 KCAL/MOL
REMARK 924 INTRA-LIGAND FREE ENERGY PREDICTED BY IDOCK:   -0.21 KCAL/MOL
REMARK 927      BINDING AFFINITY PREDICTED BY RF-SCORE:    0.00 PKD
ROOT
HETATM    1  O   UNL     1      -9.241  11.707  62.648  1.00  0.00    -0.349 OA 
HETATM    2  C   UNL     1     -10.273  11.550  63.502  1.00  0.00    -0.420 C  
HETATM    3  C   UNL     1      -9.998  10.623  64.629  1.00  0.00    -0.401 A  
HETATM    4  O   UNL     1     -11.332  12.138  63.382  1.00  0.00    -0.424 OA 
HETATM    5  C   UNL     1      -9.153   9.510  64.463  1.00  0.00    -0.250 A  
HETATM    6  C   UNL     1      -8.904   8.630  65.526  1.00  0.00    -0.220 A  
HETATM    7  C   UNL     1      -9.538   8.877  66.750  1.00  0.00    -0.202 A  
HETATM    8  N   UNL     1      -9.484   8.191  67.929  1.00  0.00    -0.144 NA 
HETATM    9  C   UNL     1     -10.285   8.871  68.730  1.00  0.00    -0.206 A  
HETATM   10  O   UNL     1     -10.870   9.972  68.153  1.00  0.00    -0.241 OA 
HETATM   11  C   UNL     1     -10.651  10.872  65.853  1.00  0.00    -0.244 A  
HETATM   12  C   UNL     1     -10.383   9.969  66.872  1.00  0.00    -0.234 A  
ENDROOT
BRANCH   9  13
HETATM   13  C   UNL     1     -10.587   8.591  70.130  1.00  0.00    -0.238 A  
HETATM   14  C   UNL     1     -11.841   8.977  70.634  1.00  0.00    -0.193 A  
HETATM   15  C   UNL     1     -12.192   8.710  71.956  1.00  0.00    -0.373 A  
HETATM   16 CL   UNL     1     -13.739   9.186  72.539  1.00  0.00    -0.519 Cl 
HETATM   17  C   UNL     1     -11.303   8.058  72.802  1.00  0.00    -0.439 A  
HETATM   18  C   UNL     1     -10.054   7.679  72.313  1.00  0.00    -0.208 A  
HETATM   19 CL   UNL     1      -8.950   6.869  73.354  1.00  0.00    -0.148 Cl 
HETATM   20  C   UNL     1      -9.691   7.942  70.989  1.00  0.00    -0.178 A  
ENDBRANCH   9  13
TORSDOF 1
ENDMDL
MODEL       80
REMARK 921   NORMALIZED FREE ENERGY PREDICTED BY IDOCK:   -5.34 KCAL/MOL
REMARK 922        TOTAL FREE ENERGY PREDICTED BY IDOCK:   -5.84 KCAL/MOL
REMARK 923 INTER-LIGAND FREE ENERGY PREDICTED BY IDOCK:   -5.65 KCAL/MOL
REMARK 924 INTRA-LIGAND FREE ENERGY PREDICTED BY IDOCK:   -0.19 KCAL/MOL
REMARK 927      BINDING AFFINITY PREDICTED BY RF-SCORE:    0.00 PKD
ROOT
HETATM    1  O   UNL     1     -11.518  14.791  64.541  1.00  0.00    -0.377 OA 
HETATM    2  C   UNL     1     -12.265  13.924  65.254  1.00  0.00    -0.433 C  
HETATM    3  C   UNL     1     -11.484  12.869  65.947  1.00  0.00    -0.387 A  
HETATM    4  O   UNL     1     -13.477  14.011  65.350  1.00  0.00    -0.679 OA 
HETATM    5  C   UNL     1     -10.302  12.354  65.383  1.00  0.00    -0.303 A  
HETATM    6  C   UNL     1      -9.571  11.350  66.035  1.00  0.00    -0.247 A  
HETATM    7  C   UNL     1     -10.062  10.859  67.250  1.00  0.00    -0.191 A  
HETATM    8  N   UNL     1      -9.569   9.893  68.079  1.00  0.00    -0.138 NA 
HETATM    9  C   UNL     1     -10.445   9.842  69.066  1.00  0.00    -0.210 A  
HETATM   10  O   UNL     1     -11.497  10.718  68.943  1.00  0.00    -0.262 OA 
HETATM   11  C   UNL     1     -11.994  12.371  67.163  1.00  0.00    -0.248 A  
HETATM   12  C   UNL     1     -11.243  11.371  67.765  1.00  0.00    -0.283 A  
ENDROOT
BRANCH   9  13
HETATM   13  C   UNL     1     -10.402   8.989  70.250  1.00  0.00    -0.243 A  
HETATM   14  C   UNL     1      -9.327   9.136  71.142  1.00  0.00    -0.313 A  
HETATM   15  C   UNL     1      -9.251   8.367  72.301  1.00  0.00    -0.259 A  
HETATM   16 CL   UNL     1      -7.926   8.579  73.378  1.00  0.00    -0.136 Cl 
HETATM   17  C   UNL     1     -10.239   7.435  72.594  1.00  0.00    -0.274 A  
HETATM   18  C   UNL     1     -11.305   7.276  71.710  1.00  0.00    -0.253 A  
HETATM   19 CL   UNL     1     -12.534   6.126  72.067  1.00  0.00    -0.186 Cl 
HETATM   20  C   UNL     1     -11.393   8.042  70.544  1.00  0.00    -0.229 A  
ENDBRANCH   9  13
TORSDOF 1
ENDMDL
MODEL       81
REMARK 921   NORMALIZED FREE ENERGY PREDICTED BY IDOCK:   -5.34 KCAL/MOL
REMARK 922        TOTAL FREE ENERGY PREDICTED BY IDOCK:   -5.84 KCAL/MOL
REMARK 923 INTER-LIGAND FREE ENERGY PREDICTED BY IDOCK:   -5.63 KCAL/MOL
REMARK 924 INTRA-LIGAND FREE ENERGY PREDICTED BY IDOCK:   -0.21 KCAL/MOL
REMARK 927      BINDING AFFINITY PREDICTED BY RF-SCORE:    0.00 PKD
ROOT
HETATM    1  O   UNL     1     -10.091  19.277  66.253  1.00  0.00    -0.382 OA 
HETATM    2  C   UNL     1      -9.284  18.203  66.371  1.00  0.00    -0.255 C  
HETATM    3  C   UNL     1      -9.862  17.087  67.160  1.00  0.00    -0.269 A  
HETATM    4  O   UNL     1      -8.184  18.136  65.850  1.00  0.00    -0.513 OA 
HETATM    5  C   UNL     1     -10.728  17.335  68.241  1.00  0.00    -0.349 A  
HETATM    6  C   UNL     1     -11.264  16.279  68.991  1.00  0.00    -0.326 A  
HETATM    7  C   UNL     1     -10.897  14.973  68.649  1.00  0.00    -0.249 A  
HETATM    8  N   UNL     1     -11.255  13.778  69.205  1.00  0.00    -0.255 NA 
HETATM    9  C   UNL     1     -10.601  12.884  68.485  1.00  0.00    -0.253 A  
HETATM   10  O   UNL     1      -9.828  13.413  67.481  1.00  0.00    -0.219 OA 
HETATM   11  C   UNL     1      -9.476  15.775  66.817  1.00  0.00    -0.259 A  
HETATM   12  C   UNL     1     -10.023  14.764  67.594  1.00  0.00    -0.226 A  
ENDROOT
BRANCH   9  13
HETATM   13  C   UNL     1     -10.632  11.432  68.631  1.00  0.00    -0.229 A  
HETATM   14  C   UNL     1     -11.056  10.891  69.857  1.00  0.00    -0.311 A  
HETATM   15  C   UNL     1     -11.131   9.512  70.041  1.00  0.00    -0.237 A  
HETATM   16 CL   UNL     1     -11.663   8.883  71.551  1.00  0.00    -0.369 Cl 
HETATM   17  C   UNL     1     -10.783   8.645  69.013  1.00  0.00    -0.122 A  
HETATM   18  C   UNL     1     -10.354   9.172  67.797  1.00  0.00    -0.245 A  
HETATM   19 CL   UNL     1      -9.925   8.104  66.517  1.00  0.00    -0.325 Cl 
HETATM   20  C   UNL     1     -10.275  10.554  67.599  1.00  0.00    -0.234 A  
ENDBRANCH   9  13
TORSDOF 1
ENDMDL
MODEL       82
REMARK 921   NORMALIZED FREE ENERGY PREDICTED BY IDOCK:   -5.34 KCAL/MOL
REMARK 922        TOTAL FREE ENERGY PREDICTED BY IDOCK:   -5.84 KCAL/MOL
REMARK 923 INTER-LIGAND FREE ENERGY PREDICTED BY IDOCK:   -5.62 KCAL/MOL
REMARK 924 INTRA-LIGAND FREE ENERGY PREDICTED BY IDOCK:   -0.22 KCAL/MOL
REMARK 927      BINDING AFFINITY PREDICTED BY RF-SCORE:    0.00 PKD
ROOT
HETATM    1  O   UNL     1      -9.258   4.175  67.629  1.00  0.00    -0.130 OA 
HETATM    2  C   UNL     1     -10.137   5.038  67.080  1.00  0.00    -0.214 C  
HETATM    3  C   UNL     1     -10.280   6.317  67.818  1.00  0.00    -0.206 A  
HETATM    4  O   UNL     1     -10.743   4.805  66.049  1.00  0.00    -0.319 OA 
HETATM    5  C   UNL     1     -10.156   6.365  69.219  1.00  0.00    -0.203 A  
HETATM    6  C   UNL     1     -10.302   7.574  69.914  1.00  0.00    -0.224 A  
HETATM    7  C   UNL     1     -10.598   8.727  69.179  1.00  0.00    -0.184 A  
HETATM    8  N   UNL     1     -10.800  10.013  69.592  1.00  0.00    -0.244 NA 
HETATM    9  C   UNL     1     -11.052  10.670  68.474  1.00  0.00    -0.263 A  
HETATM   10  O   UNL     1     -11.031   9.897  67.339  1.00  0.00    -0.269 OA 
HETATM   11  C   UNL     1     -10.592   7.471  67.070  1.00  0.00    -0.409 A  
HETATM   12  C   UNL     1     -10.738   8.641  67.803  1.00  0.00    -0.110 A  
ENDROOT
BRANCH   9  13
HETATM   13  C   UNL     1     -11.324  12.097  68.324  1.00  0.00    -0.343 A  
HETATM   14  C   UNL     1     -11.367  12.637  67.028  1.00  0.00    -0.377 A  
HETATM   15  C   UNL     1     -11.650  13.986  66.826  1.00  0.00    -0.386 A  
HETATM   16 CL   UNL     1     -11.706  14.614  65.226  1.00  0.00    -0.356 Cl 
HETATM   17  C   UNL     1     -11.891  14.824  67.908  1.00  0.00    -0.327 A  
HETATM   18  C   UNL     1     -11.841  14.299  69.198  1.00  0.00    -0.330 A  
HETATM   19 CL   UNL     1     -12.141  15.330  70.543  1.00  0.00    -0.359 Cl 
HETATM   20  C   UNL     1     -11.559  12.947  69.413  1.00  0.00    -0.363 A  
ENDBRANCH   9  13
TORSDOF 1
ENDMDL
MODEL       83
REMARK 921   NORMALIZED FREE ENERGY PREDICTED BY IDOCK:   -5.33 KCAL/MOL
REMARK 922        TOTAL FREE ENERGY PREDICTED BY IDOCK:   -5.84 KCAL/MOL
REMARK 923 INTER-LIGAND FREE ENERGY PREDICTED BY IDOCK:   -5.65 KCAL/MOL
REMARK 924 INTRA-LIGAND FREE ENERGY PREDICTED BY IDOCK:   -0.18 KCAL/MOL
REMARK 927      BINDING AFFINITY PREDICTED BY RF-SCORE:    0.00 PKD
ROOT
HETATM    1  O   UNL     1     -11.198  17.017  64.263  1.00  0.00    -1.186 OA 
HETATM    2  C   UNL     1     -10.799  16.242  65.292  1.00  0.00    -0.297 C  
HETATM    3  C   UNL     1     -10.895  14.784  65.032  1.00  0.00    -0.440 A  
HETATM    4  O   UNL     1     -10.367  16.694  66.338  1.00  0.00    -0.303 OA 
HETATM    5  C   UNL     1     -11.914  14.258  64.217  1.00  0.00    -0.449 A  
HETATM    6  C   UNL     1     -12.009  12.879  63.982  1.00  0.00    -0.521 A  
HETATM    7  C   UNL     1     -11.075  12.038  64.600  1.00  0.00    -0.322 A  
HETATM    8  N   UNL     1     -10.941  10.680  64.555  1.00  0.00     0.198 NA 
HETATM    9  C   UNL     1      -9.901  10.437  65.332  1.00  0.00    -0.283 A  
HETATM   10  O   UNL     1      -9.334  11.556  65.894  1.00  0.00    -0.221 OA 
HETATM   11  C   UNL     1      -9.959  13.944  65.670  1.00  0.00    -0.298 A  
HETATM   12  C   UNL     1     -10.100  12.587  65.417  1.00  0.00    -0.267 A  
ENDROOT
BRANCH   9  13
HETATM   13  C   UNL     1      -9.298   9.142  65.631  1.00  0.00    -0.300 A  
HETATM   14  C   UNL     1      -8.304   8.652  64.767  1.00  0.00    -0.167 A  
HETATM   15  C   UNL     1      -7.676   7.434  65.021  1.00  0.00    -0.114 A  
HETATM   16 CL   UNL     1      -6.455   6.867  63.950  1.00  0.00    -0.042 Cl 
HETATM   17  C   UNL     1      -8.026   6.679  66.134  1.00  0.00    -0.110 A  
HETATM   18  C   UNL     1      -9.018   7.154  66.991  1.00  0.00    -0.129 A  
HETATM   19 CL   UNL     1      -9.455   6.226  68.373  1.00  0.00    -0.119 Cl 
HETATM   20  C   UNL     1      -9.655   8.374  66.748  1.00  0.00    -0.283 A  
ENDBRANCH   9  13
TORSDOF 1
ENDMDL
MODEL       84
REMARK 921   NORMALIZED FREE ENERGY PREDICTED BY IDOCK:   -5.32 KCAL/MOL
REMARK 922        TOTAL FREE ENERGY PREDICTED BY IDOCK:   -5.82 KCAL/MOL
REMARK 923 INTER-LIGAND FREE ENERGY PREDICTED BY IDOCK:   -5.61 KCAL/MOL
REMARK 924 INTRA-LIGAND FREE ENERGY PREDICTED BY IDOCK:   -0.22 KCAL/MOL
REMARK 927      BINDING AFFINITY PREDICTED BY RF-SCORE:    0.00 PKD
ROOT
HETATM    1  O   UNL     1      -9.970   3.889  69.908  1.00  0.00    -0.151 OA 
HETATM    2  C   UNL     1      -9.682   5.148  70.297  1.00  0.00    -0.203 C  
HETATM    3  C   UNL     1      -9.917   6.179  69.256  1.00  0.00    -0.196 A  
HETATM    4  O   UNL     1      -9.291   5.426  71.417  1.00  0.00    -0.144 OA 
HETATM    5  C   UNL     1      -9.722   5.891  67.892  1.00  0.00    -0.128 A  
HETATM    6  C   UNL     1      -9.934   6.871  66.912  1.00  0.00    -0.264 A  
HETATM    7  C   UNL     1     -10.322   8.149  67.328  1.00  0.00    -0.303 A  
HETATM    8  N   UNL     1     -10.583   9.276  66.603  1.00  0.00    -0.153 NA 
HETATM    9  C   UNL     1     -10.892  10.179  67.516  1.00  0.00    -0.290 A  
HETATM   10  O   UNL     1     -10.852   9.719  68.811  1.00  0.00    -0.220 OA 
HETATM   11  C   UNL     1     -10.294   7.468  69.686  1.00  0.00    -0.225 A  
HETATM   12  C   UNL     1     -10.481   8.406  68.681  1.00  0.00    -0.166 A  
ENDROOT
BRANCH   9  13
HETATM   13  C   UNL     1     -11.280  11.569  67.296  1.00  0.00    -0.365 A  
HETATM   14  C   UNL     1     -11.483  12.005  65.976  1.00  0.00    -0.399 A  
HETATM   15  C   UNL     1     -11.881  13.314  65.711  1.00  0.00    -0.387 A  
HETATM   16 CL   UNL     1     -12.132  13.815  64.084  1.00  0.00    -0.489 Cl 
HETATM   17  C   UNL     1     -12.081  14.214  66.751  1.00  0.00    -0.474 A  
HETATM   18  C   UNL     1     -11.873  13.791  68.063  1.00  0.00    -0.373 A  
HETATM   19 CL   UNL     1     -12.121  14.899  69.357  1.00  0.00    -0.321 Cl 
HETATM   20  C   UNL     1     -11.474  12.481  68.342  1.00  0.00    -0.355 A  
ENDBRANCH   9  13
TORSDOF 1
ENDMDL
MODEL       85
REMARK 921   NORMALIZED FREE ENERGY PREDICTED BY IDOCK:   -5.31 KCAL/MOL
REMARK 922        TOTAL FREE ENERGY PREDICTED BY IDOCK:   -5.82 KCAL/MOL
REMARK 923 INTER-LIGAND FREE ENERGY PREDICTED BY IDOCK:   -5.60 KCAL/MOL
REMARK 924 INTRA-LIGAND FREE ENERGY PREDICTED BY IDOCK:   -0.22 KCAL/MOL
REMARK 927      BINDING AFFINITY PREDICTED BY RF-SCORE:    0.00 PKD
ROOT
HETATM    1  O   UNL     1      -9.968   3.895  69.913  1.00  0.00    -0.151 OA 
HETATM    2  C   UNL     1      -9.695   5.145  70.340  1.00  0.00    -0.202 C  
HETATM    3  C   UNL     1      -9.924   6.202  69.323  1.00  0.00    -0.196 A  
HETATM    4  O   UNL     1      -9.322   5.395  71.472  1.00  0.00    -0.145 OA 
HETATM    5  C   UNL     1      -9.709   5.952  67.955  1.00  0.00    -0.132 A  
HETATM    6  C   UNL     1      -9.916   6.956  66.998  1.00  0.00    -0.257 A  
HETATM    7  C   UNL     1     -10.321   8.219  67.444  1.00  0.00    -0.280 A  
HETATM    8  N   UNL     1     -10.582   9.363  66.745  1.00  0.00    -0.187 NA 
HETATM    9  C   UNL     1     -10.911  10.238  67.678  1.00  0.00    -0.307 A  
HETATM   10  O   UNL     1     -10.884   9.745  68.960  1.00  0.00    -0.219 OA 
HETATM   11  C   UNL     1     -10.319   7.475  69.783  1.00  0.00    -0.221 A  
HETATM   12  C   UNL     1     -10.500   8.439  68.800  1.00  0.00    -0.178 A  
ENDROOT
BRANCH   9  13
HETATM   13  C   UNL     1     -11.307  11.630  67.490  1.00  0.00    -0.364 A  
HETATM   14  C   UNL     1     -11.415  12.454  68.623  1.00  0.00    -0.348 A  
HETATM   15  C   UNL     1     -11.763  13.798  68.497  1.00  0.00    -0.356 A  
HETATM   16 CL   UNL     1     -11.876  14.782  69.904  1.00  0.00    -0.338 Cl 
HETATM   17  C   UNL     1     -12.013  14.346  67.246  1.00  0.00    -0.409 A  
HETATM   18  C   UNL     1     -11.917  13.534  66.117  1.00  0.00    -0.412 A  
HETATM   19 CL   UNL     1     -12.223  14.207  64.563  1.00  0.00    -0.469 Cl 
HETATM   20  C   UNL     1     -11.569  12.185  66.230  1.00  0.00    -0.424 A  
ENDBRANCH   9  13
TORSDOF 1
ENDMDL
MODEL       86
REMARK 921   NORMALIZED FREE ENERGY PREDICTED BY IDOCK:   -5.28 KCAL/MOL
REMARK 922        TOTAL FREE ENERGY PREDICTED BY IDOCK:   -5.79 KCAL/MOL
REMARK 923 INTER-LIGAND FREE ENERGY PREDICTED BY IDOCK:   -5.57 KCAL/MOL
REMARK 924 INTRA-LIGAND FREE ENERGY PREDICTED BY IDOCK:   -0.22 KCAL/MOL
REMARK 927      BINDING AFFINITY PREDICTED BY RF-SCORE:    0.00 PKD
ROOT
HETATM    1  O   UNL     1      -9.316   4.106  67.736  1.00  0.00    -0.144 OA 
HETATM    2  C   UNL     1     -10.068   5.109  67.239  1.00  0.00    -0.194 C  
HETATM    3  C   UNL     1     -10.406   6.167  68.224  1.00  0.00    -0.239 A  
HETATM    4  O   UNL     1     -10.419   5.164  66.073  1.00  0.00    -0.231 OA 
HETATM    5  C   UNL     1     -10.603   5.857  69.583  1.00  0.00    -0.383 A  
HETATM    6  C   UNL     1     -10.932   6.857  70.509  1.00  0.00    -0.313 A  
HETATM    7  C   UNL     1     -11.082   8.167  70.041  1.00  0.00    -0.146 A  
HETATM    8  N   UNL     1     -11.403   9.315  70.708  1.00  0.00    -0.271 NA 
HETATM    9  C   UNL     1     -11.412  10.240  69.765  1.00  0.00    -0.256 A  
HETATM   10  O   UNL     1     -11.116   9.775  68.506  1.00  0.00    -0.184 OA 
HETATM   11  C   UNL     1     -10.568   7.481  67.741  1.00  0.00    -0.274 A  
HETATM   12  C   UNL     1     -10.905   8.434  68.692  1.00  0.00     0.073 A  
ENDROOT
BRANCH   9  13
HETATM   13  C   UNL     1     -11.677  11.666  69.922  1.00  0.00    -0.414 A  
HETATM   14  C   UNL     1     -11.307  12.534  68.880  1.00  0.00    -0.346 A  
HETATM   15  C   UNL     1     -11.563  13.901  68.967  1.00  0.00    -0.310 A  
HETATM   16 CL   UNL     1     -11.107  14.936  67.670  1.00  0.00    -0.301 Cl 
HETATM   17  C   UNL     1     -12.186  14.432  70.090  1.00  0.00    -0.401 A  
HETATM   18  C   UNL     1     -12.547  13.580  71.131  1.00  0.00    -0.355 A  
HETATM   19 CL   UNL     1     -13.322  14.229  72.524  1.00  0.00    -0.547 Cl 
HETATM   20  C   UNL     1     -12.297  12.206  71.056  1.00  0.00    -0.331 A  
ENDBRANCH   9  13
TORSDOF 1
ENDMDL
MODEL       87
REMARK 921   NORMALIZED FREE ENERGY PREDICTED BY IDOCK:   -5.25 KCAL/MOL
REMARK 922        TOTAL FREE ENERGY PREDICTED BY IDOCK:   -5.75 KCAL/MOL
REMARK 923 INTER-LIGAND FREE ENERGY PREDICTED BY IDOCK:   -5.55 KCAL/MOL
REMARK 924 INTRA-LIGAND FREE ENERGY PREDICTED BY IDOCK:   -0.20 KCAL/MOL
REMARK 927      BINDING AFFINITY PREDICTED BY RF-SCORE:    0.00 PKD
ROOT
HETATM    1  O   UNL     1      -8.699  20.516  66.750  1.00  0.00    -0.236 OA 
HETATM    2  C   UNL     1      -9.568  19.581  66.314  1.00  0.00    -0.392 C  
HETATM    3  C   UNL     1      -9.196  18.189  66.667  1.00  0.00    -0.295 A  
HETATM    4  O   UNL     1     -10.590  19.853  65.708  1.00  0.00    -0.507 OA 
HETATM    5  C   UNL     1      -7.847  17.795  66.744  1.00  0.00    -0.262 A  
HETATM    6  C   UNL     1      -7.499  16.476  67.067  1.00  0.00    -0.239 A  
HETATM    7  C   UNL     1      -8.531  15.556  67.289  1.00  0.00    -0.193 A  
HETATM    8  N   UNL     1      -8.481  14.228  67.603  1.00  0.00    -0.167 NA 
HETATM    9  C   UNL     1      -9.750  13.871  67.681  1.00  0.00    -0.226 A  
HETATM   10  O   UNL     1     -10.645  14.885  67.435  1.00  0.00    -0.256 OA 
HETATM   11  C   UNL     1     -10.242  17.266  66.875  1.00  0.00    -0.322 A  
HETATM   12  C   UNL     1      -9.849  15.971  67.181  1.00  0.00    -0.236 A  
ENDROOT
BRANCH   9  13
HETATM   13  C   UNL     1     -10.284  12.553  68.011  1.00  0.00    -0.225 A  
HETATM   14  C   UNL     1     -11.055  12.417  69.178  1.00  0.00    -0.260 A  
HETATM   15  C   UNL     1     -11.611  11.188  69.526  1.00  0.00    -0.321 A  
HETATM   16 CL   UNL     1     -12.558  11.056  70.956  1.00  0.00    -0.485 Cl 
HETATM   17  C   UNL     1     -11.410  10.072  68.722  1.00  0.00    -0.117 A  
HETATM   18  C   UNL     1     -10.640  10.196  67.568  1.00  0.00    -0.273 A  
HETATM   19 CL   UNL     1     -10.390   8.819  66.567  1.00  0.00    -0.320 Cl 
HETATM   20  C   UNL     1     -10.077  11.424  67.208  1.00  0.00    -0.218 A  
ENDBRANCH   9  13
TORSDOF 1
ENDMDL
MODEL       88
REMARK 921   NORMALIZED FREE ENERGY PREDICTED BY IDOCK:   -5.23 KCAL/MOL
REMARK 922        TOTAL FREE ENERGY PREDICTED BY IDOCK:   -5.72 KCAL/MOL
REMARK 923 INTER-LIGAND FREE ENERGY PREDICTED BY IDOCK:   -5.51 KCAL/MOL
REMARK 924 INTRA-LIGAND FREE ENERGY PREDICTED BY IDOCK:   -0.21 KCAL/MOL
REMARK 927      BINDING AFFINITY PREDICTED BY RF-SCORE:    0.00 PKD
ROOT
HETATM    1  O   UNL     1      -9.605   4.316  67.895  1.00  0.00    -0.162 OA 
HETATM    2  C   UNL     1     -10.322   5.239  67.221  1.00  0.00    -0.199 C  
HETATM    3  C   UNL     1     -10.462   6.538  67.926  1.00  0.00    -0.273 A  
HETATM    4  O   UNL     1     -10.792   5.041  66.115  1.00  0.00    -0.294 OA 
HETATM    5  C   UNL     1     -10.535   6.597  69.331  1.00  0.00    -0.254 A  
HETATM    6  C   UNL     1     -10.678   7.825  69.993  1.00  0.00    -0.245 A  
HETATM    7  C   UNL     1     -10.770   8.987  69.218  1.00  0.00    -0.174 A  
HETATM    8  N   UNL     1     -10.921  10.291  69.593  1.00  0.00    -0.252 NA 
HETATM    9  C   UNL     1     -10.956  10.949  68.448  1.00  0.00    -0.237 A  
HETATM   10  O   UNL     1     -10.838  10.158  67.330  1.00  0.00    -0.278 OA 
HETATM   11  C   UNL     1     -10.567   7.701  67.137  1.00  0.00    -0.410 A  
HETATM   12  C   UNL     1     -10.719   8.891  67.837  1.00  0.00    -0.121 A  
ENDROOT
BRANCH   9  13
HETATM   13  C   UNL     1     -11.084  12.390  68.255  1.00  0.00    -0.283 A  
HETATM   14  C   UNL     1     -11.525  13.173  69.335  1.00  0.00    -0.321 A  
HETATM   15  C   UNL     1     -11.639  14.556  69.214  1.00  0.00    -0.302 A  
HETATM   16 CL   UNL     1     -12.172  15.487  70.559  1.00  0.00    -0.409 Cl 
HETATM   17  C   UNL     1     -11.320  15.187  68.018  1.00  0.00    -0.346 A  
HETATM   18  C   UNL     1     -10.891  14.417  66.939  1.00  0.00    -0.301 A  
HETATM   19 CL   UNL     1     -10.491  15.191  65.454  1.00  0.00    -0.379 Cl 
HETATM   20  C   UNL     1     -10.772  13.028  67.048  1.00  0.00    -0.270 A  
ENDBRANCH   9  13
TORSDOF 1
ENDMDL
MODEL       89
REMARK 921   NORMALIZED FREE ENERGY PREDICTED BY IDOCK:   -5.22 KCAL/MOL
REMARK 922        TOTAL FREE ENERGY PREDICTED BY IDOCK:   -5.72 KCAL/MOL
REMARK 923 INTER-LIGAND FREE ENERGY PREDICTED BY IDOCK:   -5.51 KCAL/MOL
REMARK 924 INTRA-LIGAND FREE ENERGY PREDICTED BY IDOCK:   -0.21 KCAL/MOL
REMARK 927      BINDING AFFINITY PREDICTED BY RF-SCORE:    0.00 PKD
ROOT
HETATM    1  O   UNL     1      -9.104  11.784  62.674  1.00  0.00    -0.273 OA 
HETATM    2  C   UNL     1     -10.162  11.659  63.502  1.00  0.00    -0.436 C  
HETATM    3  C   UNL     1      -9.948  10.719  64.630  1.00  0.00    -0.386 A  
HETATM    4  O   UNL     1     -11.197  12.285  63.358  1.00  0.00    -0.438 OA 
HETATM    5  C   UNL     1      -9.139   9.577  64.480  1.00  0.00    -0.250 A  
HETATM    6  C   UNL     1      -8.947   8.685  65.544  1.00  0.00    -0.209 A  
HETATM    7  C   UNL     1      -9.602   8.948  66.753  1.00  0.00    -0.202 A  
HETATM    8  N   UNL     1      -9.602   8.255  67.929  1.00  0.00    -0.149 NA 
HETATM    9  C   UNL     1     -10.399   8.959  68.713  1.00  0.00    -0.211 A  
HETATM   10  O   UNL     1     -10.931  10.083  68.127  1.00  0.00    -0.255 OA 
HETATM   11  C   UNL     1     -10.623  10.985  65.839  1.00  0.00    -0.270 A  
HETATM   12  C   UNL     1     -10.412  10.068  66.859  1.00  0.00    -0.218 A  
ENDROOT
BRANCH   9  13
HETATM   13  C   UNL     1     -10.746   8.685  70.104  1.00  0.00    -0.244 A  
HETATM   14  C   UNL     1      -9.775   8.095  70.932  1.00  0.00    -0.191 A  
HETATM   15  C   UNL     1     -10.044   7.837  72.274  1.00  0.00    -0.220 A  
HETATM   16 CL   UNL     1      -8.830   7.123  73.263  1.00  0.00    -0.157 Cl 
HETATM   17  C   UNL     1     -11.282   8.156  72.818  1.00  0.00    -0.407 A  
HETATM   18  C   UNL     1     -12.253   8.733  72.003  1.00  0.00    -0.377 A  
HETATM   19 CL   UNL     1     -13.788   9.134  72.670  1.00  0.00    -0.481 Cl 
HETATM   20  C   UNL     1     -11.996   8.997  70.654  1.00  0.00    -0.138 A  
ENDBRANCH   9  13
TORSDOF 1
ENDMDL
MODEL       90
REMARK 921   NORMALIZED FREE ENERGY PREDICTED BY IDOCK:   -5.20 KCAL/MOL
REMARK 922        TOTAL FREE ENERGY PREDICTED BY IDOCK:   -5.70 KCAL/MOL
REMARK 923 INTER-LIGAND FREE ENERGY PREDICTED BY IDOCK:   -5.48 KCAL/MOL
REMARK 924 INTRA-LIGAND FREE ENERGY PREDICTED BY IDOCK:   -0.21 KCAL/MOL
REMARK 927      BINDING AFFINITY PREDICTED BY RF-SCORE:    0.00 PKD
ROOT
HETATM    1  O   UNL     1      -7.934   7.217  64.722  1.00  0.00    -0.121 OA 
HETATM    2  C   UNL     1      -8.525   8.408  64.492  1.00  0.00    -0.060 C  
HETATM    3  C   UNL     1      -9.243   8.970  65.663  1.00  0.00    -0.288 A  
HETATM    4  O   UNL     1      -8.453   8.993  63.426  1.00  0.00    -0.193 OA 
HETATM    5  C   UNL     1      -9.881   8.130  66.595  1.00  0.00    -0.331 A  
HETATM    6  C   UNL     1     -10.568   8.664  67.694  1.00  0.00    -0.272 A  
HETATM    7  C   UNL     1     -10.622  10.057  67.826  1.00  0.00    -0.261 A  
HETATM    8  N   UNL     1     -11.220  10.833  68.776  1.00  0.00    -0.251 NA 
HETATM    9  C   UNL     1     -10.956  12.069  68.390  1.00  0.00    -0.237 A  
HETATM   10  O   UNL     1     -10.216  12.161  67.236  1.00  0.00    -0.201 OA 
HETATM   11  C   UNL     1      -9.305  10.374  65.780  1.00  0.00    -0.230 A  
HETATM   12  C   UNL     1     -10.005  10.856  66.877  1.00  0.00    -0.194 A  
ENDROOT
BRANCH   9  13
HETATM   13  C   UNL     1     -11.342  13.309  69.056  1.00  0.00    -0.334 A  
HETATM   14  C   UNL     1     -12.302  13.248  70.080  1.00  0.00    -0.306 A  
HETATM   15  C   UNL     1     -12.686  14.398  70.767  1.00  0.00    -0.360 A  
HETATM   16 CL   UNL     1     -13.856  14.288  72.024  1.00  0.00    -0.514 Cl 
HETATM   17  C   UNL     1     -12.126  15.629  70.448  1.00  0.00    -0.425 A  
HETATM   18  C   UNL     1     -11.180  15.700  69.427  1.00  0.00    -0.313 A  
HETATM   19 CL   UNL     1     -10.481  17.221  69.028  1.00  0.00    -0.336 Cl 
HETATM   20  C   UNL     1     -10.786  14.554  68.731  1.00  0.00    -0.256 A  
ENDBRANCH   9  13
TORSDOF 1
ENDMDL
MODEL       91
REMARK 921   NORMALIZED FREE ENERGY PREDICTED BY IDOCK:   -5.19 KCAL/MOL
REMARK 922        TOTAL FREE ENERGY PREDICTED BY IDOCK:   -5.69 KCAL/MOL
REMARK 923 INTER-LIGAND FREE ENERGY PREDICTED BY IDOCK:   -5.48 KCAL/MOL
REMARK 924 INTRA-LIGAND FREE ENERGY PREDICTED BY IDOCK:   -0.21 KCAL/MOL
REMARK 927      BINDING AFFINITY PREDICTED BY RF-SCORE:    0.00 PKD
ROOT
HETATM    1  O   UNL     1     -12.067  14.735  67.742  1.00  0.00    -0.288 OA 
HETATM    2  C   UNL     1     -11.020  13.919  67.985  1.00  0.00    -0.251 C  
HETATM    3  C   UNL     1     -11.316  12.809  68.924  1.00  0.00    -0.344 A  
HETATM    4  O   UNL     1      -9.931  14.058  67.458  1.00  0.00    -0.232 OA 
HETATM    5  C   UNL     1     -12.233  12.975  69.980  1.00  0.00    -0.306 A  
HETATM    6  C   UNL     1     -12.502  11.928  70.872  1.00  0.00    -0.397 A  
HETATM    7  C   UNL     1     -11.817  10.720  70.698  1.00  0.00    -0.360 A  
HETATM    8  N   UNL     1     -11.876   9.558  71.413  1.00  0.00    -0.361 NA 
HETATM    9  C   UNL     1     -11.011   8.766  70.805  1.00  0.00    -0.247 A  
HETATM   10  O   UNL     1     -10.377   9.333  69.726  1.00  0.00    -0.198 OA 
HETATM   11  C   UNL     1     -10.612  11.600  68.750  1.00  0.00    -0.241 A  
HETATM   12  C   UNL     1     -10.903  10.597  69.664  1.00  0.00    -0.268 A  
ENDROOT
BRANCH   9  13
HETATM   13  C   UNL     1     -10.683   7.384  71.141  1.00  0.00    -0.246 A  
HETATM   14  C   UNL     1     -10.768   6.984  72.486  1.00  0.00    -0.273 A  
HETATM   15  C   UNL     1     -10.493   5.670  72.858  1.00  0.00    -0.214 A  
HETATM   16 CL   UNL     1     -10.616   5.210  74.511  1.00  0.00    -0.252 Cl 
HETATM   17  C   UNL     1     -10.126   4.730  71.903  1.00  0.00    -0.264 A  
HETATM   18  C   UNL     1     -10.031   5.119  70.569  1.00  0.00    -0.234 A  
HETATM   19 CL   UNL     1      -9.580   3.960  69.380  1.00  0.00    -0.260 Cl 
HETATM   20  C   UNL     1     -10.305   6.435  70.182  1.00  0.00    -0.245 A  
ENDBRANCH   9  13
TORSDOF 1
ENDMDL
MODEL       92
REMARK 921   NORMALIZED FREE ENERGY PREDICTED BY IDOCK:   -5.15 KCAL/MOL
REMARK 922        TOTAL FREE ENERGY PREDICTED BY IDOCK:   -5.65 KCAL/MOL
REMARK 923 INTER-LIGAND FREE ENERGY PREDICTED BY IDOCK:   -5.47 KCAL/MOL
REMARK 924 INTRA-LIGAND FREE ENERGY PREDICTED BY IDOCK:   -0.18 KCAL/MOL
REMARK 927      BINDING AFFINITY PREDICTED BY RF-SCORE:    0.00 PKD
ROOT
HETATM    1  O   UNL     1     -12.099  14.894  63.846  1.00  0.00    -0.483 OA 
HETATM    2  C   UNL     1     -12.545  14.053  64.802  1.00  0.00    -0.296 C  
HETATM    3  C   UNL     1     -11.723  12.829  64.972  1.00  0.00    -0.391 A  
HETATM    4  O   UNL     1     -13.521  14.287  65.492  1.00  0.00    -0.580 OA 
HETATM    5  C   UNL     1     -11.073  12.233  63.874  1.00  0.00    -0.475 A  
HETATM    6  C   UNL     1     -10.306  11.071  64.036  1.00  0.00    -0.436 A  
HETATM    7  C   UNL     1     -10.223  10.506  65.314  1.00  0.00    -0.282 A  
HETATM    8  N   UNL     1      -9.567   9.391  65.748  1.00  0.00    -0.259 NA 
HETATM    9  C   UNL     1      -9.849   9.337  67.038  1.00  0.00    -0.198 A  
HETATM   10  O   UNL     1     -10.657  10.353  67.489  1.00  0.00    -0.223 OA 
HETATM   11  C   UNL     1     -11.657  12.259  66.260  1.00  0.00    -0.446 A  
HETATM   12  C   UNL     1     -10.896  11.104  66.368  1.00  0.00    -0.225 A  
ENDROOT
BRANCH   9  13
HETATM   13  C   UNL     1      -9.387   8.349  68.008  1.00  0.00    -0.146 A  
HETATM   14  C   UNL     1      -8.051   8.408  68.438  1.00  0.00    -0.123 A  
HETATM   15  C   UNL     1      -7.565   7.506  69.383  1.00  0.00    -0.092 A  
HETATM   16 CL   UNL     1      -5.927   7.612  69.897  1.00  0.00    -0.024 Cl 
HETATM   17  C   UNL     1      -8.397   6.529  69.916  1.00  0.00    -0.131 A  
HETATM   18  C   UNL     1      -9.721   6.458  69.488  1.00  0.00    -0.150 A  
HETATM   19 CL   UNL     1     -10.758   5.251  70.145  1.00  0.00    -0.303 Cl 
HETATM   20  C   UNL     1     -10.220   7.356  68.541  1.00  0.00    -0.201 A  
ENDBRANCH   9  13
TORSDOF 1
ENDMDL
MODEL       93
REMARK 921   NORMALIZED FREE ENERGY PREDICTED BY IDOCK:   -5.14 KCAL/MOL
REMARK 922        TOTAL FREE ENERGY PREDICTED BY IDOCK:   -5.64 KCAL/MOL
REMARK 923 INTER-LIGAND FREE ENERGY PREDICTED BY IDOCK:   -5.42 KCAL/MOL
REMARK 924 INTRA-LIGAND FREE ENERGY PREDICTED BY IDOCK:   -0.21 KCAL/MOL
REMARK 927      BINDING AFFINITY PREDICTED BY RF-SCORE:    0.00 PKD
ROOT
HETATM    1  O   UNL     1     -11.805  15.544  68.618  1.00  0.00    -0.362 OA 
HETATM    2  C   UNL     1     -12.350  14.662  69.481  1.00  0.00    -0.195 C  
HETATM    3  C   UNL     1     -11.955  13.251  69.244  1.00  0.00    -0.354 A  
HETATM    4  O   UNL     1     -13.081  14.993  70.398  1.00  0.00    -0.287 OA 
HETATM    5  C   UNL     1     -11.709  12.775  67.943  1.00  0.00    -0.408 A  
HETATM    6  C   UNL     1     -11.346  11.439  67.721  1.00  0.00    -0.354 A  
HETATM    7  C   UNL     1     -11.259  10.586  68.827  1.00  0.00    -0.262 A  
HETATM    8  N   UNL     1     -10.943   9.260  68.900  1.00  0.00    -0.088 NA 
HETATM    9  C   UNL     1     -11.028   8.983  70.189  1.00  0.00    -0.233 A  
HETATM   10  O   UNL     1     -11.384  10.048  70.981  1.00  0.00    -0.347 OA 
HETATM   11  C   UNL     1     -11.884  12.396  70.363  1.00  0.00    -0.249 A  
HETATM   12  C   UNL     1     -11.533  11.081  70.093  1.00  0.00    -0.296 A  
ENDROOT
BRANCH   9  13
HETATM   13  C   UNL     1     -10.772   7.702  70.841  1.00  0.00    -0.243 A  
HETATM   14  C   UNL     1     -10.477   6.589  70.036  1.00  0.00    -0.257 A  
HETATM   15  C   UNL     1     -10.197   5.349  70.608  1.00  0.00    -0.253 A  
HETATM   16 CL   UNL     1      -9.830   4.008  69.594  1.00  0.00    -0.242 Cl 
HETATM   17  C   UNL     1     -10.207   5.192  71.988  1.00  0.00    -0.260 A  
HETATM   18  C   UNL     1     -10.507   6.289  72.794  1.00  0.00    -0.214 A  
HETATM   19 CL   UNL     1     -10.518   6.103  74.505  1.00  0.00    -0.216 Cl 
HETATM   20  C   UNL     1     -10.789   7.538  72.232  1.00  0.00    -0.302 A  
ENDBRANCH   9  13
TORSDOF 1
ENDMDL
MODEL       94
REMARK 921   NORMALIZED FREE ENERGY PREDICTED BY IDOCK:   -5.10 KCAL/MOL
REMARK 922        TOTAL FREE ENERGY PREDICTED BY IDOCK:   -5.59 KCAL/MOL
REMARK 923 INTER-LIGAND FREE ENERGY PREDICTED BY IDOCK:   -5.39 KCAL/MOL
REMARK 924 INTRA-LIGAND FREE ENERGY PREDICTED BY IDOCK:   -0.20 KCAL/MOL
REMARK 927      BINDING AFFINITY PREDICTED BY RF-SCORE:    0.00 PKD
ROOT
HETATM    1  O   UNL     1     -10.737   8.146  66.907  1.00  0.00    -0.309 OA 
HETATM    2  C   UNL     1      -9.723   8.996  67.167  1.00  0.00    -0.181 C  
HETATM    3  C   UNL     1      -9.908  10.358  66.607  1.00  0.00    -0.251 A  
HETATM    4  O   UNL     1      -8.748   8.688  67.830  1.00  0.00    -0.135 OA 
HETATM    5  C   UNL     1     -10.589  10.557  65.391  1.00  0.00    -0.143 A  
HETATM    6  C   UNL     1     -10.753  11.843  64.859  1.00  0.00    -0.350 A  
HETATM    7  C   UNL     1     -10.201  12.923  65.559  1.00  0.00    -0.287 A  
HETATM    8  N   UNL     1     -10.201  14.257  65.271  1.00  0.00    -0.375 NA 
HETATM    9  C   UNL     1      -9.527  14.798  66.270  1.00  0.00    -0.303 A  
HETATM   10  O   UNL     1      -9.076  13.901  67.208  1.00  0.00    -0.207 OA 
HETATM   11  C   UNL     1      -9.336  11.437  67.311  1.00  0.00    -0.173 A  
HETATM   12  C   UNL     1      -9.514  12.690  66.740  1.00  0.00    -0.237 A  
ENDROOT
BRANCH   9  13
HETATM   13  C   UNL     1      -9.237  16.213  66.484  1.00  0.00    -0.303 A  
HETATM   14  C   UNL     1      -7.898  16.635  66.444  1.00  0.00    -0.347 A  
HETATM   15  C   UNL     1      -7.568  17.978  66.614  1.00  0.00    -0.233 A  
HETATM   16 CL   UNL     1      -5.918  18.464  66.549  1.00  0.00    -0.178 Cl 
HETATM   17  C   UNL     1      -8.561  18.925  66.830  1.00  0.00    -0.305 A  
HETATM   18  C   UNL     1      -9.891  18.514  66.880  1.00  0.00    -0.334 A  
HETATM   19 CL   UNL     1     -11.128  19.682  67.143  1.00  0.00    -0.432 Cl 
HETATM   20  C   UNL     1     -10.235  17.170  66.710  1.00  0.00    -0.311 A  
ENDBRANCH   9  13
TORSDOF 1
ENDMDL
MODEL       95
REMARK 921   NORMALIZED FREE ENERGY PREDICTED BY IDOCK:   -5.09 KCAL/MOL
REMARK 922        TOTAL FREE ENERGY PREDICTED BY IDOCK:   -5.59 KCAL/MOL
REMARK 923 INTER-LIGAND FREE ENERGY PREDICTED BY IDOCK:   -5.39 KCAL/MOL
REMARK 924 INTRA-LIGAND FREE ENERGY PREDICTED BY IDOCK:   -0.20 KCAL/MOL
REMARK 927      BINDING AFFINITY PREDICTED BY RF-SCORE:    0.00 PKD
ROOT
HETATM    1  O   UNL     1      -9.139   6.842  72.290  1.00  0.00    -0.135 OA 
HETATM    2  C   UNL     1      -9.903   7.939  72.107  1.00  0.00    -0.205 C  
HETATM    3  C   UNL     1      -9.393   8.874  71.075  1.00  0.00    -0.313 A  
HETATM    4  O   UNL     1     -10.942   8.136  72.713  1.00  0.00    -0.369 OA 
HETATM    5  C   UNL     1      -8.011   9.038  70.863  1.00  0.00    -0.194 A  
HETATM    6  C   UNL     1      -7.531   9.930  69.894  1.00  0.00    -0.156 A  
HETATM    7  C   UNL     1      -8.464  10.671  69.159  1.00  0.00    -0.128 A  
HETATM    8  N   UNL     1      -8.280  11.603  68.178  1.00  0.00    -0.144 NA 
HETATM    9  C   UNL     1      -9.506  11.975  67.858  1.00  0.00    -0.196 A  
HETATM   10  O   UNL     1     -10.499  11.345  68.570  1.00  0.00    -0.188 OA 
HETATM   11  C   UNL     1     -10.339   9.627  70.350  1.00  0.00    -0.350 A  
HETATM   12  C   UNL     1      -9.817  10.505  69.410  1.00  0.00    -0.182 A  
ENDROOT
BRANCH   9  13
HETATM   13  C   UNL     1      -9.904  12.943  66.841  1.00  0.00    -0.235 A  
HETATM   14  C   UNL     1      -9.392  14.249  66.925  1.00  0.00    -0.268 A  
HETATM   15  C   UNL     1      -9.717  15.206  65.965  1.00  0.00    -0.330 A  
HETATM   16 CL   UNL     1      -9.065  16.793  66.090  1.00  0.00    -0.308 Cl 
HETATM   17  C   UNL     1     -10.558  14.884  64.907  1.00  0.00    -0.417 A  
HETATM   18  C   UNL     1     -11.077  13.594  64.821  1.00  0.00    -0.370 A  
HETATM   19 CL   UNL     1     -12.118  13.187  63.512  1.00  0.00    -0.605 Cl 
HETATM   20  C   UNL     1     -10.759  12.625  65.777  1.00  0.00    -0.295 A  
ENDBRANCH   9  13
TORSDOF 1
ENDMDL
MODEL       96
REMARK 921   NORMALIZED FREE ENERGY PREDICTED BY IDOCK:   -5.09 KCAL/MOL
REMARK 922        TOTAL FREE ENERGY PREDICTED BY IDOCK:   -5.58 KCAL/MOL
REMARK 923 INTER-LIGAND FREE ENERGY PREDICTED BY IDOCK:   -5.38 KCAL/MOL
REMARK 924 INTRA-LIGAND FREE ENERGY PREDICTED BY IDOCK:   -0.20 KCAL/MOL
REMARK 927      BINDING AFFINITY PREDICTED BY RF-SCORE:    0.00 PKD
ROOT
HETATM    1  O   UNL     1      -8.798  20.473  67.205  1.00  0.00    -0.350 OA 
HETATM    2  C   UNL     1      -9.662  19.556  66.722  1.00  0.00    -0.366 C  
HETATM    3  C   UNL     1      -9.211  18.150  66.877  1.00  0.00    -0.278 A  
HETATM    4  O   UNL     1     -10.735  19.848  66.226  1.00  0.00    -0.448 OA 
HETATM    5  C   UNL     1      -7.846  17.814  66.811  1.00  0.00    -0.262 A  
HETATM    6  C   UNL     1      -7.424  16.484  66.948  1.00  0.00    -0.256 A  
HETATM    7  C   UNL     1      -8.399  15.497  67.129  1.00  0.00    -0.214 A  
HETATM    8  N   UNL     1      -8.275  14.146  67.277  1.00  0.00    -0.193 NA 
HETATM    9  C   UNL     1      -9.520  13.722  67.400  1.00  0.00    -0.224 A  
HETATM   10  O   UNL     1     -10.469  14.714  67.341  1.00  0.00    -0.252 OA 
HETATM   11  C   UNL     1     -10.202  17.161  67.045  1.00  0.00    -0.313 A  
HETATM   12  C   UNL     1      -9.737  15.859  67.165  1.00  0.00    -0.224 A  
ENDROOT
BRANCH   9  13
HETATM   13  C   UNL     1      -9.976  12.351  67.605  1.00  0.00    -0.200 A  
HETATM   14  C   UNL     1      -9.552  11.363  66.701  1.00  0.00    -0.211 A  
HETATM   15  C   UNL     1      -9.936  10.033  66.866  1.00  0.00    -0.209 A  
HETATM   16 CL   UNL     1      -9.390   8.845  65.748  1.00  0.00    -0.296 Cl 
HETATM   17  C   UNL     1     -10.749   9.662  67.930  1.00  0.00    -0.302 A  
HETATM   18  C   UNL     1     -11.182  10.637  68.826  1.00  0.00    -0.279 A  
HETATM   19 CL   UNL     1     -12.187  10.185  70.147  1.00  0.00    -0.234 Cl 
HETATM   20  C   UNL     1     -10.804  11.975  68.671  1.00  0.00    -0.273 A  
ENDBRANCH   9  13
TORSDOF 1
ENDMDL
MODEL       97
REMARK 921   NORMALIZED FREE ENERGY PREDICTED BY IDOCK:   -5.06 KCAL/MOL
REMARK 922        TOTAL FREE ENERGY PREDICTED BY IDOCK:   -5.55 KCAL/MOL
REMARK 923 INTER-LIGAND FREE ENERGY PREDICTED BY IDOCK:   -5.36 KCAL/MOL
REMARK 924 INTRA-LIGAND FREE ENERGY PREDICTED BY IDOCK:   -0.19 KCAL/MOL
REMARK 927      BINDING AFFINITY PREDICTED BY RF-SCORE:    0.00 PKD
ROOT
HETATM    1  O   UNL     1     -14.407  13.178  72.408  1.00  0.00    -0.523 OA 
HETATM    2  C   UNL     1     -13.184  13.088  71.846  1.00  0.00    -0.430 C  
HETATM    3  C   UNL     1     -12.763  11.704  71.516  1.00  0.00    -0.423 A  
HETATM    4  O   UNL     1     -12.492  14.060  71.599  1.00  0.00    -0.331 OA 
HETATM    5  C   UNL     1     -13.161  10.614  72.313  1.00  0.00    -0.211 A  
HETATM    6  C   UNL     1     -12.753   9.309  72.005  1.00  0.00    -0.479 A  
HETATM    7  C   UNL     1     -11.919   9.122  70.897  1.00  0.00    -0.242 A  
HETATM    8  N   UNL     1     -11.372   7.982  70.383  1.00  0.00    -0.233 NA 
HETATM    9  C   UNL     1     -10.669   8.404  69.347  1.00  0.00    -0.152 A  
HETATM   10  O   UNL     1     -10.716   9.762  69.141  1.00  0.00    -0.212 OA 
HETATM   11  C   UNL     1     -11.911  11.527  70.406  1.00  0.00    -0.459 A  
HETATM   12  C   UNL     1     -11.525  10.219  70.148  1.00  0.00    -0.309 A  
ENDROOT
BRANCH   9  13
HETATM   13  C   UNL     1      -9.888   7.598  68.415  1.00  0.00    -0.176 A  
HETATM   14  C   UNL     1     -10.551   6.614  67.662  1.00  0.00    -0.325 A  
HETATM   15  C   UNL     1      -9.858   5.835  66.738  1.00  0.00    -0.162 A  
HETATM   16 CL   UNL     1     -10.702   4.646  65.824  1.00  0.00    -0.303 Cl 
HETATM   17  C   UNL     1      -8.494   6.016  66.547  1.00  0.00    -0.115 A  
HETATM   18  C   UNL     1      -7.826   6.983  67.295  1.00  0.00    -0.110 A  
HETATM   19 CL   UNL     1      -6.137   7.215  67.062  1.00  0.00    -0.039 Cl 
HETATM   20  C   UNL     1      -8.510   7.771  68.226  1.00  0.00    -0.124 A  
ENDBRANCH   9  13
TORSDOF 1
ENDMDL
MODEL       98
REMARK 921   NORMALIZED FREE ENERGY PREDICTED BY IDOCK:   -5.04 KCAL/MOL
REMARK 922        TOTAL FREE ENERGY PREDICTED BY IDOCK:   -5.53 KCAL/MOL
REMARK 923 INTER-LIGAND FREE ENERGY PREDICTED BY IDOCK:   -5.31 KCAL/MOL
REMARK 924 INTRA-LIGAND FREE ENERGY PREDICTED BY IDOCK:   -0.22 KCAL/MOL
REMARK 927      BINDING AFFINITY PREDICTED BY RF-SCORE:    0.00 PKD
ROOT
HETATM    1  O   UNL     1      -7.730   7.923  63.397  1.00  0.00    -0.126 OA 
HETATM    2  C   UNL     1      -8.141   7.537  64.623  1.00  0.00    -0.101 C  
HETATM    3  C   UNL     1      -8.548   8.655  65.511  1.00  0.00    -0.200 A  
HETATM    4  O   UNL     1      -8.205   6.371  64.967  1.00  0.00    -0.140 OA 
HETATM    5  C   UNL     1      -7.916   9.910  65.435  1.00  0.00    -0.134 A  
HETATM    6  C   UNL     1      -8.295  10.960  66.282  1.00  0.00    -0.164 A  
HETATM    7  C   UNL     1      -9.304  10.719  67.222  1.00  0.00    -0.151 A  
HETATM    8  N   UNL     1      -9.854  11.542  68.162  1.00  0.00    -0.188 NA 
HETATM    9  C   UNL     1     -10.749  10.782  68.767  1.00  0.00    -0.208 A  
HETATM   10  O   UNL     1     -10.827   9.497  68.285  1.00  0.00    -0.213 OA 
HETATM   11  C   UNL     1      -9.556   8.398  66.463  1.00  0.00    -0.304 A  
HETATM   12  C   UNL     1      -9.889   9.464  67.287  1.00  0.00    -0.179 A  
ENDROOT
BRANCH   9  13
HETATM   13  C   UNL     1     -11.650  11.162  69.851  1.00  0.00    -0.416 A  
HETATM   14  C   UNL     1     -12.220  10.144  70.634  1.00  0.00    -0.394 A  
HETATM   15  C   UNL     1     -13.065  10.452  71.699  1.00  0.00    -0.448 A  
HETATM   16 CL   UNL     1     -13.739   9.183  72.645  1.00  0.00    -0.485 Cl 
HETATM   17  C   UNL     1     -13.363  11.775  72.002  1.00  0.00    -0.417 A  
HETATM   18  C   UNL     1     -12.809  12.790  71.224  1.00  0.00    -0.262 A  
HETATM   19 CL   UNL     1     -13.170  14.431  71.595  1.00  0.00    -0.402 Cl 
HETATM   20  C   UNL     1     -11.959  12.494  70.154  1.00  0.00    -0.377 A  
ENDBRANCH   9  13
TORSDOF 1
ENDMDL
MODEL       99
REMARK 921   NORMALIZED FREE ENERGY PREDICTED BY IDOCK:   -5.03 KCAL/MOL
REMARK 922        TOTAL FREE ENERGY PREDICTED BY IDOCK:   -5.52 KCAL/MOL
REMARK 923 INTER-LIGAND FREE ENERGY PREDICTED BY IDOCK:   -5.29 KCAL/MOL
REMARK 924 INTRA-LIGAND FREE ENERGY PREDICTED BY IDOCK:   -0.22 KCAL/MOL
REMARK 927      BINDING AFFINITY PREDICTED BY RF-SCORE:    0.00 PKD
ROOT
HETATM    1  O   UNL     1     -10.735   2.115  72.980  1.00  0.00    -0.143 OA 
HETATM    2  C   UNL     1     -10.577   3.398  73.367  1.00  0.00    -0.191 C  
HETATM    3  C   UNL     1     -10.494   4.369  72.247  1.00  0.00    -0.192 A  
HETATM    4  O   UNL     1     -10.536   3.741  74.535  1.00  0.00    -0.201 OA 
HETATM    5  C   UNL     1      -9.904   4.013  71.020  1.00  0.00    -0.230 A  
HETATM    6  C   UNL     1      -9.817   4.935  69.968  1.00  0.00    -0.304 A  
HETATM    7  C   UNL     1     -10.313   6.227  70.179  1.00  0.00    -0.205 A  
HETATM    8  N   UNL     1     -10.349   7.308  69.347  1.00  0.00    -0.202 NA 
HETATM    9  C   UNL     1     -10.916   8.253  70.076  1.00  0.00    -0.197 A  
HETATM   10  O   UNL     1     -11.261   7.863  71.348  1.00  0.00    -0.240 OA 
HETATM   11  C   UNL     1     -10.984   5.671  72.474  1.00  0.00    -0.313 A  
HETATM   12  C   UNL     1     -10.867   6.552  71.407  1.00  0.00    -0.245 A  
ENDROOT
BRANCH   9  13
HETATM   13  C   UNL     1     -11.224   9.622  69.675  1.00  0.00    -0.176 A  
HETATM   14  C   UNL     1     -11.815  10.479  70.618  1.00  0.00    -0.458 A  
HETATM   15  C   UNL     1     -12.103  11.804  70.296  1.00  0.00    -0.342 A  
HETATM   16 CL   UNL     1     -12.817  12.831  71.477  1.00  0.00    -0.423 Cl 
HETATM   17  C   UNL     1     -11.813  12.300  69.031  1.00  0.00    -0.358 A  
HETATM   18  C   UNL     1     -11.235  11.454  68.086  1.00  0.00    -0.278 A  
HETATM   19 CL   UNL     1     -10.871  12.062  66.518  1.00  0.00    -0.300 Cl 
HETATM   20  C   UNL     1     -10.941  10.123  68.397  1.00  0.00    -0.293 A  
ENDBRANCH   9  13
TORSDOF 1
ENDMDL
MODEL      100
REMARK 921   NORMALIZED FREE ENERGY PREDICTED BY IDOCK:   -5.01 KCAL/MOL
REMARK 922        TOTAL FREE ENERGY PREDICTED BY IDOCK:   -5.50 KCAL/MOL
REMARK 923 INTER-LIGAND FREE ENERGY PREDICTED BY IDOCK:   -5.27 KCAL/MOL
REMARK 924 INTRA-LIGAND FREE ENERGY PREDICTED BY IDOCK:   -0.22 KCAL/MOL
REMARK 927      BINDING AFFINITY PREDICTED BY RF-SCORE:    0.00 PKD
ROOT
HETATM    1  O   UNL     1     -13.827  12.150  72.253  1.00  0.00    -0.245 OA 
HETATM    2  C   UNL     1     -12.952  12.608  71.334  1.00  0.00    -0.258 C  
HETATM    3  C   UNL     1     -12.222  11.544  70.602  1.00  0.00    -0.473 A  
HETATM    4  O   UNL     1     -12.793  13.792  71.098  1.00  0.00    -0.333 OA 
HETATM    5  C   UNL     1     -11.883  10.331  71.231  1.00  0.00    -0.425 A  
HETATM    6  C   UNL     1     -11.184   9.331  70.541  1.00  0.00    -0.315 A  
HETATM    7  C   UNL     1     -10.811   9.582  69.215  1.00  0.00    -0.191 A  
HETATM    8  N   UNL     1     -10.127   8.805  68.326  1.00  0.00    -0.181 NA 
HETATM    9  C   UNL     1     -10.056   9.551  67.238  1.00  0.00    -0.215 A  
HETATM   10  O   UNL     1     -10.653  10.784  67.352  1.00  0.00    -0.211 OA 
HETATM   11  C   UNL     1     -11.838  11.811  69.272  1.00  0.00    -0.389 A  
HETATM   12  C   UNL     1     -11.138  10.797  68.633  1.00  0.00    -0.259 A  
ENDROOT
BRANCH   9  13
HETATM   13  C   UNL     1      -9.443   9.204  65.960  1.00  0.00    -0.321 A  
HETATM   14  C   UNL     1      -9.568  10.107  64.891  1.00  0.00    -0.369 A  
HETATM   15  C   UNL     1      -8.978   9.838  63.657  1.00  0.00    -0.240 A  
HETATM   16 CL   UNL     1      -9.141  10.969  62.371  1.00  0.00    -0.355 Cl 
HETATM   17  C   UNL     1      -8.258   8.666  63.462  1.00  0.00    -0.150 A  
HETATM   18  C   UNL     1      -8.137   7.760  64.514  1.00  0.00    -0.108 A  
HETATM   19 CL   UNL     1      -7.244   6.308  64.280  1.00  0.00    -0.060 Cl 
HETATM   20  C   UNL     1      -8.723   8.019  65.757  1.00  0.00    -0.175 A  
ENDBRANCH   9  13
TORSDOF 1
ENDMDL
MODEL      101
REMARK 921   NORMALIZED FREE ENERGY PREDICTED BY IDOCK:   -5.00 KCAL/MOL
REMARK 922        TOTAL FREE ENERGY PREDICTED BY IDOCK:   -5.49 KCAL/MOL
REMARK 923 INTER-LIGAND FREE ENERGY PREDICTED BY IDOCK:   -5.31 KCAL/MOL
REMARK 924 INTRA-LIGAND FREE ENERGY PREDICTED BY IDOCK:   -0.18 KCAL/MOL
REMARK 927      BINDING AFFINITY PREDICTED BY RF-SCORE:    0.00 PKD
ROOT
HETATM    1  O   UNL     1     -10.457  19.071  65.598  1.00  0.00    -0.554 OA 
HETATM    2  C   UNL     1     -10.397  18.029  66.453  1.00  0.00    -0.379 C  
HETATM    3  C   UNL     1     -10.570  16.702  65.813  1.00  0.00    -0.278 A  
HETATM    4  O   UNL     1     -10.188  18.159  67.647  1.00  0.00    -0.338 OA 
HETATM    5  C   UNL     1     -11.408  16.539  64.694  1.00  0.00    -0.073 A  
HETATM    6  C   UNL     1     -11.578  15.281  64.098  1.00  0.00    -0.078 A  
HETATM    7  C   UNL     1     -10.910  14.188  64.661  1.00  0.00    -0.386 A  
HETATM    8  N   UNL     1     -10.903  12.872  64.298  1.00  0.00    -0.373 NA 
HETATM    9  C   UNL     1     -10.111  12.300  65.188  1.00  0.00    -0.261 A  
HETATM   10  O   UNL     1      -9.589  13.160  66.125  1.00  0.00    -0.262 OA 
HETATM   11  C   UNL     1      -9.904  15.604  66.396  1.00  0.00    -0.295 A  
HETATM   12  C   UNL     1     -10.112  14.378  65.778  1.00  0.00    -0.340 A  
ENDROOT
BRANCH   9  13
HETATM   13  C   UNL     1      -9.729  10.894  65.263  1.00  0.00    -0.296 A  
HETATM   14  C   UNL     1      -8.724  10.426  64.399  1.00  0.00    -0.209 A  
HETATM   15  C   UNL     1      -8.302   9.099  64.448  1.00  0.00    -0.174 A  
HETATM   16 CL   UNL     1      -7.063   8.560  63.384  1.00  0.00    -0.089 Cl 
HETATM   17  C   UNL     1      -8.871   8.212  65.354  1.00  0.00    -0.086 A  
HETATM   18  C   UNL     1      -9.874   8.665  66.208  1.00  0.00    -0.249 A  
HETATM   19 CL   UNL     1     -10.582   7.573  67.334  1.00  0.00    -0.361 Cl 
HETATM   20  C   UNL     1     -10.307   9.994  66.169  1.00  0.00    -0.225 A  
ENDBRANCH   9  13
TORSDOF 1
ENDMDL
MODEL      102
REMARK 921   NORMALIZED FREE ENERGY PREDICTED BY IDOCK:   -4.97 KCAL/MOL
REMARK 922        TOTAL FREE ENERGY PREDICTED BY IDOCK:   -5.46 KCAL/MOL
REMARK 923 INTER-LIGAND FREE ENERGY PREDICTED BY IDOCK:   -5.25 KCAL/MOL
REMARK 924 INTRA-LIGAND FREE ENERGY PREDICTED BY IDOCK:   -0.21 KCAL/MOL
REMARK 927      BINDING AFFINITY PREDICTED BY RF-SCORE:    0.00 PKD
ROOT
HETATM    1  O   UNL     1      -8.707  16.627  66.941  1.00  0.00    -0.190 OA 
HETATM    2  C   UNL     1      -9.752  15.782  66.835  1.00  0.00    -0.230 C  
HETATM    3  C   UNL     1      -9.508  14.433  67.403  1.00  0.00    -0.207 A  
HETATM    4  O   UNL     1     -10.820  16.101  66.343  1.00  0.00    -0.255 OA 
HETATM    5  C   UNL     1      -8.228  13.847  67.360  1.00  0.00    -0.198 A  
HETATM    6  C   UNL     1      -8.003  12.569  67.888  1.00  0.00    -0.157 A  
HETATM    7  C   UNL     1      -9.090  11.881  68.440  1.00  0.00    -0.167 A  
HETATM    8  N   UNL     1      -9.158  10.640  69.005  1.00  0.00    -0.179 NA 
HETATM    9  C   UNL     1     -10.429  10.511  69.339  1.00  0.00    -0.240 A  
HETATM   10  O   UNL     1     -11.215  11.595  69.027  1.00  0.00    -0.225 OA 
HETATM   11  C   UNL     1     -10.611  13.742  67.944  1.00  0.00    -0.257 A  
HETATM   12  C   UNL     1     -10.342  12.476  68.445  1.00  0.00    -0.230 A  
ENDROOT
BRANCH   9  13
HETATM   13  C   UNL     1     -11.063   9.376  70.003  1.00  0.00    -0.248 A  
HETATM   14  C   UNL     1     -12.161   9.622  70.845  1.00  0.00    -0.383 A  
HETATM   15  C   UNL     1     -12.820   8.572  71.482  1.00  0.00    -0.311 A  
HETATM   16 CL   UNL     1     -14.167   8.905  72.499  1.00  0.00    -0.485 Cl 
HETATM   17  C   UNL     1     -12.400   7.261  71.296  1.00  0.00    -0.401 A  
HETATM   18  C   UNL     1     -11.307   7.009  70.469  1.00  0.00    -0.312 A  
HETATM   19 CL   UNL     1     -10.782   5.387  70.232  1.00  0.00    -0.333 Cl 
HETATM   20  C   UNL     1     -10.637   8.053  69.825  1.00  0.00    -0.238 A  
ENDBRANCH   9  13
TORSDOF 1
ENDMDL
MODEL      103
REMARK 921   NORMALIZED FREE ENERGY PREDICTED BY IDOCK:   -4.95 KCAL/MOL
REMARK 922        TOTAL FREE ENERGY PREDICTED BY IDOCK:   -5.43 KCAL/MOL
REMARK 923 INTER-LIGAND FREE ENERGY PREDICTED BY IDOCK:   -5.23 KCAL/MOL
REMARK 924 INTRA-LIGAND FREE ENERGY PREDICTED BY IDOCK:   -0.19 KCAL/MOL
REMARK 927      BINDING AFFINITY PREDICTED BY RF-SCORE:    0.00 PKD
ROOT
HETATM    1  O   UNL     1     -12.198  14.845  64.009  1.00  0.00    -0.585 OA 
HETATM    2  C   UNL     1     -12.621  13.862  64.830  1.00  0.00    -0.347 C  
HETATM    3  C   UNL     1     -11.745  12.664  64.851  1.00  0.00    -0.399 A  
HETATM    4  O   UNL     1     -13.620  13.956  65.521  1.00  0.00    -0.579 OA 
HETATM    5  C   UNL     1     -11.048  12.254  63.700  1.00  0.00    -0.537 A  
HETATM    6  C   UNL     1     -10.229  11.116  63.720  1.00  0.00    -0.434 A  
HETATM    7  C   UNL     1     -10.143  10.386  64.911  1.00  0.00    -0.312 A  
HETATM    8  N   UNL     1      -9.442   9.252  65.206  1.00  0.00    -0.221 NA 
HETATM    9  C   UNL     1      -9.745   9.010  66.469  1.00  0.00    -0.244 A  
HETATM   10  O   UNL     1     -10.609   9.917  67.034  1.00  0.00    -0.238 OA 
HETATM   11  C   UNL     1     -11.676  11.927  66.051  1.00  0.00    -0.209 A  
HETATM   12  C   UNL     1     -10.863  10.803  66.020  1.00  0.00    -0.032 A  
ENDROOT
BRANCH   9  13
HETATM   13  C   UNL     1      -9.254   7.920  67.306  1.00  0.00    -0.167 A  
HETATM   14  C   UNL     1      -9.553   6.599  66.928  1.00  0.00    -0.194 A  
HETATM   15  C   UNL     1      -9.086   5.521  67.677  1.00  0.00    -0.107 A  
HETATM   16 CL   UNL     1      -9.460   3.916  67.182  1.00  0.00    -0.217 Cl 
HETATM   17  C   UNL     1      -8.317   5.733  68.815  1.00  0.00    -0.104 A  
HETATM   18  C   UNL     1      -8.024   7.039  69.202  1.00  0.00    -0.119 A  
HETATM   19 CL   UNL     1      -7.071   7.310  70.608  1.00  0.00    -0.064 Cl 
HETATM   20  C   UNL     1      -8.486   8.130  68.459  1.00  0.00    -0.127 A  
ENDBRANCH   9  13
TORSDOF 1
ENDMDL
MODEL      104
REMARK 921   NORMALIZED FREE ENERGY PREDICTED BY IDOCK:   -4.94 KCAL/MOL
REMARK 922        TOTAL FREE ENERGY PREDICTED BY IDOCK:   -5.42 KCAL/MOL
REMARK 923 INTER-LIGAND FREE ENERGY PREDICTED BY IDOCK:   -5.23 KCAL/MOL
REMARK 924 INTRA-LIGAND FREE ENERGY PREDICTED BY IDOCK:   -0.19 KCAL/MOL
REMARK 927      BINDING AFFINITY PREDICTED BY RF-SCORE:    0.00 PKD
ROOT
HETATM    1  O   UNL     1     -10.624  10.345  63.604  1.00  0.00     0.165 OA 
HETATM    2  C   UNL     1     -11.242  11.535  63.756  1.00  0.00    -0.370 C  
HETATM    3  C   UNL     1     -10.562  12.461  64.695  1.00  0.00    -0.339 A  
HETATM    4  O   UNL     1     -12.255  11.841  63.152  1.00  0.00    -0.429 OA 
HETATM    5  C   UNL     1      -9.866  11.975  65.818  1.00  0.00    -0.263 A  
HETATM    6  C   UNL     1      -9.234  12.854  66.709  1.00  0.00    -0.230 A  
HETATM    7  C   UNL     1      -9.334  14.228  66.464  1.00  0.00    -0.271 A  
HETATM    8  N   UNL     1      -8.834  15.290  67.161  1.00  0.00    -0.198 NA 
HETATM    9  C   UNL     1      -9.246  16.343  66.478  1.00  0.00    -0.277 A  
HETATM   10  O   UNL     1      -9.994  16.044  65.364  1.00  0.00    -0.445 OA 
HETATM   11  C   UNL     1     -10.680  13.844  64.448  1.00  0.00    -0.286 A  
HETATM   12  C   UNL     1     -10.048  14.674  65.363  1.00  0.00    -0.372 A  
ENDROOT
BRANCH   9  13
HETATM   13  C   UNL     1      -8.980  17.749  66.765  1.00  0.00    -0.272 A  
HETATM   14  C   UNL     1      -8.017  18.419  65.992  1.00  0.00    -0.146 A  
HETATM   15  C   UNL     1      -7.744  19.768  66.206  1.00  0.00    -0.319 A  
HETATM   16 CL   UNL     1      -6.565  20.562  65.236  1.00  0.00    -0.299 Cl 
HETATM   17  C   UNL     1      -8.420  20.476  67.192  1.00  0.00    -0.357 A  
HETATM   18  C   UNL     1      -9.371  19.817  67.969  1.00  0.00    -0.352 A  
HETATM   19 CL   UNL     1     -10.214  20.688  69.190  1.00  0.00     0.136 Cl 
HETATM   20  C   UNL     1      -9.654  18.463  67.764  1.00  0.00    -0.300 A  
ENDBRANCH   9  13
TORSDOF 1
ENDMDL
MODEL      105
REMARK 921   NORMALIZED FREE ENERGY PREDICTED BY IDOCK:   -4.92 KCAL/MOL
REMARK 922        TOTAL FREE ENERGY PREDICTED BY IDOCK:   -5.40 KCAL/MOL
REMARK 923 INTER-LIGAND FREE ENERGY PREDICTED BY IDOCK:   -5.22 KCAL/MOL
REMARK 924 INTRA-LIGAND FREE ENERGY PREDICTED BY IDOCK:   -0.18 KCAL/MOL
REMARK 927      BINDING AFFINITY PREDICTED BY RF-SCORE:    0.00 PKD
ROOT
HETATM    1  O   UNL     1     -10.755  10.419  63.764  1.00  0.00     0.279 OA 
HETATM    2  C   UNL     1     -11.341  11.625  63.911  1.00  0.00    -0.371 C  
HETATM    3  C   UNL     1     -10.599  12.561  64.792  1.00  0.00    -0.333 A  
HETATM    4  O   UNL     1     -12.375  11.937  63.347  1.00  0.00    -0.557 OA 
HETATM    5  C   UNL     1      -9.861  12.091  65.894  1.00  0.00    -0.259 A  
HETATM    6  C   UNL     1      -9.170  12.979  66.730  1.00  0.00    -0.229 A  
HETATM    7  C   UNL     1      -9.254  14.348  66.453  1.00  0.00    -0.213 A  
HETATM    8  N   UNL     1      -8.700  15.417  67.096  1.00  0.00    -0.204 NA 
HETATM    9  C   UNL     1      -9.123  16.460  66.404  1.00  0.00    -0.306 A  
HETATM   10  O   UNL     1      -9.928  16.147  65.335  1.00  0.00    -0.482 OA 
HETATM   11  C   UNL     1     -10.700  13.940  64.513  1.00  0.00    -0.382 A  
HETATM   12  C   UNL     1     -10.009  14.780  65.374  1.00  0.00    -0.334 A  
ENDROOT
BRANCH   9  13
HETATM   13  C   UNL     1      -8.815  17.867  66.639  1.00  0.00    -0.285 A  
HETATM   14  C   UNL     1      -9.594  18.575  67.570  1.00  0.00    -0.303 A  
HETATM   15  C   UNL     1      -9.326  19.913  67.853  1.00  0.00    -0.344 A  
HETATM   16 CL   UNL     1     -10.292  20.749  69.005  1.00  0.00     0.234 Cl 
HETATM   17  C   UNL     1      -8.282  20.572  67.216  1.00  0.00    -0.360 A  
HETATM   18  C   UNL     1      -7.510  19.880  66.285  1.00  0.00    -0.300 A  
HETATM   19 CL   UNL     1      -6.214  20.689  65.494  1.00  0.00    -0.266 Cl 
HETATM   20  C   UNL     1      -7.769  18.537  65.992  1.00  0.00    -0.206 A  
ENDBRANCH   9  13
TORSDOF 1
ENDMDL
MODEL      106
REMARK 921   NORMALIZED FREE ENERGY PREDICTED BY IDOCK:   -4.89 KCAL/MOL
REMARK 922        TOTAL FREE ENERGY PREDICTED BY IDOCK:   -5.37 KCAL/MOL
REMARK 923 INTER-LIGAND FREE ENERGY PREDICTED BY IDOCK:   -5.17 KCAL/MOL
REMARK 924 INTRA-LIGAND FREE ENERGY PREDICTED BY IDOCK:   -0.20 KCAL/MOL
REMARK 927      BINDING AFFINITY PREDICTED BY RF-SCORE:    0.00 PKD
ROOT
HETATM    1  O   UNL     1     -13.079  15.882  72.723  1.00  0.00    -0.456 OA 
HETATM    2  C   UNL     1     -13.395  14.629  72.336  1.00  0.00    -0.417 C  
HETATM    3  C   UNL     1     -12.576  14.112  71.212  1.00  0.00    -0.438 A  
HETATM    4  O   UNL     1     -14.258  13.962  72.879  1.00  0.00    -0.501 OA 
HETATM    5  C   UNL     1     -12.100  14.972  70.204  1.00  0.00    -0.378 A  
HETATM    6  C   UNL     1     -11.335  14.478  69.138  1.00  0.00    -0.305 A  
HETATM    7  C   UNL     1     -11.078  13.103  69.090  1.00  0.00    -0.196 A  
HETATM    8  N   UNL     1     -10.382  12.363  68.178  1.00  0.00    -0.220 NA 
HETATM    9  C   UNL     1     -10.476  11.126  68.632  1.00  0.00    -0.197 A  
HETATM   10  O   UNL     1     -11.195  10.998  69.796  1.00  0.00    -0.258 OA 
HETATM   11  C   UNL     1     -12.334  12.724  71.165  1.00  0.00    -0.247 A  
HETATM   12  C   UNL     1     -11.582  12.280  70.085  1.00  0.00    -0.094 A  
ENDROOT
BRANCH   9  13
HETATM   13  C   UNL     1      -9.894   9.920  68.052  1.00  0.00    -0.170 A  
HETATM   14  C   UNL     1      -8.513   9.902  67.791  1.00  0.00    -0.118 A  
HETATM   15  C   UNL     1      -7.902   8.767  67.264  1.00  0.00    -0.097 A  
HETATM   16 CL   UNL     1      -6.207   8.774  66.966  1.00  0.00    -0.058 Cl 
HETATM   17  C   UNL     1      -8.650   7.630  66.983  1.00  0.00    -0.122 A  
HETATM   18  C   UNL     1     -10.021   7.642  67.230  1.00  0.00    -0.208 A  
HETATM   19 CL   UNL     1     -10.954   6.237  66.888  1.00  0.00    -0.437 Cl 
HETATM   20  C   UNL     1     -10.647   8.775  67.760  1.00  0.00    -0.256 A  
ENDBRANCH   9  13
TORSDOF 1
ENDMDL
MODEL      107
REMARK 921   NORMALIZED FREE ENERGY PREDICTED BY IDOCK:   -4.86 KCAL/MOL
REMARK 922        TOTAL FREE ENERGY PREDICTED BY IDOCK:   -5.34 KCAL/MOL
REMARK 923 INTER-LIGAND FREE ENERGY PREDICTED BY IDOCK:   -5.12 KCAL/MOL
REMARK 924 INTRA-LIGAND FREE ENERGY PREDICTED BY IDOCK:   -0.21 KCAL/MOL
REMARK 927      BINDING AFFINITY PREDICTED BY RF-SCORE:    0.00 PKD
ROOT
HETATM    1  O   UNL     1     -10.311   5.291  66.106  1.00  0.00    -0.214 OA 
HETATM    2  C   UNL     1     -10.392   6.042  67.223  1.00  0.00    -0.223 C  
HETATM    3  C   UNL     1     -10.171   7.493  67.002  1.00  0.00    -0.368 A  
HETATM    4  O   UNL     1     -10.653   5.579  68.319  1.00  0.00    -0.195 OA 
HETATM    5  C   UNL     1      -9.284   7.949  66.009  1.00  0.00    -0.162 A  
HETATM    6  C   UNL     1      -9.070   9.320  65.810  1.00  0.00    -0.260 A  
HETATM    7  C   UNL     1      -9.745  10.222  66.640  1.00  0.00    -0.185 A  
HETATM    8  N   UNL     1      -9.717  11.586  66.673  1.00  0.00    -0.195 NA 
HETATM    9  C   UNL     1     -10.537  11.898  67.661  1.00  0.00    -0.211 A  
HETATM   10  O   UNL     1     -11.111  10.819  68.289  1.00  0.00    -0.229 OA 
HETATM   11  C   UNL     1     -10.845   8.393  67.852  1.00  0.00    -0.037 A  
HETATM   12  C   UNL     1     -10.593   9.739  67.624  1.00  0.00    -0.276 A  
ENDROOT
BRANCH   9  13
HETATM   13  C   UNL     1     -10.901  13.233  68.126  1.00  0.00    -0.270 A  
HETATM   14  C   UNL     1     -10.592  14.333  67.309  1.00  0.00    -0.278 A  
HETATM   15  C   UNL     1     -10.941  15.627  67.692  1.00  0.00    -0.315 A  
HETATM   16 CL   UNL     1     -10.558  16.952  66.664  1.00  0.00    -0.243 Cl 
HETATM   17  C   UNL     1     -11.601  15.851  68.894  1.00  0.00    -0.392 A  
HETATM   18  C   UNL     1     -11.903  14.766  69.715  1.00  0.00    -0.316 A  
HETATM   19 CL   UNL     1     -12.722  15.036  71.204  1.00  0.00    -0.391 Cl 
HETATM   20  C   UNL     1     -11.558  13.464  69.342  1.00  0.00    -0.365 A  
ENDBRANCH   9  13
TORSDOF 1
ENDMDL
MODEL      108
REMARK 921   NORMALIZED FREE ENERGY PREDICTED BY IDOCK:   -4.84 KCAL/MOL
REMARK 922        TOTAL FREE ENERGY PREDICTED BY IDOCK:   -5.32 KCAL/MOL
REMARK 923 INTER-LIGAND FREE ENERGY PREDICTED BY IDOCK:   -5.11 KCAL/MOL
REMARK 924 INTRA-LIGAND FREE ENERGY PREDICTED BY IDOCK:   -0.21 KCAL/MOL
REMARK 927      BINDING AFFINITY PREDICTED BY RF-SCORE:    0.00 PKD
ROOT
HETATM    1  O   UNL     1      -8.430   2.752  67.775  1.00  0.00    -0.079 OA 
HETATM    2  C   UNL     1      -9.173   3.713  67.188  1.00  0.00    -0.188 C  
HETATM    3  C   UNL     1      -9.629   4.781  68.111  1.00  0.00    -0.200 A  
HETATM    4  O   UNL     1      -9.426   3.724  65.997  1.00  0.00    -0.166 OA 
HETATM    5  C   UNL     1      -9.929   4.499  69.457  1.00  0.00    -0.235 A  
HETATM    6  C   UNL     1     -10.370   5.508  70.324  1.00  0.00    -0.349 A  
HETATM    7  C   UNL     1     -10.526   6.800  69.809  1.00  0.00    -0.210 A  
HETATM    8  N   UNL     1     -10.943   7.951  70.414  1.00  0.00    -0.249 NA 
HETATM    9  C   UNL     1     -10.905   8.851  69.448  1.00  0.00    -0.119 A  
HETATM   10  O   UNL     1     -10.488   8.366  68.231  1.00  0.00    -0.206 OA 
HETATM   11  C   UNL     1      -9.797   6.076  67.580  1.00  0.00    -0.138 A  
HETATM   12  C   UNL     1     -10.246   7.039  68.472  1.00  0.00    -0.172 A  
ENDROOT
BRANCH   9  13
HETATM   13  C   UNL     1     -11.233  10.270  69.542  1.00  0.00    -0.314 A  
HETATM   14  C   UNL     1     -11.989  10.710  70.641  1.00  0.00    -0.466 A  
HETATM   15  C   UNL     1     -12.307  12.058  70.795  1.00  0.00    -0.308 A  
HETATM   16 CL   UNL     1     -13.226  12.566  72.158  1.00  0.00    -0.572 Cl 
HETATM   17  C   UNL     1     -11.882  12.993  69.858  1.00  0.00    -0.377 A  
HETATM   18  C   UNL     1     -11.139  12.564  68.760  1.00  0.00    -0.270 A  
HETATM   19 CL   UNL     1     -10.607  13.715  67.598  1.00  0.00    -0.240 Cl 
HETATM   20  C   UNL     1     -10.814  11.214  68.595  1.00  0.00    -0.251 A  
ENDBRANCH   9  13
TORSDOF 1
ENDMDL
MODEL      109
REMARK 921   NORMALIZED FREE ENERGY PREDICTED BY IDOCK:   -4.80 KCAL/MOL
REMARK 922        TOTAL FREE ENERGY PREDICTED BY IDOCK:   -5.27 KCAL/MOL
REMARK 923 INTER-LIGAND FREE ENERGY PREDICTED BY IDOCK:   -5.08 KCAL/MOL
REMARK 924 INTRA-LIGAND FREE ENERGY PREDICTED BY IDOCK:   -0.19 KCAL/MOL
REMARK 927      BINDING AFFINITY PREDICTED BY RF-SCORE:    0.00 PKD
ROOT
HETATM    1  O   UNL     1      -9.865  16.177  65.546  1.00  0.00    -0.458 OA 
HETATM    2  C   UNL     1      -9.097  15.515  66.436  1.00  0.00    -0.316 C  
HETATM    3  C   UNL     1      -9.790  14.402  67.132  1.00  0.00    -0.254 A  
HETATM    4  O   UNL     1      -7.925  15.783  66.634  1.00  0.00    -0.242 OA 
HETATM    5  C   UNL     1     -11.163  14.475  67.430  1.00  0.00    -0.337 A  
HETATM    6  C   UNL     1     -11.812  13.427  68.097  1.00  0.00    -0.396 A  
HETATM    7  C   UNL     1     -11.052  12.316  68.480  1.00  0.00    -0.249 A  
HETATM    8  N   UNL     1     -11.417  11.178  69.139  1.00  0.00    -0.268 NA 
HETATM    9  C   UNL     1     -10.293  10.491  69.236  1.00  0.00    -0.227 A  
HETATM   10  O   UNL     1      -9.198  11.106  68.679  1.00  0.00    -0.174 OA 
HETATM   11  C   UNL     1      -9.013  13.294  67.526  1.00  0.00    -0.208 A  
HETATM   12  C   UNL     1      -9.696  12.287  68.194  1.00  0.00    -0.213 A  
ENDROOT
BRANCH   9  13
HETATM   13  C   UNL     1     -10.104   9.175  69.838  1.00  0.00    -0.219 A  
HETATM   14  C   UNL     1     -10.402   9.015  71.202  1.00  0.00    -0.362 A  
HETATM   15  C   UNL     1     -10.267   7.774  71.821  1.00  0.00    -0.191 A  
HETATM   16 CL   UNL     1     -10.650   7.608  73.490  1.00  0.00    -0.351 Cl 
HETATM   17  C   UNL     1      -9.830   6.670  71.098  1.00  0.00    -0.195 A  
HETATM   18  C   UNL     1      -9.524   6.822  69.747  1.00  0.00    -0.144 A  
HETATM   19 CL   UNL     1      -8.986   5.460  68.844  1.00  0.00    -0.121 Cl 
HETATM   20  C   UNL     1      -9.656   8.062  69.114  1.00  0.00    -0.156 A  
ENDBRANCH   9  13
TORSDOF 1
ENDMDL
MODEL      110
REMARK 921   NORMALIZED FREE ENERGY PREDICTED BY IDOCK:   -4.78 KCAL/MOL
REMARK 922        TOTAL FREE ENERGY PREDICTED BY IDOCK:   -5.25 KCAL/MOL
REMARK 923 INTER-LIGAND FREE ENERGY PREDICTED BY IDOCK:   -5.06 KCAL/MOL
REMARK 924 INTRA-LIGAND FREE ENERGY PREDICTED BY IDOCK:   -0.19 KCAL/MOL
REMARK 927      BINDING AFFINITY PREDICTED BY RF-SCORE:    0.00 PKD
ROOT
HETATM    1  O   UNL     1      -9.656   5.430  73.697  1.00  0.00    -0.136 OA 
HETATM    2  C   UNL     1      -9.615   5.646  72.366  1.00  0.00    -0.149 C  
HETATM    3  C   UNL     1     -10.119   6.978  71.947  1.00  0.00    -0.198 A  
HETATM    4  O   UNL     1      -9.174   4.834  71.572  1.00  0.00    -0.135 OA 
HETATM    5  C   UNL     1     -11.162   7.612  72.648  1.00  0.00    -0.419 A  
HETATM    6  C   UNL     1     -11.644   8.865  72.243  1.00  0.00    -0.332 A  
HETATM    7  C   UNL     1     -11.074   9.457  71.110  1.00  0.00    -0.362 A  
HETATM    8  N   UNL     1     -11.351  10.646  70.498  1.00  0.00    -0.311 NA 
HETATM    9  C   UNL     1     -10.516  10.680  69.475  1.00  0.00    -0.204 A  
HETATM   10  O   UNL     1      -9.698   9.581  69.369  1.00  0.00    -0.166 OA 
HETATM   11  C   UNL     1      -9.549   7.560  70.797  1.00  0.00    -0.166 A  
HETATM   12  C   UNL     1     -10.065   8.795  70.429  1.00  0.00    -0.192 A  
ENDROOT
BRANCH   9  13
HETATM   13  C   UNL     1     -10.365  11.743  68.487  1.00  0.00    -0.228 A  
HETATM   14  C   UNL     1     -11.445  12.019  67.631  1.00  0.00    -0.392 A  
HETATM   15  C   UNL     1     -11.364  13.042  66.688  1.00  0.00    -0.325 A  
HETATM   16 CL   UNL     1     -12.707  13.361  65.662  1.00  0.00    -0.489 Cl 
HETATM   17  C   UNL     1     -10.209  13.806  66.575  1.00  0.00    -0.284 A  
HETATM   18  C   UNL     1      -9.130  13.533  67.414  1.00  0.00    -0.219 A  
HETATM   19 CL   UNL     1      -7.698  14.478  67.283  1.00  0.00    -0.211 Cl 
HETATM   20  C   UNL     1      -9.199  12.510  68.365  1.00  0.00    -0.139 A  
ENDBRANCH   9  13
TORSDOF 1
ENDMDL
MODEL      111
REMARK 921   NORMALIZED FREE ENERGY PREDICTED BY IDOCK:   -4.78 KCAL/MOL
REMARK 922        TOTAL FREE ENERGY PREDICTED BY IDOCK:   -5.25 KCAL/MOL
REMARK 923 INTER-LIGAND FREE ENERGY PREDICTED BY IDOCK:   -5.03 KCAL/MOL
REMARK 924 INTRA-LIGAND FREE ENERGY PREDICTED BY IDOCK:   -0.22 KCAL/MOL
REMARK 927      BINDING AFFINITY PREDICTED BY RF-SCORE:    0.00 PKD
ROOT
HETATM    1  O   UNL     1      -9.600  20.159  69.883  1.00  0.00     0.218 OA 
HETATM    2  C   UNL     1     -10.020  19.702  68.685  1.00  0.00    -0.458 C  
HETATM    3  C   UNL     1      -9.545  18.336  68.351  1.00  0.00    -0.350 A  
HETATM    4  O   UNL     1     -10.751  20.340  67.949  1.00  0.00    -0.178 OA 
HETATM    5  C   UNL     1      -8.286  17.879  68.784  1.00  0.00    -0.222 A  
HETATM    6  C   UNL     1      -7.836  16.592  68.458  1.00  0.00    -0.218 A  
HETATM    7  C   UNL     1      -8.663  15.783  67.671  1.00  0.00    -0.170 A  
HETATM    8  N   UNL     1      -8.476  14.514  67.204  1.00  0.00    -0.211 NA 
HETATM    9  C   UNL     1      -9.573  14.263  66.512  1.00  0.00    -0.297 A  
HETATM   10  O   UNL     1     -10.482  15.293  66.490  1.00  0.00    -0.284 OA 
HETATM   11  C   UNL     1     -10.379  17.534  67.547  1.00  0.00    -0.356 A  
HETATM   12  C   UNL     1      -9.887  16.273  67.241  1.00  0.00    -0.243 A  
ENDROOT
BRANCH   9  13
HETATM   13  C   UNL     1      -9.917  13.033  65.806  1.00  0.00    -0.260 A  
HETATM   14  C   UNL     1     -11.028  13.043  64.946  1.00  0.00    -0.329 A  
HETATM   15  C   UNL     1     -11.384  11.904  64.227  1.00  0.00    -0.353 A  
HETATM   16 CL   UNL     1     -12.744  11.953  63.174  1.00  0.00    -0.522 Cl 
HETATM   17  C   UNL     1     -10.645  10.734  64.350  1.00  0.00    -0.246 A  
HETATM   18  C   UNL     1      -9.546  10.712  65.207  1.00  0.00    -0.241 A  
HETATM   19 CL   UNL     1      -8.625   9.268  65.363  1.00  0.00    -0.161 Cl 
HETATM   20  C   UNL     1      -9.179  11.849  65.935  1.00  0.00    -0.147 A  
ENDBRANCH   9  13
TORSDOF 1
ENDMDL
MODEL      112
REMARK 921   NORMALIZED FREE ENERGY PREDICTED BY IDOCK:   -4.77 KCAL/MOL
REMARK 922        TOTAL FREE ENERGY PREDICTED BY IDOCK:   -5.24 KCAL/MOL
REMARK 923 INTER-LIGAND FREE ENERGY PREDICTED BY IDOCK:   -5.03 KCAL/MOL
REMARK 924 INTRA-LIGAND FREE ENERGY PREDICTED BY IDOCK:   -0.21 KCAL/MOL
REMARK 927      BINDING AFFINITY PREDICTED BY RF-SCORE:    0.00 PKD
ROOT
HETATM    1  O   UNL     1      -6.895   4.914  65.378  1.00  0.00    -0.057 OA 
HETATM    2  C   UNL     1      -7.431   5.937  64.680  1.00  0.00    -0.079 C  
HETATM    3  C   UNL     1      -8.360   6.790  65.462  1.00  0.00    -0.143 A  
HETATM    4  O   UNL     1      -7.157   6.164  63.515  1.00  0.00    -0.044 OA 
HETATM    5  C   UNL     1      -9.164   6.244  66.481  1.00  0.00    -0.169 A  
HETATM    6  C   UNL     1     -10.048   7.051  67.211  1.00  0.00    -0.265 A  
HETATM    7  C   UNL     1     -10.127   8.409  66.882  1.00  0.00    -0.294 A  
HETATM    8  N   UNL     1     -10.896   9.405  67.413  1.00  0.00    -0.208 NA 
HETATM    9  C   UNL     1     -10.563  10.473  66.710  1.00  0.00    -0.222 A  
HETATM   10  O   UNL     1      -9.616  10.247  65.740  1.00  0.00    -0.193 OA 
HETATM   11  C   UNL     1      -8.443   8.154  65.115  1.00  0.00    -0.134 A  
HETATM   12  C   UNL     1      -9.340   8.910  65.857  1.00  0.00    -0.236 A  
ENDROOT
BRANCH   9  13
HETATM   13  C   UNL     1     -11.069  11.833  66.867  1.00  0.00    -0.361 A  
HETATM   14  C   UNL     1     -11.271  12.609  65.713  1.00  0.00    -0.347 A  
HETATM   15  C   UNL     1     -11.778  13.903  65.803  1.00  0.00    -0.359 A  
HETATM   16 CL   UNL     1     -12.024  14.823  64.371  1.00  0.00    -0.458 Cl 
HETATM   17  C   UNL     1     -12.091  14.452  67.041  1.00  0.00    -0.374 A  
HETATM   18  C   UNL     1     -11.885  13.693  68.191  1.00  0.00    -0.372 A  
HETATM   19 CL   UNL     1     -12.272  14.365  69.728  1.00  0.00    -0.372 Cl 
HETATM   20  C   UNL     1     -11.377  12.393  68.114  1.00  0.00    -0.341 A  
ENDBRANCH   9  13
TORSDOF 1
ENDMDL
MODEL      113
REMARK 921   NORMALIZED FREE ENERGY PREDICTED BY IDOCK:   -4.76 KCAL/MOL
REMARK 922        TOTAL FREE ENERGY PREDICTED BY IDOCK:   -5.23 KCAL/MOL
REMARK 923 INTER-LIGAND FREE ENERGY PREDICTED BY IDOCK:   -5.02 KCAL/MOL
REMARK 924 INTRA-LIGAND FREE ENERGY PREDICTED BY IDOCK:   -0.22 KCAL/MOL
REMARK 927      BINDING AFFINITY PREDICTED BY RF-SCORE:    0.00 PKD
ROOT
HETATM    1  O   UNL     1      -7.203   9.843  62.616  1.00  0.00    -0.113 OA 
HETATM    2  C   UNL     1      -8.343  10.444  63.015  1.00  0.00    -0.174 C  
HETATM    3  C   UNL     1      -8.875   9.948  64.308  1.00  0.00    -0.252 A  
HETATM    4  O   UNL     1      -8.879  11.339  62.386  1.00  0.00    -0.314 OA 
HETATM    5  C   UNL     1      -8.714   8.604  64.693  1.00  0.00    -0.065 A  
HETATM    6  C   UNL     1      -9.227   8.136  65.911  1.00  0.00    -0.158 A  
HETATM    7  C   UNL     1      -9.924   9.038  66.723  1.00  0.00    -0.263 A  
HETATM    8  N   UNL     1     -10.527   8.855  67.934  1.00  0.00    -0.234 NA 
HETATM    9  C   UNL     1     -11.033  10.041  68.221  1.00  0.00    -0.227 A  
HETATM   10  O   UNL     1     -10.802  11.006  67.270  1.00  0.00    -0.248 OA 
HETATM   11  C   UNL     1      -9.587  10.860  65.114  1.00  0.00    -0.291 A  
HETATM   12  C   UNL     1     -10.086  10.349  66.304  1.00  0.00    -0.231 A  
ENDROOT
BRANCH   9  13
HETATM   13  C   UNL     1     -11.773  10.425  69.419  1.00  0.00    -0.231 A  
HETATM   14  C   UNL     1     -11.813  11.785  69.773  1.00  0.00    -0.420 A  
HETATM   15  C   UNL     1     -12.528  12.210  70.891  1.00  0.00    -0.279 A  
HETATM   16 CL   UNL     1     -12.566  13.882  71.292  1.00  0.00    -0.433 Cl 
HETATM   17  C   UNL     1     -13.213  11.293  71.679  1.00  0.00    -0.431 A  
HETATM   18  C   UNL     1     -13.171   9.942  71.340  1.00  0.00    -0.400 A  
HETATM   19 CL   UNL     1     -14.020   8.801  72.310  1.00  0.00    -0.494 Cl 
HETATM   20  C   UNL     1     -12.458   9.503  70.221  1.00  0.00     0.240 A  
ENDBRANCH   9  13
TORSDOF 1
ENDMDL
MODEL      114
REMARK 921   NORMALIZED FREE ENERGY PREDICTED BY IDOCK:   -4.76 KCAL/MOL
REMARK 922        TOTAL FREE ENERGY PREDICTED BY IDOCK:   -5.23 KCAL/MOL
REMARK 923 INTER-LIGAND FREE ENERGY PREDICTED BY IDOCK:   -5.03 KCAL/MOL
REMARK 924 INTRA-LIGAND FREE ENERGY PREDICTED BY IDOCK:   -0.20 KCAL/MOL
REMARK 927      BINDING AFFINITY PREDICTED BY RF-SCORE:    0.00 PKD
ROOT
HETATM    1  O   UNL     1      -8.309  15.631  66.092  1.00  0.00    -0.196 OA 
HETATM    2  C   UNL     1      -9.470  15.063  66.481  1.00  0.00    -0.282 C  
HETATM    3  C   UNL     1      -9.315  13.732  67.118  1.00  0.00    -0.240 A  
HETATM    4  O   UNL     1     -10.553  15.605  66.350  1.00  0.00    -0.301 OA 
HETATM    5  C   UNL     1      -8.295  12.849  66.717  1.00  0.00     0.033 A  
HETATM    6  C   UNL     1      -8.158  11.588  67.313  1.00  0.00    -0.153 A  
HETATM    7  C   UNL     1      -9.078  11.221  68.302  1.00  0.00    -0.173 A  
HETATM    8  N   UNL     1      -9.185  10.071  69.030  1.00  0.00    -0.167 NA 
HETATM    9  C   UNL     1     -10.238  10.278  69.800  1.00  0.00    -0.220 A  
HETATM   10  O   UNL     1     -10.841  11.501  69.627  1.00  0.00    -0.139 OA 
HETATM   11  C   UNL     1     -10.255  13.366  68.103  1.00  0.00    -0.246 A  
HETATM   12  C   UNL     1     -10.086  12.104  68.656  1.00  0.00    -0.151 A  
ENDROOT
BRANCH   9  13
HETATM   13  C   UNL     1     -10.798   9.375  70.800  1.00  0.00    -0.372 A  
HETATM   14  C   UNL     1      -9.942   8.853  71.785  1.00  0.00    -0.397 A  
HETATM   15  C   UNL     1     -10.431   8.008  72.779  1.00  0.00    -0.345 A  
HETATM   16 CL   UNL     1      -9.358   7.394  73.977  1.00  0.00    -0.302 Cl 
HETATM   17  C   UNL     1     -11.777   7.664  72.813  1.00  0.00    -0.276 A  
HETATM   18  C   UNL     1     -12.631   8.169  71.835  1.00  0.00    -0.335 A  
HETATM   19 CL   UNL     1     -14.299   7.750  71.871  1.00  0.00    -0.525 Cl 
HETATM   20  C   UNL     1     -12.153   9.018  70.832  1.00  0.00    -0.247 A  
ENDBRANCH   9  13
TORSDOF 1
ENDMDL
MODEL      115
REMARK 921   NORMALIZED FREE ENERGY PREDICTED BY IDOCK:   -4.73 KCAL/MOL
REMARK 922        TOTAL FREE ENERGY PREDICTED BY IDOCK:   -5.19 KCAL/MOL
REMARK 923 INTER-LIGAND FREE ENERGY PREDICTED BY IDOCK:   -4.98 KCAL/MOL
REMARK 924 INTRA-LIGAND FREE ENERGY PREDICTED BY IDOCK:   -0.21 KCAL/MOL
REMARK 927      BINDING AFFINITY PREDICTED BY RF-SCORE:    0.00 PKD
ROOT
HETATM    1  O   UNL     1     -13.796   9.730  72.752  1.00  0.00    -0.140 OA 
HETATM    2  C   UNL     1     -13.062  10.513  71.935  1.00  0.00    -0.462 C  
HETATM    3  C   UNL     1     -12.203   9.767  70.983  1.00  0.00    -0.436 A  
HETATM    4  O   UNL     1     -13.119  11.730  71.951  1.00  0.00    -0.468 OA 
HETATM    5  C   UNL     1     -11.631   8.530  71.337  1.00  0.00    -0.344 A  
HETATM    6  C   UNL     1     -10.811   7.833  70.439  1.00  0.00    -0.248 A  
HETATM    7  C   UNL     1     -10.557   8.411  69.190  1.00  0.00    -0.163 A  
HETATM    8  N   UNL     1      -9.801   7.965  68.145  1.00  0.00    -0.163 NA 
HETATM    9  C   UNL     1      -9.915   8.919  67.238  1.00  0.00    -0.216 A  
HETATM   10  O   UNL     1     -10.706   9.977  67.619  1.00  0.00    -0.249 OA 
HETATM   11  C   UNL     1     -11.942  10.364  69.733  1.00  0.00    -0.242 A  
HETATM   12  C   UNL     1     -11.116   9.642  68.882  1.00  0.00    -0.059 A  
ENDROOT
BRANCH   9  13
HETATM   13  C   UNL     1      -9.323   8.954  65.905  1.00  0.00    -0.301 A  
HETATM   14  C   UNL     1      -8.490   7.892  65.515  1.00  0.00    -0.153 A  
HETATM   15  C   UNL     1      -7.920   7.861  64.244  1.00  0.00    -0.130 A  
HETATM   16 CL   UNL     1      -6.913   6.540  63.794  1.00  0.00    -0.049 Cl 
HETATM   17  C   UNL     1      -8.164   8.886  63.338  1.00  0.00    -0.181 A  
HETATM   18  C   UNL     1      -8.982   9.948  63.719  1.00  0.00    -0.250 A  
HETATM   19 CL   UNL     1      -9.292  11.220  62.602  1.00  0.00    -0.364 Cl 
HETATM   20  C   UNL     1      -9.560   9.990  64.992  1.00  0.00    -0.362 A  
ENDBRANCH   9  13
TORSDOF 1
ENDMDL
MODEL      116
REMARK 921   NORMALIZED FREE ENERGY PREDICTED BY IDOCK:   -4.71 KCAL/MOL
REMARK 922        TOTAL FREE ENERGY PREDICTED BY IDOCK:   -5.18 KCAL/MOL
REMARK 923 INTER-LIGAND FREE ENERGY PREDICTED BY IDOCK:   -4.98 KCAL/MOL
REMARK 924 INTRA-LIGAND FREE ENERGY PREDICTED BY IDOCK:   -0.21 KCAL/MOL
REMARK 927      BINDING AFFINITY PREDICTED BY RF-SCORE:    0.00 PKD
ROOT
HETATM    1  O   UNL     1      -8.680   3.008  63.299  1.00  0.00    -0.089 OA 
HETATM    2  C   UNL     1      -9.791   3.523  63.865  1.00  0.00    -0.171 C  
HETATM    3  C   UNL     1      -9.695   3.718  65.333  1.00  0.00    -0.157 A  
HETATM    4  O   UNL     1     -10.782   3.833  63.227  1.00  0.00    -0.232 OA 
HETATM    5  C   UNL     1      -8.939   2.842  66.134  1.00  0.00    -0.149 A  
HETATM    6  C   UNL     1      -8.859   3.023  67.522  1.00  0.00    -0.163 A  
HETATM    7  C   UNL     1      -9.570   4.085  68.092  1.00  0.00    -0.128 A  
HETATM    8  N   UNL     1      -9.677   4.481  69.394  1.00  0.00    -0.195 NA 
HETATM    9  C   UNL     1     -10.481   5.528  69.343  1.00  0.00    -0.290 A  
HETATM   10  O   UNL     1     -10.918   5.853  68.081  1.00  0.00    -0.274 OA 
HETATM   11  C   UNL     1     -10.426   4.782  65.900  1.00  0.00    -0.313 A  
HETATM   12  C   UNL     1     -10.325   4.915  67.278  1.00  0.00    -0.094 A  
ENDROOT
BRANCH   9  13
HETATM   13  C   UNL     1     -10.925   6.362  70.456  1.00  0.00    -0.364 A  
HETATM   14  C   UNL     1      -9.982   6.737  71.428  1.00  0.00    -0.191 A  
HETATM   15  C   UNL     1     -10.346   7.555  72.496  1.00  0.00    -0.240 A  
HETATM   16 CL   UNL     1      -9.165   8.004  73.664  1.00  0.00    -0.324 Cl 
HETATM   17  C   UNL     1     -11.652   8.013  72.619  1.00  0.00    -0.448 A  
HETATM   18  C   UNL     1     -12.595   7.639  71.664  1.00  0.00    -0.339 A  
HETATM   19 CL   UNL     1     -14.214   8.205  71.808  1.00  0.00    -0.505 Cl 
HETATM   20  C   UNL     1     -12.243   6.819  70.588  1.00  0.00    -0.312 A  
ENDBRANCH   9  13
TORSDOF 1
ENDMDL
MODEL      117
REMARK 921   NORMALIZED FREE ENERGY PREDICTED BY IDOCK:   -4.69 KCAL/MOL
REMARK 922        TOTAL FREE ENERGY PREDICTED BY IDOCK:   -5.15 KCAL/MOL
REMARK 923 INTER-LIGAND FREE ENERGY PREDICTED BY IDOCK:   -4.94 KCAL/MOL
REMARK 924 INTRA-LIGAND FREE ENERGY PREDICTED BY IDOCK:   -0.21 KCAL/MOL
REMARK 927      BINDING AFFINITY PREDICTED BY RF-SCORE:    0.00 PKD
ROOT
HETATM    1  O   UNL     1      -7.753   4.182  66.608  1.00  0.00    -0.088 OA 
HETATM    2  C   UNL     1      -8.347   5.064  65.778  1.00  0.00    -0.118 C  
HETATM    3  C   UNL     1      -9.063   6.166  66.467  1.00  0.00    -0.156 A  
HETATM    4  O   UNL     1      -8.279   4.985  64.564  1.00  0.00    -0.113 OA 
HETATM    5  C   UNL     1      -9.695   5.957  67.707  1.00  0.00    -0.124 A  
HETATM    6  C   UNL     1     -10.380   6.997  68.351  1.00  0.00    -0.216 A  
HETATM    7  C   UNL     1     -10.437   8.243  67.716  1.00  0.00    -0.215 A  
HETATM    8  N   UNL     1     -11.034   9.408  68.103  1.00  0.00    -0.114 NA 
HETATM    9  C   UNL     1     -10.773  10.244  67.114  1.00  0.00    -0.241 A  
HETATM   10  O   UNL     1     -10.037   9.703  66.088  1.00  0.00    -0.277 OA 
HETATM   11  C   UNL     1      -9.127   7.413  65.813  1.00  0.00    -0.006 A  
HETATM   12  C   UNL     1      -9.824   8.408  66.484  1.00  0.00    -0.268 A  
ENDROOT
BRANCH   9  13
HETATM   13  C   UNL     1     -11.160  11.648  67.012  1.00  0.00    -0.359 A  
HETATM   14  C   UNL     1     -11.166  12.426  68.182  1.00  0.00    -0.313 A  
HETATM   15  C   UNL     1     -11.500  13.778  68.136  1.00  0.00    -0.313 A  
HETATM   16 CL   UNL     1     -11.488  14.707  69.585  1.00  0.00    -0.308 Cl 
HETATM   17  C   UNL     1     -11.836  14.381  66.930  1.00  0.00    -0.433 A  
HETATM   18  C   UNL     1     -11.841  13.614  65.767  1.00  0.00    -0.371 A  
HETATM   19 CL   UNL     1     -12.254  14.353  64.269  1.00  0.00    -0.496 Cl 
HETATM   20  C   UNL     1     -11.508  12.256  65.799  1.00  0.00    -0.417 A  
ENDBRANCH   9  13
TORSDOF 1
ENDMDL
MODEL      118
REMARK 921   NORMALIZED FREE ENERGY PREDICTED BY IDOCK:   -4.66 KCAL/MOL
REMARK 922        TOTAL FREE ENERGY PREDICTED BY IDOCK:   -5.13 KCAL/MOL
REMARK 923 INTER-LIGAND FREE ENERGY PREDICTED BY IDOCK:   -4.93 KCAL/MOL
REMARK 924 INTRA-LIGAND FREE ENERGY PREDICTED BY IDOCK:   -0.20 KCAL/MOL
REMARK 927      BINDING AFFINITY PREDICTED BY RF-SCORE:    0.00 PKD
ROOT
HETATM    1  O   UNL     1     -10.607  20.839  69.332  1.00  0.00     0.218 OA 
HETATM    2  C   UNL     1     -10.141  20.286  68.193  1.00  0.00    -0.278 C  
HETATM    3  C   UNL     1     -10.161  18.802  68.182  1.00  0.00    -0.433 A  
HETATM    4  O   UNL     1      -9.763  20.943  67.240  1.00  0.00    -0.458 OA 
HETATM    5  C   UNL     1      -9.952  18.064  69.361  1.00  0.00     0.036 A  
HETATM    6  C   UNL     1      -9.962  16.662  69.345  1.00  0.00    -0.162 A  
HETATM    7  C   UNL     1     -10.162  16.017  68.119  1.00  0.00    -0.243 A  
HETATM    8  N   UNL     1     -10.208  14.687  67.816  1.00  0.00    -0.228 NA 
HETATM    9  C   UNL     1     -10.411  14.664  66.510  1.00  0.00    -0.290 A  
HETATM   10  O   UNL     1     -10.504  15.904  65.925  1.00  0.00    -0.324 OA 
HETATM   11  C   UNL     1     -10.350  18.161  66.940  1.00  0.00    -0.386 A  
HETATM   12  C   UNL     1     -10.340  16.774  66.972  1.00  0.00    -0.300 A  
ENDROOT
BRANCH   9  13
HETATM   13  C   UNL     1     -10.564  13.492  65.655  1.00  0.00    -0.284 A  
HETATM   14  C   UNL     1      -9.561  12.508  65.683  1.00  0.00    -0.099 A  
HETATM   15  C   UNL     1      -9.670  11.356  64.907  1.00  0.00    -0.247 A  
HETATM   16 CL   UNL     1      -8.430  10.165  64.973  1.00  0.00    -0.158 Cl 
HETATM   17  C   UNL     1     -10.774  11.161  64.087  1.00  0.00    -0.415 A  
HETATM   18  C   UNL     1     -11.769  12.136  64.046  1.00  0.00    -0.430 A  
HETATM   19 CL   UNL     1     -13.142  11.900  63.034  1.00  0.00    -0.058 Cl 
HETATM   20  C   UNL     1     -11.672  13.296  64.820  1.00  0.00    -0.390 A  
ENDBRANCH   9  13
TORSDOF 1
ENDMDL
MODEL      119
REMARK 921   NORMALIZED FREE ENERGY PREDICTED BY IDOCK:   -4.66 KCAL/MOL
REMARK 922        TOTAL FREE ENERGY PREDICTED BY IDOCK:   -5.12 KCAL/MOL
REMARK 923 INTER-LIGAND FREE ENERGY PREDICTED BY IDOCK:   -4.92 KCAL/MOL
REMARK 924 INTRA-LIGAND FREE ENERGY PREDICTED BY IDOCK:   -0.20 KCAL/MOL
REMARK 927      BINDING AFFINITY PREDICTED BY RF-SCORE:    0.00 PKD
ROOT
HETATM    1  O   UNL     1      -8.170   7.017  64.837  1.00  0.00    -0.132 OA 
HETATM    2  C   UNL     1      -7.596   8.083  65.433  1.00  0.00    -0.083 C  
HETATM    3  C   UNL     1      -8.378   9.339  65.322  1.00  0.00    -0.151 A  
HETATM    4  O   UNL     1      -6.541   8.019  66.038  1.00  0.00    -0.046 OA 
HETATM    5  C   UNL     1      -9.160   9.609  64.183  1.00  0.00    -0.256 A  
HETATM    6  C   UNL     1      -9.889  10.802  64.076  1.00  0.00    -0.390 A  
HETATM    7  C   UNL     1      -9.800  11.726  65.123  1.00  0.00    -0.235 A  
HETATM    8  N   UNL     1     -10.385  12.950  65.276  1.00  0.00    -0.296 NA 
HETATM    9  C   UNL     1      -9.939  13.374  66.445  1.00  0.00    -0.293 A  
HETATM   10  O   UNL     1      -9.088  12.502  67.081  1.00  0.00    -0.190 OA 
HETATM   11  C   UNL     1      -8.272  10.270  66.375  1.00  0.00    -0.129 A  
HETATM   12  C   UNL     1      -9.003  11.440  66.220  1.00  0.00    -0.200 A  
ENDROOT
BRANCH   9  13
HETATM   13  C   UNL     1     -10.263  14.627  67.119  1.00  0.00    -0.256 A  
HETATM   14  C   UNL     1     -10.106  15.829  66.408  1.00  0.00    -0.305 A  
HETATM   15  C   UNL     1     -10.426  17.051  66.994  1.00  0.00    -0.279 A  
HETATM   16 CL   UNL     1     -10.233  18.504  66.093  1.00  0.00    -0.427 Cl 
HETATM   17  C   UNL     1     -10.906  17.103  68.297  1.00  0.00    -0.314 A  
HETATM   18  C   UNL     1     -11.056  15.917  69.013  1.00  0.00    -0.294 A  
HETATM   19 CL   UNL     1     -11.652  15.973  70.626  1.00  0.00    -0.407 Cl 
HETATM   20  C   UNL     1     -10.738  14.684  68.436  1.00  0.00    -0.242 A  
ENDBRANCH   9  13
TORSDOF 1
ENDMDL
MODEL      120
REMARK 921   NORMALIZED FREE ENERGY PREDICTED BY IDOCK:   -4.64 KCAL/MOL
REMARK 922        TOTAL FREE ENERGY PREDICTED BY IDOCK:   -5.11 KCAL/MOL
REMARK 923 INTER-LIGAND FREE ENERGY PREDICTED BY IDOCK:   -4.90 KCAL/MOL
REMARK 924 INTRA-LIGAND FREE ENERGY PREDICTED BY IDOCK:   -0.21 KCAL/MOL
REMARK 927      BINDING AFFINITY PREDICTED BY RF-SCORE:    0.00 PKD
ROOT
HETATM    1  O   UNL     1      -8.789   2.920  63.118  1.00  0.00    -0.088 OA 
HETATM    2  C   UNL     1      -9.876   3.420  63.742  1.00  0.00    -0.162 C  
HETATM    3  C   UNL     1      -9.699   3.635  65.199  1.00  0.00    -0.157 A  
HETATM    4  O   UNL     1     -10.908   3.701  63.159  1.00  0.00    -0.213 OA 
HETATM    5  C   UNL     1      -8.879   2.785  65.965  1.00  0.00    -0.136 A  
HETATM    6  C   UNL     1      -8.722   2.984  67.343  1.00  0.00    -0.139 A  
HETATM    7  C   UNL     1      -9.421   4.039  67.942  1.00  0.00    -0.173 A  
HETATM    8  N   UNL     1      -9.461   4.449  69.243  1.00  0.00    -0.164 NA 
HETATM    9  C   UNL     1     -10.288   5.479  69.227  1.00  0.00    -0.265 A  
HETATM   10  O   UNL     1     -10.804   5.780  67.989  1.00  0.00    -0.242 OA 
HETATM   11  C   UNL     1     -10.418   4.692  65.795  1.00  0.00    -0.290 A  
HETATM   12  C   UNL     1     -10.239   4.843  67.164  1.00  0.00    -0.162 A  
ENDROOT
BRANCH   9  13
HETATM   13  C   UNL     1     -10.684   6.319  70.354  1.00  0.00    -0.329 A  
HETATM   14  C   UNL     1     -12.033   6.694  70.468  1.00  0.00    -0.377 A  
HETATM   15  C   UNL     1     -12.470   7.471  71.539  1.00  0.00    -0.346 A  
HETATM   16 CL   UNL     1     -14.131   7.904  71.654  1.00  0.00    -0.498 Cl 
HETATM   17  C   UNL     1     -11.574   7.892  72.514  1.00  0.00    -0.443 A  
HETATM   18  C   UNL     1     -10.233   7.532  72.405  1.00  0.00    -0.212 A  
HETATM   19 CL   UNL     1      -9.118   8.048  73.610  1.00  0.00    -0.329 Cl 
HETATM   20  C   UNL     1      -9.782   6.753  71.335  1.00  0.00    -0.177 A  
ENDBRANCH   9  13
TORSDOF 1
ENDMDL
MODEL      121
REMARK 921   NORMALIZED FREE ENERGY PREDICTED BY IDOCK:   -4.64 KCAL/MOL
REMARK 922        TOTAL FREE ENERGY PREDICTED BY IDOCK:   -5.11 KCAL/MOL
REMARK 923 INTER-LIGAND FREE ENERGY PREDICTED BY IDOCK:   -4.93 KCAL/MOL
REMARK 924 INTRA-LIGAND FREE ENERGY PREDICTED BY IDOCK:   -0.18 KCAL/MOL
REMARK 927      BINDING AFFINITY PREDICTED BY RF-SCORE:    0.00 PKD
ROOT
HETATM    1  O   UNL     1     -10.354  18.726  66.183  1.00  0.00    -0.419 OA 
HETATM    2  C   UNL     1     -10.522  17.609  65.446  1.00  0.00     0.096 C  
HETATM    3  C   UNL     1      -9.845  16.407  65.994  1.00  0.00    -0.362 A  
HETATM    4  O   UNL     1     -11.197  17.575  64.432  1.00  0.00    -0.860 OA 
HETATM    5  C   UNL     1      -8.626  16.515  66.689  1.00  0.00    -0.289 A  
HETATM    6  C   UNL     1      -7.983  15.377  67.196  1.00  0.00    -0.251 A  
HETATM    7  C   UNL     1      -8.575  14.128  66.971  1.00  0.00    -0.184 A  
HETATM    8  N   UNL     1      -8.169  12.877  67.336  1.00  0.00    -0.179 NA 
HETATM    9  C   UNL     1      -9.105  12.083  66.849  1.00  0.00    -0.196 A  
HETATM   10  O   UNL     1     -10.113  12.733  66.179  1.00  0.00    -0.256 OA 
HETATM   11  C   UNL     1     -10.441  15.153  65.750  1.00  0.00    -0.355 A  
HETATM   12  C   UNL     1      -9.763  14.055  66.261  1.00  0.00    -0.295 A  
ENDROOT
BRANCH   9  13
HETATM   13  C   UNL     1      -9.187  10.630  66.964  1.00  0.00    -0.167 A  
HETATM   14  C   UNL     1      -9.833  10.083  68.085  1.00  0.00    -0.162 A  
HETATM   15  C   UNL     1      -9.963   8.703  68.231  1.00  0.00    -0.180 A  
HETATM   16 CL   UNL     1     -10.769   8.065  69.610  1.00  0.00    -0.232 Cl 
HETATM   17  C   UNL     1      -9.451   7.843  67.267  1.00  0.00    -0.188 A  
HETATM   18  C   UNL     1      -8.802   8.376  66.156  1.00  0.00    -0.165 A  
HETATM   19 CL   UNL     1      -8.168   7.317  64.958  1.00  0.00    -0.127 Cl 
HETATM   20  C   UNL     1      -8.665   9.759  65.999  1.00  0.00    -0.156 A  
ENDBRANCH   9  13
TORSDOF 1
ENDMDL
MODEL      122
REMARK 921   NORMALIZED FREE ENERGY PREDICTED BY IDOCK:   -4.64 KCAL/MOL
REMARK 922        TOTAL FREE ENERGY PREDICTED BY IDOCK:   -5.11 KCAL/MOL
REMARK 923 INTER-LIGAND FREE ENERGY PREDICTED BY IDOCK:   -4.90 KCAL/MOL
REMARK 924 INTRA-LIGAND FREE ENERGY PREDICTED BY IDOCK:   -0.20 KCAL/MOL
REMARK 927      BINDING AFFINITY PREDICTED BY RF-SCORE:    0.00 PKD
ROOT
HETATM    1  O   UNL     1      -6.985   5.403  72.718  1.00  0.00    -0.078 OA 
HETATM    2  C   UNL     1      -7.371   5.715  71.464  1.00  0.00    -0.087 C  
HETATM    3  C   UNL     1      -8.376   6.804  71.387  1.00  0.00    -0.119 A  
HETATM    4  O   UNL     1      -6.915   5.174  70.473  1.00  0.00    -0.042 OA 
HETATM    5  C   UNL     1      -9.345   6.970  72.395  1.00  0.00    -0.152 A  
HETATM    6  C   UNL     1     -10.300   7.994  72.314  1.00  0.00    -0.336 A  
HETATM    7  C   UNL     1     -10.278   8.830  71.192  1.00  0.00    -0.246 A  
HETATM    8  N   UNL     1     -11.082   9.881  70.856  1.00  0.00    -0.340 NA 
HETATM    9  C   UNL     1     -10.607  10.286  69.692  1.00  0.00    -0.256 A  
HETATM   10  O   UNL     1      -9.532   9.564  69.231  1.00  0.00    -0.155 OA 
HETATM   11  C   UNL     1      -8.356   7.633  70.247  1.00  0.00    -0.132 A  
HETATM   12  C   UNL     1      -9.327   8.624  70.206  1.00  0.00    -0.167 A  
ENDROOT
BRANCH   9  13
HETATM   13  C   UNL     1     -11.081  11.401  68.878  1.00  0.00    -0.290 A  
HETATM   14  C   UNL     1     -11.326  12.633  69.508  1.00  0.00    -0.227 A  
HETATM   15  C   UNL     1     -11.753  13.737  68.774  1.00  0.00    -0.356 A  
HETATM   16 CL   UNL     1     -12.034  15.234  69.574  1.00  0.00    -0.356 Cl 
HETATM   17  C   UNL     1     -11.947  13.638  67.402  1.00  0.00    -0.413 A  
HETATM   18  C   UNL     1     -11.715  12.418  66.770  1.00  0.00    -0.362 A  
HETATM   19 CL   UNL     1     -11.951  12.288  65.070  1.00  0.00    -0.430 Cl 
HETATM   20  C   UNL     1     -11.286  11.302  67.495  1.00  0.00    -0.360 A  
ENDBRANCH   9  13
TORSDOF 1
ENDMDL
MODEL      123
REMARK 921   NORMALIZED FREE ENERGY PREDICTED BY IDOCK:   -4.63 KCAL/MOL
REMARK 922        TOTAL FREE ENERGY PREDICTED BY IDOCK:   -5.09 KCAL/MOL
REMARK 923 INTER-LIGAND FREE ENERGY PREDICTED BY IDOCK:   -4.90 KCAL/MOL
REMARK 924 INTRA-LIGAND FREE ENERGY PREDICTED BY IDOCK:   -0.20 KCAL/MOL
REMARK 927      BINDING AFFINITY PREDICTED BY RF-SCORE:    0.00 PKD
ROOT
HETATM    1  O   UNL     1      -9.822   3.268  73.651  1.00  0.00    -0.104 OA 
HETATM    2  C   UNL     1     -10.862   4.071  73.342  1.00  0.00    -0.236 C  
HETATM    3  C   UNL     1     -10.473   5.439  72.918  1.00  0.00    -0.250 A  
HETATM    4  O   UNL     1     -12.022   3.701  73.377  1.00  0.00     0.044 OA 
HETATM    5  C   UNL     1      -9.339   6.072  73.460  1.00  0.00    -0.134 A  
HETATM    6  C   UNL     1      -8.981   7.369  73.065  1.00  0.00    -0.190 A  
HETATM    7  C   UNL     1      -9.795   8.024  72.134  1.00  0.00    -0.223 A  
HETATM    8  N   UNL     1      -9.690   9.272  71.590  1.00  0.00    -0.269 NA 
HETATM    9  C   UNL     1     -10.735   9.358  70.786  1.00  0.00    -0.305 A  
HETATM   10  O   UNL     1     -11.532   8.239  70.764  1.00  0.00    -0.271 OA 
HETATM   11  C   UNL     1     -11.307   6.096  71.991  1.00  0.00    -0.348 A  
HETATM   12  C   UNL     1     -10.918   7.381  71.639  1.00  0.00    -0.225 A  
ENDROOT
BRANCH   9  13
HETATM   13  C   UNL     1     -11.108  10.480  69.930  1.00  0.00    -0.371 A  
HETATM   14  C   UNL     1     -10.892  10.366  68.547  1.00  0.00    -0.278 A  
HETATM   15  C   UNL     1     -11.255  11.396  67.681  1.00  0.00    -0.283 A  
HETATM   16 CL   UNL     1     -10.987  11.221  65.991  1.00  0.00    -0.283 Cl 
HETATM   17  C   UNL     1     -11.835  12.558  68.174  1.00  0.00    -0.371 A  
HETATM   18  C   UNL     1     -12.045  12.683  69.546  1.00  0.00    -0.192 A  
HETATM   19 CL   UNL     1     -12.766  14.118  70.163  1.00  0.00    -0.315 Cl 
HETATM   20  C   UNL     1     -11.686  11.657  70.425  1.00  0.00    -0.292 A  
ENDBRANCH   9  13
TORSDOF 1
ENDMDL
MODEL      124
REMARK 921   NORMALIZED FREE ENERGY PREDICTED BY IDOCK:   -4.62 KCAL/MOL
REMARK 922        TOTAL FREE ENERGY PREDICTED BY IDOCK:   -5.08 KCAL/MOL
REMARK 923 INTER-LIGAND FREE ENERGY PREDICTED BY IDOCK:   -4.87 KCAL/MOL
REMARK 924 INTRA-LIGAND FREE ENERGY PREDICTED BY IDOCK:   -0.21 KCAL/MOL
REMARK 927      BINDING AFFINITY PREDICTED BY RF-SCORE:    0.00 PKD
ROOT
HETATM    1  O   UNL     1     -13.965  12.816  72.243  1.00  0.00    -0.405 OA 
HETATM    2  C   UNL     1     -12.885  12.837  71.434  1.00  0.00    -0.275 C  
HETATM    3  C   UNL     1     -12.383  11.494  71.049  1.00  0.00    -0.434 A  
HETATM    4  O   UNL     1     -12.380  13.867  71.025  1.00  0.00    -0.346 OA 
HETATM    5  C   UNL     1     -12.474  10.404  71.935  1.00  0.00    -0.291 A  
HETATM    6  C   UNL     1     -11.990   9.139  71.573  1.00  0.00    -0.422 A  
HETATM    7  C   UNL     1     -11.391   8.996  70.316  1.00  0.00    -0.178 A  
HETATM    8  N   UNL     1     -10.835   7.902  69.720  1.00  0.00    -0.235 NA 
HETATM    9  C   UNL     1     -10.420   8.352  68.549  1.00  0.00    -0.164 A  
HETATM   10  O   UNL     1     -10.668   9.686  68.330  1.00  0.00    -0.226 OA 
HETATM   11  C   UNL     1     -11.770  11.363  69.787  1.00  0.00    -0.418 A  
HETATM   12  C   UNL     1     -11.295  10.096  69.478  1.00  0.00    -0.206 A  
ENDROOT
BRANCH   9  13
HETATM   13  C   UNL     1      -9.763   7.596  67.488  1.00  0.00    -0.197 A  
HETATM   14  C   UNL     1      -9.876   6.195  67.496  1.00  0.00    -0.140 A  
HETATM   15  C   UNL     1      -9.291   5.427  66.492  1.00  0.00    -0.145 A  
HETATM   16 CL   UNL     1      -9.456   3.715  66.525  1.00  0.00    -0.202 Cl 
HETATM   17  C   UNL     1      -8.583   6.034  65.463  1.00  0.00    -0.145 A  
HETATM   18  C   UNL     1      -8.459   7.422  65.451  1.00  0.00    -0.092 A  
HETATM   19 CL   UNL     1      -7.585   8.182  64.178  1.00  0.00    -0.120 Cl 
HETATM   20  C   UNL     1      -9.041   8.205  66.453  1.00  0.00    -0.226 A  
ENDBRANCH   9  13
TORSDOF 1
ENDMDL
MODEL      125
REMARK 921   NORMALIZED FREE ENERGY PREDICTED BY IDOCK:   -4.58 KCAL/MOL
REMARK 922        TOTAL FREE ENERGY PREDICTED BY IDOCK:   -5.04 KCAL/MOL
REMARK 923 INTER-LIGAND FREE ENERGY PREDICTED BY IDOCK:   -4.82 KCAL/MOL
REMARK 924 INTRA-LIGAND FREE ENERGY PREDICTED BY IDOCK:   -0.22 KCAL/MOL
REMARK 927      BINDING AFFINITY PREDICTED BY RF-SCORE:    0.00 PKD
ROOT
HETATM    1  O   UNL     1     -11.692  14.950  66.317  1.00  0.00    -0.297 OA 
HETATM    2  C   UNL     1     -10.801  14.014  65.933  1.00  0.00    -0.288 C  
HETATM    3  C   UNL     1     -10.849  12.761  66.727  1.00  0.00    -0.289 A  
HETATM    4  O   UNL     1     -10.038  14.166  64.994  1.00  0.00    -0.383 OA 
HETATM    5  C   UNL     1     -11.177  12.782  68.095  1.00  0.00    -0.310 A  
HETATM    6  C   UNL     1     -11.211  11.598  68.845  1.00  0.00    -0.306 A  
HETATM    7  C   UNL     1     -10.887  10.398  68.201  1.00  0.00    -0.264 A  
HETATM    8  N   UNL     1     -10.831   9.122  68.683  1.00  0.00    -0.113 NA 
HETATM    9  C   UNL     1     -10.462   8.403  67.637  1.00  0.00    -0.239 A  
HETATM   10  O   UNL     1     -10.269   9.127  66.486  1.00  0.00    -0.278 OA 
HETATM   11  C   UNL     1     -10.507  11.560  66.073  1.00  0.00    -0.298 A  
HETATM   12  C   UNL     1     -10.544  10.416  66.859  1.00  0.00    -0.230 A  
ENDROOT
BRANCH   9  13
HETATM   13  C   UNL     1     -10.265   6.958  67.578  1.00  0.00    -0.249 A  
HETATM   14  C   UNL     1     -10.391   6.316  66.334  1.00  0.00    -0.072 A  
HETATM   15  C   UNL     1     -10.186   4.943  66.216  1.00  0.00    -0.279 A  
HETATM   16 CL   UNL     1     -10.338   4.189  64.677  1.00  0.00    -0.222 Cl 
HETATM   17  C   UNL     1      -9.854   4.182  67.330  1.00  0.00    -0.152 A  
HETATM   18  C   UNL     1      -9.735   4.809  68.569  1.00  0.00    -0.151 A  
HETATM   19 CL   UNL     1      -9.322   3.874  69.953  1.00  0.00    -0.227 Cl 
HETATM   20  C   UNL     1      -9.939   6.186  68.701  1.00  0.00    -0.176 A  
ENDBRANCH   9  13
TORSDOF 1
ENDMDL
MODEL      126
REMARK 921   NORMALIZED FREE ENERGY PREDICTED BY IDOCK:   -4.56 KCAL/MOL
REMARK 922        TOTAL FREE ENERGY PREDICTED BY IDOCK:   -5.02 KCAL/MOL
REMARK 923 INTER-LIGAND FREE ENERGY PREDICTED BY IDOCK:   -4.82 KCAL/MOL
REMARK 924 INTRA-LIGAND FREE ENERGY PREDICTED BY IDOCK:   -0.21 KCAL/MOL
REMARK 927      BINDING AFFINITY PREDICTED BY RF-SCORE:    0.00 PKD
ROOT
HETATM    1  O   UNL     1      -6.611   7.460  63.691  1.00  0.00    -0.051 OA 
HETATM    2  C   UNL     1      -7.844   7.987  63.836  1.00  0.00    -0.142 C  
HETATM    3  C   UNL     1      -8.344   7.997  65.234  1.00  0.00    -0.151 A  
HETATM    4  O   UNL     1      -8.486   8.446  62.908  1.00  0.00    -0.156 OA 
HETATM    5  C   UNL     1      -7.994   6.976  66.137  1.00  0.00    -0.110 A  
HETATM    6  C   UNL     1      -8.477   6.983  67.453  1.00  0.00    -0.122 A  
HETATM    7  C   UNL     1      -9.334   8.020  67.838  1.00  0.00    -0.138 A  
HETATM    8  N   UNL     1      -9.948   8.264  69.032  1.00  0.00    -0.184 NA 
HETATM    9  C   UNL     1     -10.640   9.368  68.814  1.00  0.00    -0.208 A  
HETATM   10  O   UNL     1     -10.524   9.875  67.542  1.00  0.00    -0.220 OA 
HETATM   11  C   UNL     1      -9.218   9.039  65.608  1.00  0.00    -0.288 A  
HETATM   12  C   UNL     1      -9.678   8.997  66.916  1.00  0.00    -0.200 A  
ENDROOT
BRANCH   9  13
HETATM   13  C   UNL     1     -11.476  10.095  69.765  1.00  0.00    -0.288 A  
HETATM   14  C   UNL     1     -12.288   9.357  70.643  1.00  0.00    -0.094 A  
HETATM   15  C   UNL     1     -13.085   9.999  71.588  1.00  0.00    -0.445 A  
HETATM   16 CL   UNL     1     -14.059   9.065  72.656  1.00  0.00    -0.451 Cl 
HETATM   17  C   UNL     1     -13.092  11.386  71.678  1.00  0.00    -0.498 A  
HETATM   18  C   UNL     1     -12.297  12.126  70.805  1.00  0.00    -0.297 A  
HETATM   19 CL   UNL     1     -12.299  13.844  70.912  1.00  0.00    -0.431 Cl 
HETATM   20  C   UNL     1     -11.493  11.493  69.852  1.00  0.00    -0.340 A  
ENDBRANCH   9  13
TORSDOF 1
ENDMDL
MODEL      127
REMARK 921   NORMALIZED FREE ENERGY PREDICTED BY IDOCK:   -4.55 KCAL/MOL
REMARK 922        TOTAL FREE ENERGY PREDICTED BY IDOCK:   -5.00 KCAL/MOL
REMARK 923 INTER-LIGAND FREE ENERGY PREDICTED BY IDOCK:   -4.80 KCAL/MOL
REMARK 924 INTRA-LIGAND FREE ENERGY PREDICTED BY IDOCK:   -0.21 KCAL/MOL
REMARK 927      BINDING AFFINITY PREDICTED BY RF-SCORE:    0.00 PKD
ROOT
HETATM    1  O   UNL     1     -10.377  12.897  63.920  1.00  0.00    -0.409 OA 
HETATM    2  C   UNL     1     -11.170  12.311  64.840  1.00  0.00    -0.319 C  
HETATM    3  C   UNL     1     -10.581  11.108  65.478  1.00  0.00    -0.289 A  
HETATM    4  O   UNL     1     -12.265  12.746  65.149  1.00  0.00    -0.426 OA 
HETATM    5  C   UNL     1      -9.726  10.251  64.760  1.00  0.00    -0.397 A  
HETATM    6  C   UNL     1      -9.179   9.109  65.362  1.00  0.00    -0.266 A  
HETATM    7  C   UNL     1      -9.527   8.831  66.690  1.00  0.00    -0.203 A  
HETATM    8  N   UNL     1      -9.156   7.801  67.505  1.00  0.00    -0.129 NA 
HETATM    9  C   UNL     1      -9.793   8.046  68.637  1.00  0.00    -0.174 A  
HETATM   10  O   UNL     1     -10.568   9.180  68.623  1.00  0.00    -0.215 OA 
HETATM   11  C   UNL     1     -10.948  10.829  66.811  1.00  0.00    -0.214 A  
HETATM   12  C   UNL     1     -10.391   9.682  67.360  1.00  0.00    -0.247 A  
ENDROOT
BRANCH   9  13
HETATM   13  C   UNL     1      -9.743   7.267  69.870  1.00  0.00    -0.174 A  
HETATM   14  C   UNL     1      -9.693   5.866  69.775  1.00  0.00    -0.202 A  
HETATM   15  C   UNL     1      -9.616   5.076  70.920  1.00  0.00    -0.179 A  
HETATM   16 CL   UNL     1      -9.545   3.363  70.770  1.00  0.00    -0.241 Cl 
HETATM   17  C   UNL     1      -9.591   5.662  72.180  1.00  0.00    -0.170 A  
HETATM   18  C   UNL     1      -9.650   7.050  72.284  1.00  0.00    -0.149 A  
HETATM   19 CL   UNL     1      -9.616   7.784  73.840  1.00  0.00    -0.214 Cl 
HETATM   20  C   UNL     1      -9.726   7.854  71.142  1.00  0.00    -0.182 A  
ENDBRANCH   9  13
TORSDOF 1
ENDMDL
MODEL      128
REMARK 921   NORMALIZED FREE ENERGY PREDICTED BY IDOCK:   -4.53 KCAL/MOL
REMARK 922        TOTAL FREE ENERGY PREDICTED BY IDOCK:   -4.99 KCAL/MOL
REMARK 923 INTER-LIGAND FREE ENERGY PREDICTED BY IDOCK:   -4.78 KCAL/MOL
REMARK 924 INTRA-LIGAND FREE ENERGY PREDICTED BY IDOCK:   -0.21 KCAL/MOL
REMARK 927      BINDING AFFINITY PREDICTED BY RF-SCORE:    0.00 PKD
ROOT
HETATM    1  O   UNL     1      -6.615  20.516  69.588  1.00  0.00    -0.167 OA 
HETATM    2  C   UNL     1      -7.255  20.191  68.446  1.00  0.00    -0.224 C  
HETATM    3  C   UNL     1      -7.334  18.733  68.184  1.00  0.00    -0.281 A  
HETATM    4  O   UNL     1      -7.754  21.018  67.704  1.00  0.00    -0.221 OA 
HETATM    5  C   UNL     1      -6.301  17.865  68.585  1.00  0.00    -0.209 A  
HETATM    6  C   UNL     1      -6.374  16.490  68.326  1.00  0.00    -0.129 A  
HETATM    7  C   UNL     1      -7.492  16.005  67.637  1.00  0.00    -0.150 A  
HETATM    8  N   UNL     1      -7.812  14.736  67.249  1.00  0.00    -0.199 NA 
HETATM    9  C   UNL     1      -8.971  14.875  66.630  1.00  0.00    -0.270 A  
HETATM   10  O   UNL     1      -9.442  16.165  66.582  1.00  0.00    -0.222 OA 
HETATM   11  C   UNL     1      -8.457  18.256  67.477  1.00  0.00    -0.252 A  
HETATM   12  C   UNL     1      -8.480  16.890  67.234  1.00  0.00    -0.196 A  
ENDROOT
BRANCH   9  13
HETATM   13  C   UNL     1      -9.787  13.826  66.027  1.00  0.00    -0.298 A  
HETATM   14  C   UNL     1      -9.879  12.588  66.686  1.00  0.00    -0.245 A  
HETATM   15  C   UNL     1     -10.667  11.561  66.169  1.00  0.00    -0.274 A  
HETATM   16 CL   UNL     1     -10.767  10.062  67.006  1.00  0.00    -0.279 Cl 
HETATM   17  C   UNL     1     -11.374  11.744  64.987  1.00  0.00    -0.288 A  
HETATM   18  C   UNL     1     -11.281  12.965  64.322  1.00  0.00    -0.367 A  
HETATM   19 CL   UNL     1     -12.156  13.199  62.859  1.00  0.00    -0.059 Cl 
HETATM   20  C   UNL     1     -10.494  14.003  64.831  1.00  0.00    -0.453 A  
ENDBRANCH   9  13
TORSDOF 1
ENDMDL
MODEL      129
REMARK 921   NORMALIZED FREE ENERGY PREDICTED BY IDOCK:   -4.50 KCAL/MOL
REMARK 922        TOTAL FREE ENERGY PREDICTED BY IDOCK:   -4.96 KCAL/MOL
REMARK 923 INTER-LIGAND FREE ENERGY PREDICTED BY IDOCK:   -4.76 KCAL/MOL
REMARK 924 INTRA-LIGAND FREE ENERGY PREDICTED BY IDOCK:   -0.20 KCAL/MOL
REMARK 927      BINDING AFFINITY PREDICTED BY RF-SCORE:    0.00 PKD
ROOT
HETATM    1  O   UNL     1     -10.221   5.503  66.174  1.00  0.00    -0.157 OA 
HETATM    2  C   UNL     1     -10.535   6.398  67.133  1.00  0.00    -0.277 C  
HETATM    3  C   UNL     1     -10.071   7.780  66.855  1.00  0.00    -0.356 A  
HETATM    4  O   UNL     1     -11.172   6.110  68.131  1.00  0.00    -0.314 OA 
HETATM    5  C   UNL     1      -8.874   8.017  66.152  1.00  0.00    -0.198 A  
HETATM    6  C   UNL     1      -8.433   9.323  65.900  1.00  0.00    -0.141 A  
HETATM    7  C   UNL     1      -9.203  10.386  66.387  1.00  0.00    -0.161 A  
HETATM    8  N   UNL     1      -9.008  11.734  66.298  1.00  0.00    -0.200 NA 
HETATM    9  C   UNL     1     -10.039  12.249  66.944  1.00  0.00    -0.211 A  
HETATM   10  O   UNL     1     -10.911  11.320  67.460  1.00  0.00    -0.230 OA 
HETATM   11  C   UNL     1     -10.845   8.844  67.361  1.00  0.00    -0.096 A  
HETATM   12  C   UNL     1     -10.363  10.118  67.097  1.00  0.00    -0.238 A  
ENDROOT
BRANCH   9  13
HETATM   13  C   UNL     1     -10.348  13.661  67.142  1.00  0.00    -0.250 A  
HETATM   14  C   UNL     1     -10.659  14.102  68.440  1.00  0.00    -0.263 A  
HETATM   15  C   UNL     1     -10.934  15.445  68.690  1.00  0.00    -0.273 A  
HETATM   16 CL   UNL     1     -11.300  15.954  70.292  1.00  0.00    -0.346 Cl 
HETATM   17  C   UNL     1     -10.910  16.373  67.657  1.00  0.00    -0.280 A  
HETATM   18  C   UNL     1     -10.612  15.943  66.365  1.00  0.00    -0.297 A  
HETATM   19 CL   UNL     1     -10.577  17.087  65.080  1.00  0.00    -0.160 Cl 
HETATM   20  C   UNL     1     -10.333  14.599  66.101  1.00  0.00    -0.309 A  
ENDBRANCH   9  13
TORSDOF 1
ENDMDL
MODEL      130
REMARK 921   NORMALIZED FREE ENERGY PREDICTED BY IDOCK:   -4.49 KCAL/MOL
REMARK 922        TOTAL FREE ENERGY PREDICTED BY IDOCK:   -4.95 KCAL/MOL
REMARK 923 INTER-LIGAND FREE ENERGY PREDICTED BY IDOCK:   -4.74 KCAL/MOL
REMARK 924 INTRA-LIGAND FREE ENERGY PREDICTED BY IDOCK:   -0.21 KCAL/MOL
REMARK 927      BINDING AFFINITY PREDICTED BY RF-SCORE:    0.00 PKD
ROOT
HETATM    1  O   UNL     1     -10.747   2.080  72.963  1.00  0.00    -0.138 OA 
HETATM    2  C   UNL     1     -10.424   3.368  73.199  1.00  0.00    -0.169 C  
HETATM    3  C   UNL     1     -10.374   4.218  71.984  1.00  0.00    -0.169 A  
HETATM    4  O   UNL     1     -10.219   3.809  74.316  1.00  0.00    -0.150 OA 
HETATM    5  C   UNL     1      -9.961   3.691  70.745  1.00  0.00    -0.021 A  
HETATM    6  C   UNL     1      -9.905   4.499  69.601  1.00  0.00    -0.288 A  
HETATM    7  C   UNL     1     -10.248   5.850  69.729  1.00  0.00    -0.218 A  
HETATM    8  N   UNL     1     -10.272   6.849  68.800  1.00  0.00    -0.167 NA 
HETATM    9  C   UNL     1     -10.660   7.911  69.483  1.00  0.00    -0.219 A  
HETATM   10  O   UNL     1     -10.896   7.678  70.816  1.00  0.00    -0.230 OA 
HETATM   11  C   UNL     1     -10.707   5.581  72.125  1.00  0.00    -0.288 A  
HETATM   12  C   UNL     1     -10.626   6.343  70.968  1.00  0.00    -0.234 A  
ENDROOT
BRANCH   9  13
HETATM   13  C   UNL     1     -10.877   9.263  68.977  1.00  0.00    -0.136 A  
HETATM   14  C   UNL     1     -10.569   9.531  67.632  1.00  0.00    -0.329 A  
HETATM   15  C   UNL     1     -10.783  10.797  67.091  1.00  0.00    -0.272 A  
HETATM   16 CL   UNL     1     -10.406  11.090  65.438  1.00  0.00    -0.329 Cl 
HETATM   17  C   UNL     1     -11.303  11.820  67.875  1.00  0.00    -0.362 A  
HETATM   18  C   UNL     1     -11.602  11.565  69.212  1.00  0.00    -0.322 A  
HETATM   19 CL   UNL     1     -12.249  12.826  70.188  1.00  0.00    -0.359 Cl 
HETATM   20  C   UNL     1     -11.393  10.299  69.767  1.00  0.00    -0.334 A  
ENDBRANCH   9  13
TORSDOF 1
ENDMDL
MODEL      131
REMARK 921   NORMALIZED FREE ENERGY PREDICTED BY IDOCK:   -4.41 KCAL/MOL
REMARK 922        TOTAL FREE ENERGY PREDICTED BY IDOCK:   -4.87 KCAL/MOL
REMARK 923 INTER-LIGAND FREE ENERGY PREDICTED BY IDOCK:   -4.66 KCAL/MOL
REMARK 924 INTRA-LIGAND FREE ENERGY PREDICTED BY IDOCK:   -0.20 KCAL/MOL
REMARK 927      BINDING AFFINITY PREDICTED BY RF-SCORE:    0.00 PKD
ROOT
HETATM    1  O   UNL     1     -13.580  11.465  72.059  1.00  0.00    -0.288 OA 
HETATM    2  C   UNL     1     -12.517  11.277  71.251  1.00  0.00    -0.336 C  
HETATM    3  C   UNL     1     -12.113   9.858  71.090  1.00  0.00    -0.466 A  
HETATM    4  O   UNL     1     -11.950  12.188  70.674  1.00  0.00    -0.322 OA 
HETATM    5  C   UNL     1     -12.262   8.938  72.145  1.00  0.00    -0.437 A  
HETATM    6  C   UNL     1     -11.870   7.600  71.993  1.00  0.00    -0.342 A  
HETATM    7  C   UNL     1     -11.305   7.211  70.773  1.00  0.00    -0.289 A  
HETATM    8  N   UNL     1     -10.835   5.997  70.363  1.00  0.00    -0.295 NA 
HETATM    9  C   UNL     1     -10.412   6.219  69.131  1.00  0.00    -0.239 A  
HETATM   10  O   UNL     1     -10.573   7.513  68.696  1.00  0.00    -0.197 OA 
HETATM   11  C   UNL     1     -11.533   9.479  69.863  1.00  0.00    -0.100 A  
HETATM   12  C   UNL     1     -11.150   8.148  69.764  1.00  0.00    -0.054 A  
ENDROOT
BRANCH   9  13
HETATM   13  C   UNL     1      -9.827   5.255  68.205  1.00  0.00    -0.198 A  
HETATM   14  C   UNL     1     -10.414   5.103  66.937  1.00  0.00    -0.280 A  
HETATM   15  C   UNL     1      -9.879   4.217  66.005  1.00  0.00    -0.196 A  
HETATM   16 CL   UNL     1     -10.616   4.062  64.458  1.00  0.00    -0.253 Cl 
HETATM   17  C   UNL     1      -8.753   3.463  66.314  1.00  0.00    -0.126 A  
HETATM   18  C   UNL     1      -8.170   3.601  67.572  1.00  0.00    -0.089 A  
HETATM   19 CL   UNL     1      -6.774   2.674  67.962  1.00  0.00    -0.039 Cl 
HETATM   20  C   UNL     1      -8.697   4.487  68.517  1.00  0.00    -0.117 A  
ENDBRANCH   9  13
TORSDOF 1
ENDMDL
MODEL      132
REMARK 921   NORMALIZED FREE ENERGY PREDICTED BY IDOCK:   -4.40 KCAL/MOL
REMARK 922        TOTAL FREE ENERGY PREDICTED BY IDOCK:   -4.85 KCAL/MOL
REMARK 923 INTER-LIGAND FREE ENERGY PREDICTED BY IDOCK:   -4.63 KCAL/MOL
REMARK 924 INTRA-LIGAND FREE ENERGY PREDICTED BY IDOCK:   -0.22 KCAL/MOL
REMARK 927      BINDING AFFINITY PREDICTED BY RF-SCORE:    0.00 PKD
ROOT
HETATM    1  O   UNL     1      -8.112   6.396  73.530  1.00  0.00    -0.103 OA 
HETATM    2  C   UNL     1      -8.136   7.676  73.105  1.00  0.00    -0.123 C  
HETATM    3  C   UNL     1      -8.276   7.829  71.636  1.00  0.00    -0.121 A  
HETATM    4  O   UNL     1      -8.079   8.630  73.860  1.00  0.00    -0.398 OA 
HETATM    5  C   UNL     1      -7.712   6.891  70.751  1.00  0.00    -0.092 A  
HETATM    6  C   UNL     1      -7.837   7.045  69.363  1.00  0.00    -0.113 A  
HETATM    7  C   UNL     1      -8.518   8.168  68.881  1.00  0.00    -0.130 A  
HETATM    8  N   UNL     1      -8.776   8.566  67.601  1.00  0.00    -0.136 NA 
HETATM    9  C   UNL     1      -9.440   9.699  67.747  1.00  0.00    -0.127 A  
HETATM   10  O   UNL     1      -9.640  10.080  69.052  1.00  0.00    -0.176 OA 
HETATM   11  C   UNL     1      -8.952   8.972  71.160  1.00  0.00    -0.303 A  
HETATM   12  C   UNL     1      -9.040   9.086  69.779  1.00  0.00    -0.159 A  
ENDROOT
BRANCH   9  13
HETATM   13  C   UNL     1      -9.985  10.552  66.694  1.00  0.00    -0.260 A  
HETATM   14  C   UNL     1     -10.798  11.635  67.066  1.00  0.00    -0.311 A  
HETATM   15  C   UNL     1     -11.321  12.497  66.104  1.00  0.00    -0.343 A  
HETATM   16 CL   UNL     1     -12.306  13.821  66.592  1.00  0.00    -0.442 Cl 
HETATM   17  C   UNL     1     -11.048  12.297  64.756  1.00  0.00    -0.356 A  
HETATM   18  C   UNL     1     -10.249  11.219  64.378  1.00  0.00    -0.320 A  
HETATM   19 CL   UNL     1      -9.904  10.967  62.711  1.00  0.00    -0.293 Cl 
HETATM   20  C   UNL     1      -9.718  10.348  65.334  1.00  0.00    -0.325 A  
ENDBRANCH   9  13
TORSDOF 1
ENDMDL
MODEL      133
REMARK 921   NORMALIZED FREE ENERGY PREDICTED BY IDOCK:   -4.39 KCAL/MOL
REMARK 922        TOTAL FREE ENERGY PREDICTED BY IDOCK:   -4.84 KCAL/MOL
REMARK 923 INTER-LIGAND FREE ENERGY PREDICTED BY IDOCK:   -4.64 KCAL/MOL
REMARK 924 INTRA-LIGAND FREE ENERGY PREDICTED BY IDOCK:   -0.20 KCAL/MOL
REMARK 927      BINDING AFFINITY PREDICTED BY RF-SCORE:    0.00 PKD
ROOT
HETATM    1  O   UNL     1     -13.580  11.465  72.059  1.00  0.00    -0.288 OA 
HETATM    2  C   UNL     1     -12.517  11.277  71.251  1.00  0.00    -0.336 C  
HETATM    3  C   UNL     1     -12.113   9.858  71.090  1.00  0.00    -0.466 A  
HETATM    4  O   UNL     1     -11.950  12.188  70.674  1.00  0.00    -0.322 OA 
HETATM    5  C   UNL     1     -12.262   8.938  72.145  1.00  0.00    -0.437 A  
HETATM    6  C   UNL     1     -11.870   7.600  71.993  1.00  0.00    -0.342 A  
HETATM    7  C   UNL     1     -11.305   7.211  70.773  1.00  0.00    -0.289 A  
HETATM    8  N   UNL     1     -10.835   5.997  70.363  1.00  0.00    -0.295 NA 
HETATM    9  C   UNL     1     -10.412   6.219  69.131  1.00  0.00    -0.239 A  
HETATM   10  O   UNL     1     -10.573   7.513  68.696  1.00  0.00    -0.197 OA 
HETATM   11  C   UNL     1     -11.533   9.479  69.863  1.00  0.00    -0.100 A  
HETATM   12  C   UNL     1     -11.150   8.148  69.764  1.00  0.00    -0.054 A  
ENDROOT
BRANCH   9  13
HETATM   13  C   UNL     1      -9.827   5.255  68.205  1.00  0.00    -0.198 A  
HETATM   14  C   UNL     1      -8.753   4.466  68.651  1.00  0.00    -0.119 A  
HETATM   15  C   UNL     1      -8.176   3.510  67.817  1.00  0.00    -0.084 A  
HETATM   16 CL   UNL     1      -6.870   2.552  68.398  1.00  0.00    -0.042 Cl 
HETATM   17  C   UNL     1      -8.650   3.324  66.525  1.00  0.00    -0.117 A  
HETATM   18  C   UNL     1      -9.709   4.109  66.071  1.00  0.00    -0.205 A  
HETATM   19 CL   UNL     1     -10.304   3.882  64.472  1.00  0.00    -0.244 Cl 
HETATM   20  C   UNL     1     -10.297   5.070  66.898  1.00  0.00    -0.267 A  
ENDBRANCH   9  13
TORSDOF 1
ENDMDL
MODEL      134
REMARK 921   NORMALIZED FREE ENERGY PREDICTED BY IDOCK:   -4.38 KCAL/MOL
REMARK 922        TOTAL FREE ENERGY PREDICTED BY IDOCK:   -4.83 KCAL/MOL
REMARK 923 INTER-LIGAND FREE ENERGY PREDICTED BY IDOCK:   -4.62 KCAL/MOL
REMARK 924 INTRA-LIGAND FREE ENERGY PREDICTED BY IDOCK:   -0.21 KCAL/MOL
REMARK 927      BINDING AFFINITY PREDICTED BY RF-SCORE:    0.00 PKD
ROOT
HETATM    1  O   UNL     1      -7.156  20.500  69.157  1.00  0.00     0.025 OA 
HETATM    2  C   UNL     1      -7.782  20.016  68.064  1.00  0.00    -0.266 C  
HETATM    3  C   UNL     1      -7.776  18.536  67.962  1.00  0.00    -0.281 A  
HETATM    4  O   UNL     1      -8.334  20.727  67.243  1.00  0.00    -0.308 OA 
HETATM    5  C   UNL     1      -6.691  17.779  68.443  1.00  0.00    -0.213 A  
HETATM    6  C   UNL     1      -6.683  16.381  68.336  1.00  0.00    -0.141 A  
HETATM    7  C   UNL     1      -7.774  15.761  67.716  1.00  0.00    -0.143 A  
HETATM    8  N   UNL     1      -8.020  14.440  67.472  1.00  0.00    -0.178 NA 
HETATM    9  C   UNL     1      -9.189  14.442  66.856  1.00  0.00    -0.254 A  
HETATM   10  O   UNL     1      -9.737  15.689  66.674  1.00  0.00    -0.230 OA 
HETATM   11  C   UNL     1      -8.873  17.920  67.325  1.00  0.00    -0.243 A  
HETATM   12  C   UNL     1      -8.816  16.537  67.232  1.00  0.00    -0.192 A  
ENDROOT
BRANCH   9  13
HETATM   13  C   UNL     1      -9.945  13.288  66.380  1.00  0.00    -0.288 A  
HETATM   14  C   UNL     1     -10.696  13.420  65.201  1.00  0.00    -0.339 A  
HETATM   15  C   UNL     1     -11.414  12.342  64.687  1.00  0.00    -0.331 A  
HETATM   16 CL   UNL     1     -12.316  12.535  63.235  1.00  0.00    -0.571 Cl 
HETATM   17  C   UNL     1     -11.401  11.114  65.337  1.00  0.00     0.124 A  
HETATM   18  C   UNL     1     -10.665  10.976  66.512  1.00  0.00    -0.241 A  
HETATM   19 CL   UNL     1     -10.641   9.457  67.321  1.00  0.00    -0.333 Cl 
HETATM   20  C   UNL     1      -9.941  12.050  67.037  1.00  0.00    -0.218 A  
ENDBRANCH   9  13
TORSDOF 1
ENDMDL
MODEL      135
REMARK 921   NORMALIZED FREE ENERGY PREDICTED BY IDOCK:   -4.36 KCAL/MOL
REMARK 922        TOTAL FREE ENERGY PREDICTED BY IDOCK:   -4.81 KCAL/MOL
REMARK 923 INTER-LIGAND FREE ENERGY PREDICTED BY IDOCK:   -4.63 KCAL/MOL
REMARK 924 INTRA-LIGAND FREE ENERGY PREDICTED BY IDOCK:   -0.18 KCAL/MOL
REMARK 927      BINDING AFFINITY PREDICTED BY RF-SCORE:    0.00 PKD
ROOT
HETATM    1  O   UNL     1     -10.359  17.450  67.497  1.00  0.00    -0.327 OA 
HETATM    2  C   UNL     1     -10.133  16.344  68.236  1.00  0.00    -0.248 C  
HETATM    3  C   UNL     1     -10.350  15.069  67.509  1.00  0.00    -0.241 A  
HETATM    4  O   UNL     1      -9.752  16.383  69.392  1.00  0.00    -0.234 OA 
HETATM    5  C   UNL     1     -11.340  14.959  66.514  1.00  0.00    -0.319 A  
HETATM    6  C   UNL     1     -11.550  13.750  65.837  1.00  0.00    -0.346 A  
HETATM    7  C   UNL     1     -10.764  12.648  66.194  1.00  0.00    -0.267 A  
HETATM    8  N   UNL     1     -10.762  11.369  65.715  1.00  0.00    -0.267 NA 
HETATM    9  C   UNL     1      -9.824  10.765  66.423  1.00  0.00    -0.209 A  
HETATM   10  O   UNL     1      -9.201  11.567  67.348  1.00  0.00    -0.163 OA 
HETATM   11  C   UNL     1      -9.563  13.961  67.885  1.00  0.00    -0.227 A  
HETATM   12  C   UNL     1      -9.815  12.783  67.195  1.00  0.00    -0.216 A  
ENDROOT
BRANCH   9  13
HETATM   13  C   UNL     1      -9.383   9.378  66.313  1.00  0.00    -0.253 A  
HETATM   14  C   UNL     1     -10.207   8.370  66.840  1.00  0.00    -0.383 A  
HETATM   15  C   UNL     1      -9.847   7.028  66.737  1.00  0.00    -0.186 A  
HETATM   16 CL   UNL     1     -10.884   5.816  67.383  1.00  0.00    -0.328 Cl 
HETATM   17  C   UNL     1      -8.661   6.663  66.113  1.00  0.00    -0.148 A  
HETATM   18  C   UNL     1      -7.833   7.657  65.595  1.00  0.00    -0.109 A  
HETATM   19 CL   UNL     1      -6.363   7.213  64.818  1.00  0.00    -0.037 Cl 
HETATM   20  C   UNL     1      -8.183   9.007  65.692  1.00  0.00    -0.120 A  
ENDBRANCH   9  13
TORSDOF 1
ENDMDL
MODEL      136
REMARK 921   NORMALIZED FREE ENERGY PREDICTED BY IDOCK:   -4.30 KCAL/MOL
REMARK 922        TOTAL FREE ENERGY PREDICTED BY IDOCK:   -4.74 KCAL/MOL
REMARK 923 INTER-LIGAND FREE ENERGY PREDICTED BY IDOCK:   -4.53 KCAL/MOL
REMARK 924 INTRA-LIGAND FREE ENERGY PREDICTED BY IDOCK:   -0.21 KCAL/MOL
REMARK 927      BINDING AFFINITY PREDICTED BY RF-SCORE:    0.00 PKD
ROOT
HETATM    1  O   UNL     1      -7.669  20.711  66.714  1.00  0.00    -0.259 OA 
HETATM    2  C   UNL     1      -8.604  19.780  66.437  1.00  0.00    -0.360 C  
HETATM    3  C   UNL     1      -8.172  18.384  66.696  1.00  0.00    -0.283 A  
HETATM    4  O   UNL     1      -9.721  20.056  66.037  1.00  0.00    -0.424 OA 
HETATM    5  C   UNL     1      -6.833  17.992  66.513  1.00  0.00    -0.254 A  
HETATM    6  C   UNL     1      -6.430  16.670  66.749  1.00  0.00    -0.186 A  
HETATM    7  C   UNL     1      -7.401  15.745  67.148  1.00  0.00    -0.222 A  
HETATM    8  N   UNL     1      -7.292  14.414  67.431  1.00  0.00    -0.182 NA 
HETATM    9  C   UNL     1      -8.525  14.052  67.741  1.00  0.00    -0.184 A  
HETATM   10  O   UNL     1      -9.450  15.067  67.681  1.00  0.00    -0.194 OA 
HETATM   11  C   UNL     1      -9.160  17.456  67.085  1.00  0.00    -0.242 A  
HETATM   12  C   UNL     1      -8.716  16.157  67.295  1.00  0.00    -0.183 A  
ENDROOT
BRANCH   9  13
HETATM   13  C   UNL     1      -8.987  12.729  68.149  1.00  0.00    -0.199 A  
HETATM   14  C   UNL     1      -8.064  11.669  68.149  1.00  0.00    -0.148 A  
HETATM   15  C   UNL     1      -8.445  10.392  68.555  1.00  0.00    -0.129 A  
HETATM   16 CL   UNL     1      -7.288   9.118  68.554  1.00  0.00    -0.076 Cl 
HETATM   17  C   UNL     1      -9.749  10.143  68.965  1.00  0.00    -0.212 A  
HETATM   18  C   UNL     1     -10.673  11.186  68.960  1.00  0.00    -0.225 A  
HETATM   19 CL   UNL     1     -12.289  10.887  69.469  1.00  0.00    -0.333 Cl 
HETATM   20  C   UNL     1     -10.303  12.473  68.555  1.00  0.00    -0.233 A  
ENDBRANCH   9  13
TORSDOF 1
ENDMDL
MODEL      137
REMARK 921   NORMALIZED FREE ENERGY PREDICTED BY IDOCK:   -4.29 KCAL/MOL
REMARK 922        TOTAL FREE ENERGY PREDICTED BY IDOCK:   -4.73 KCAL/MOL
REMARK 923 INTER-LIGAND FREE ENERGY PREDICTED BY IDOCK:   -4.51 KCAL/MOL
REMARK 924 INTRA-LIGAND FREE ENERGY PREDICTED BY IDOCK:   -0.22 KCAL/MOL
REMARK 927      BINDING AFFINITY PREDICTED BY RF-SCORE:    0.00 PKD
ROOT
HETATM    1  O   UNL     1     -10.220  12.780  63.492  1.00  0.00    -0.367 OA 
HETATM    2  C   UNL     1     -11.009  12.131  64.373  1.00  0.00    -0.326 C  
HETATM    3  C   UNL     1     -10.342  11.008  65.078  1.00  0.00    -0.360 A  
HETATM    4  O   UNL     1     -12.161  12.454  64.599  1.00  0.00    -0.421 OA 
HETATM    5  C   UNL     1      -9.356  10.233  64.439  1.00  0.00    -0.329 A  
HETATM    6  C   UNL     1      -8.736   9.166  65.104  1.00  0.00    -0.228 A  
HETATM    7  C   UNL     1      -9.141   8.877  66.413  1.00  0.00    -0.174 A  
HETATM    8  N   UNL     1      -8.722   7.907  67.276  1.00  0.00    -0.130 NA 
HETATM    9  C   UNL     1      -9.455   8.104  68.357  1.00  0.00    -0.142 A  
HETATM   10  O   UNL     1     -10.341   9.150  68.264  1.00  0.00    -0.199 OA 
HETATM   11  C   UNL     1     -10.767  10.716  66.391  1.00  0.00    -0.198 A  
HETATM   12  C   UNL     1     -10.133   9.645  67.004  1.00  0.00    -0.214 A  
ENDROOT
BRANCH   9  13
HETATM   13  C   UNL     1      -9.408   7.357  69.611  1.00  0.00    -0.149 A  
HETATM   14  C   UNL     1     -10.230   7.776  70.670  1.00  0.00    -0.199 A  
HETATM   15  C   UNL     1     -10.245   7.083  71.879  1.00  0.00    -0.187 A  
HETATM   16 CL   UNL     1     -11.271   7.616  73.153  1.00  0.00    -0.403 Cl 
HETATM   17  C   UNL     1      -9.441   5.964  72.059  1.00  0.00    -0.164 A  
HETATM   18  C   UNL     1      -8.616   5.546  71.016  1.00  0.00    -0.126 A  
HETATM   19 CL   UNL     1      -7.620   4.159  71.230  1.00  0.00    -0.058 Cl 
HETATM   20  C   UNL     1      -8.592   6.233  69.798  1.00  0.00    -0.137 A  
ENDBRANCH   9  13
TORSDOF 1
ENDMDL
MODEL      138
REMARK 921   NORMALIZED FREE ENERGY PREDICTED BY IDOCK:   -4.27 KCAL/MOL
REMARK 922        TOTAL FREE ENERGY PREDICTED BY IDOCK:   -4.71 KCAL/MOL
REMARK 923 INTER-LIGAND FREE ENERGY PREDICTED BY IDOCK:   -4.50 KCAL/MOL
REMARK 924 INTRA-LIGAND FREE ENERGY PREDICTED BY IDOCK:   -0.21 KCAL/MOL
REMARK 927      BINDING AFFINITY PREDICTED BY RF-SCORE:    0.00 PKD
ROOT
HETATM    1  O   UNL     1      -8.482   5.984  73.666  1.00  0.00    -0.118 OA 
HETATM    2  C   UNL     1      -8.468   7.296  73.351  1.00  0.00    -0.136 C  
HETATM    3  C   UNL     1      -8.533   7.575  71.895  1.00  0.00    -0.120 A  
HETATM    4  O   UNL     1      -8.436   8.181  74.187  1.00  0.00    -0.262 OA 
HETATM    5  C   UNL     1      -7.938   6.705  70.962  1.00  0.00    -0.107 A  
HETATM    6  C   UNL     1      -7.991   6.977  69.588  1.00  0.00    -0.124 A  
HETATM    7  C   UNL     1      -8.633   8.149  69.171  1.00  0.00    -0.136 A  
HETATM    8  N   UNL     1      -8.820   8.658  67.918  1.00  0.00    -0.137 NA 
HETATM    9  C   UNL     1      -9.476   9.786  68.127  1.00  0.00    -0.135 A  
HETATM   10  O   UNL     1      -9.736  10.059  69.449  1.00  0.00    -0.200 OA 
HETATM   11  C   UNL     1      -9.168   8.765  71.486  1.00  0.00    -0.332 A  
HETATM   12  C   UNL     1      -9.187   8.997  70.117  1.00  0.00    -0.192 A  
ENDROOT
BRANCH   9  13
HETATM   13  C   UNL     1      -9.956  10.734  67.126  1.00  0.00    -0.230 A  
HETATM   14  C   UNL     1      -9.575  10.542  65.787  1.00  0.00    -0.260 A  
HETATM   15  C   UNL     1     -10.028  11.401  64.788  1.00  0.00    -0.267 A  
HETATM   16 CL   UNL     1      -9.551  11.134  63.156  1.00  0.00    -0.346 Cl 
HETATM   17  C   UNL     1     -10.863  12.467  65.100  1.00  0.00    -0.323 A  
HETATM   18  C   UNL     1     -11.238  12.669  66.426  1.00  0.00    -0.305 A  
HETATM   19 CL   UNL     1     -12.275  13.985  66.820  1.00  0.00    -0.471 Cl 
HETATM   20  C   UNL     1     -10.792  11.814  67.438  1.00  0.00    -0.299 A  
ENDBRANCH   9  13
TORSDOF 1
ENDMDL
MODEL      139
REMARK 921   NORMALIZED FREE ENERGY PREDICTED BY IDOCK:   -4.22 KCAL/MOL
REMARK 922        TOTAL FREE ENERGY PREDICTED BY IDOCK:   -4.66 KCAL/MOL
REMARK 923 INTER-LIGAND FREE ENERGY PREDICTED BY IDOCK:   -4.47 KCAL/MOL
REMARK 924 INTRA-LIGAND FREE ENERGY PREDICTED BY IDOCK:   -0.20 KCAL/MOL
REMARK 927      BINDING AFFINITY PREDICTED BY RF-SCORE:    0.00 PKD
ROOT
HETATM    1  O   UNL     1      -8.690   3.233  66.530  1.00  0.00    -0.115 OA 
HETATM    2  C   UNL     1      -8.545   4.267  65.675  1.00  0.00    -0.118 C  
HETATM    3  C   UNL     1      -9.191   5.526  66.124  1.00  0.00    -0.166 A  
HETATM    4  O   UNL     1      -7.913   4.189  64.637  1.00  0.00    -0.087 OA 
HETATM    5  C   UNL     1     -10.380   5.504  66.876  1.00  0.00    -0.315 A  
HETATM    6  C   UNL     1     -10.993   6.695  67.289  1.00  0.00    -0.456 A  
HETATM    7  C   UNL     1     -10.402   7.907  66.913  1.00  0.00    -0.330 A  
HETATM    8  N   UNL     1     -10.784   9.193  67.165  1.00  0.00    -0.215 NA 
HETATM    9  C   UNL     1      -9.863   9.922  66.561  1.00  0.00    -0.215 A  
HETATM   10  O   UNL     1      -8.888   9.196  65.920  1.00  0.00    -0.153 OA 
HETATM   11  C   UNL     1      -8.596   6.741  65.729  1.00  0.00    -0.144 A  
HETATM   12  C   UNL     1      -9.245   7.893  66.151  1.00  0.00    -0.152 A  
ENDROOT
BRANCH   9  13
HETATM   13  C   UNL     1      -9.766  11.378  66.522  1.00  0.00    -0.226 A  
HETATM   14  C   UNL     1      -8.709  11.997  67.211  1.00  0.00    -0.175 A  
HETATM   15  C   UNL     1      -8.554  13.382  67.184  1.00  0.00    -0.195 A  
HETATM   16 CL   UNL     1      -7.243  14.107  68.029  1.00  0.00    -0.125 Cl 
HETATM   17  C   UNL     1      -9.447  14.177  66.477  1.00  0.00    -0.303 A  
HETATM   18  C   UNL     1     -10.504  13.572  65.798  1.00  0.00    -0.291 A  
HETATM   19 CL   UNL     1     -11.612  14.550  64.917  1.00  0.00    -0.383 Cl 
HETATM   20  C   UNL     1     -10.670  12.184  65.817  1.00  0.00    -0.303 A  
ENDBRANCH   9  13
TORSDOF 1
ENDMDL
MODEL      140
REMARK 921   NORMALIZED FREE ENERGY PREDICTED BY IDOCK:   -4.21 KCAL/MOL
REMARK 922        TOTAL FREE ENERGY PREDICTED BY IDOCK:   -4.65 KCAL/MOL
REMARK 923 INTER-LIGAND FREE ENERGY PREDICTED BY IDOCK:   -4.43 KCAL/MOL
REMARK 924 INTRA-LIGAND FREE ENERGY PREDICTED BY IDOCK:   -0.22 KCAL/MOL
REMARK 927      BINDING AFFINITY PREDICTED BY RF-SCORE:    0.00 PKD
ROOT
HETATM    1  O   UNL     1      -7.249   2.576  67.548  1.00  0.00    -0.051 OA 
HETATM    2  C   UNL     1      -7.892   3.492  66.796  1.00  0.00    -0.080 C  
HETATM    3  C   UNL     1      -8.624   4.520  67.577  1.00  0.00    -0.105 A  
HETATM    4  O   UNL     1      -7.855   3.500  65.578  1.00  0.00    -0.087 OA 
HETATM    5  C   UNL     1      -9.216   4.205  68.815  1.00  0.00    -0.206 A  
HETATM    6  C   UNL     1      -9.916   5.175  69.546  1.00  0.00    -0.301 A  
HETATM    7  C   UNL     1     -10.029   6.459  69.001  1.00  0.00    -0.149 A  
HETATM    8  N   UNL     1     -10.652   7.574  69.483  1.00  0.00    -0.237 NA 
HETATM    9  C   UNL     1     -10.445   8.485  68.548  1.00  0.00    -0.167 A  
HETATM   10  O   UNL     1      -9.720   8.040  67.468  1.00  0.00    -0.147 OA 
HETATM   11  C   UNL     1      -8.745   5.806  67.013  1.00  0.00    -0.109 A  
HETATM   12  C   UNL     1      -9.456   6.729  67.768  1.00  0.00    -0.118 A  
ENDROOT
BRANCH   9  13
HETATM   13  C   UNL     1     -10.878   9.878  68.553  1.00  0.00    -0.257 A  
HETATM   14  C   UNL     1     -10.743  10.625  67.371  1.00  0.00    -0.326 A  
HETATM   15  C   UNL     1     -11.166  11.952  67.312  1.00  0.00    -0.317 A  
HETATM   16 CL   UNL     1     -10.995  12.836  65.846  1.00  0.00    -0.295 Cl 
HETATM   17  C   UNL     1     -11.728  12.561  68.428  1.00  0.00    -0.375 A  
HETATM   18  C   UNL     1     -11.858  11.831  69.607  1.00  0.00    -0.339 A  
HETATM   19 CL   UNL     1     -12.555  12.577  70.991  1.00  0.00    -0.416 Cl 
HETATM   20  C   UNL     1     -11.437  10.499  69.678  1.00  0.00    -0.349 A  
ENDBRANCH   9  13
TORSDOF 1
ENDMDL
MODEL      141
REMARK 921   NORMALIZED FREE ENERGY PREDICTED BY IDOCK:   -4.20 KCAL/MOL
REMARK 922        TOTAL FREE ENERGY PREDICTED BY IDOCK:   -4.63 KCAL/MOL
REMARK 923 INTER-LIGAND FREE ENERGY PREDICTED BY IDOCK:   -4.41 KCAL/MOL
REMARK 924 INTRA-LIGAND FREE ENERGY PREDICTED BY IDOCK:   -0.22 KCAL/MOL
REMARK 927      BINDING AFFINITY PREDICTED BY RF-SCORE:    0.00 PKD
ROOT
HETATM    1  O   UNL     1     -12.045  13.705  62.338  1.00  0.00     0.814 OA 
HETATM    2  C   UNL     1     -11.991  12.938  63.446  1.00  0.00    -0.537 C  
HETATM    3  C   UNL     1     -11.782  13.696  64.704  1.00  0.00    -0.414 A  
HETATM    4  O   UNL     1     -12.131  11.728  63.425  1.00  0.00    -0.491 OA 
HETATM    5  C   UNL     1     -11.008  14.871  64.724  1.00  0.00    -0.390 A  
HETATM    6  C   UNL     1     -10.803  15.579  65.917  1.00  0.00    -0.317 A  
HETATM    7  C   UNL     1     -11.371  15.072  67.091  1.00  0.00    -0.320 A  
HETATM    8  N   UNL     1     -11.325  15.543  68.372  1.00  0.00    -0.338 NA 
HETATM    9  C   UNL     1     -12.025  14.660  69.062  1.00  0.00    -0.283 A  
HETATM   10  O   UNL     1     -12.535  13.626  68.314  1.00  0.00    -0.080 OA 
HETATM   11  C   UNL     1     -12.346  13.170  65.885  1.00  0.00    -0.462 A  
HETATM   12  C   UNL     1     -12.107  13.899  67.042  1.00  0.00    -0.415 A  
ENDROOT
BRANCH   9  13
HETATM   13  C   UNL     1     -12.320  14.681  70.491  1.00  0.00    -0.400 A  
HETATM   14  C   UNL     1     -12.976  13.574  71.055  1.00  0.00    -0.276 A  
HETATM   15  C   UNL     1     -13.257  13.529  72.419  1.00  0.00    -0.477 A  
HETATM   16 CL   UNL     1     -14.053  12.155  73.080  1.00  0.00     1.567 Cl 
HETATM   17  C   UNL     1     -12.894  14.584  73.247  1.00  0.00    -0.510 A  
HETATM   18  C   UNL     1     -12.250  15.690  72.695  1.00  0.00    -0.439 A  
HETATM   19 CL   UNL     1     -11.795  16.999  73.715  1.00  0.00    -0.159 Cl 
HETATM   20  C   UNL     1     -11.963  15.746  71.328  1.00  0.00    -0.485 A  
ENDBRANCH   9  13
TORSDOF 1
ENDMDL
MODEL      142
REMARK 921   NORMALIZED FREE ENERGY PREDICTED BY IDOCK:   -4.18 KCAL/MOL
REMARK 922        TOTAL FREE ENERGY PREDICTED BY IDOCK:   -4.62 KCAL/MOL
REMARK 923 INTER-LIGAND FREE ENERGY PREDICTED BY IDOCK:   -4.42 KCAL/MOL
REMARK 924 INTRA-LIGAND FREE ENERGY PREDICTED BY IDOCK:   -0.20 KCAL/MOL
REMARK 927      BINDING AFFINITY PREDICTED BY RF-SCORE:    0.00 PKD
ROOT
HETATM    1  O   UNL     1     -14.201   9.335  72.624  1.00  0.00    -0.498 OA 
HETATM    2  C   UNL     1     -13.282  10.125  72.031  1.00  0.00    -0.430 C  
HETATM    3  C   UNL     1     -12.265   9.390  71.237  1.00  0.00    -0.425 A  
HETATM    4  O   UNL     1     -13.297  11.340  72.110  1.00  0.00    -0.457 OA 
HETATM    5  C   UNL     1     -11.827   8.110  71.626  1.00  0.00    -0.334 A  
HETATM    6  C   UNL     1     -10.859   7.423  70.881  1.00  0.00    -0.255 A  
HETATM    7  C   UNL     1     -10.323   8.054  69.752  1.00  0.00    -0.219 A  
HETATM    8  N   UNL     1      -9.376   7.629  68.865  1.00  0.00    -0.146 NA 
HETATM    9  C   UNL     1      -9.261   8.634  68.016  1.00  0.00    -0.140 A  
HETATM   10  O   UNL     1     -10.076   9.707  68.286  1.00  0.00    -0.164 OA 
HETATM   11  C   UNL     1     -11.721  10.039  70.110  1.00  0.00    -0.285 A  
HETATM   12  C   UNL     1     -10.759   9.325  69.411  1.00  0.00    -0.208 A  
ENDROOT
BRANCH   9  13
HETATM   13  C   UNL     1      -8.395   8.712  66.844  1.00  0.00    -0.108 A  
HETATM   14  C   UNL     1      -7.417   9.720  66.800  1.00  0.00    -0.095 A  
HETATM   15  C   UNL     1      -6.546   9.822  65.717  1.00  0.00    -0.088 A  
HETATM   16 CL   UNL     1      -5.352  11.061  65.698  1.00  0.00    -0.138 Cl 
HETATM   17  C   UNL     1      -6.633   8.928  64.657  1.00  0.00    -0.066 A  
HETATM   18  C   UNL     1      -7.606   7.930  64.688  1.00  0.00    -0.109 A  
HETATM   19 CL   UNL     1      -7.717   6.817  63.380  1.00  0.00    -0.103 Cl 
HETATM   20  C   UNL     1      -8.485   7.817  65.769  1.00  0.00    -0.155 A  
ENDBRANCH   9  13
TORSDOF 1
ENDMDL
MODEL      143
REMARK 921   NORMALIZED FREE ENERGY PREDICTED BY IDOCK:   -4.18 KCAL/MOL
REMARK 922        TOTAL FREE ENERGY PREDICTED BY IDOCK:   -4.61 KCAL/MOL
REMARK 923 INTER-LIGAND FREE ENERGY PREDICTED BY IDOCK:   -4.41 KCAL/MOL
REMARK 924 INTRA-LIGAND FREE ENERGY PREDICTED BY IDOCK:   -0.20 KCAL/MOL
REMARK 927      BINDING AFFINITY PREDICTED BY RF-SCORE:    0.00 PKD
ROOT
HETATM    1  O   UNL     1      -6.245  10.324  63.148  1.00  0.00    -0.135 OA 
HETATM    2  C   UNL     1      -6.952   9.444  63.887  1.00  0.00    -0.096 C  
HETATM    3  C   UNL     1      -7.390   9.967  65.205  1.00  0.00    -0.131 A  
HETATM    4  O   UNL     1      -7.237   8.326  63.498  1.00  0.00    -0.087 OA 
HETATM    5  C   UNL     1      -6.599  10.886  65.921  1.00  0.00    -0.048 A  
HETATM    6  C   UNL     1      -7.011  11.369  67.171  1.00  0.00    -0.128 A  
HETATM    7  C   UNL     1      -8.217  10.895  67.698  1.00  0.00    -0.116 A  
HETATM    8  N   UNL     1      -8.842  11.183  68.877  1.00  0.00    -0.125 NA 
HETATM    9  C   UNL     1      -9.935  10.441  68.848  1.00  0.00    -0.199 A  
HETATM   10  O   UNL     1     -10.075   9.674  67.716  1.00  0.00    -0.166 OA 
HETATM   11  C   UNL     1      -8.600   9.473  65.734  1.00  0.00    -0.152 A  
HETATM   12  C   UNL     1      -8.960   9.972  66.978  1.00  0.00    -0.138 A  
ENDROOT
BRANCH   9  13
HETATM   13  C   UNL     1     -10.988  10.370  69.856  1.00  0.00    -0.364 A  
HETATM   14  C   UNL     1     -11.578  11.569  70.292  1.00  0.00    -0.305 A  
HETATM   15  C   UNL     1     -12.607  11.557  71.232  1.00  0.00    -0.347 A  
HETATM   16 CL   UNL     1     -13.315  13.041  71.738  1.00  0.00    -0.498 Cl 
HETATM   17  C   UNL     1     -13.065  10.355  71.759  1.00  0.00    -0.567 A  
HETATM   18  C   UNL     1     -12.480   9.163  71.338  1.00  0.00    -0.328 A  
HETATM   19 CL   UNL     1     -13.045   7.671  71.983  1.00  0.00    -0.257 Cl 
HETATM   20  C   UNL     1     -11.448   9.162  70.395  1.00  0.00    -0.228 A  
ENDBRANCH   9  13
TORSDOF 1
ENDMDL
MODEL      144
REMARK 921   NORMALIZED FREE ENERGY PREDICTED BY IDOCK:   -4.16 KCAL/MOL
REMARK 922        TOTAL FREE ENERGY PREDICTED BY IDOCK:   -4.59 KCAL/MOL
REMARK 923 INTER-LIGAND FREE ENERGY PREDICTED BY IDOCK:   -4.38 KCAL/MOL
REMARK 924 INTRA-LIGAND FREE ENERGY PREDICTED BY IDOCK:   -0.21 KCAL/MOL
REMARK 927      BINDING AFFINITY PREDICTED BY RF-SCORE:    0.00 PKD
ROOT
HETATM    1  O   UNL     1     -10.135  19.366  66.169  1.00  0.00    -0.402 OA 
HETATM    2  C   UNL     1      -9.167  18.505  66.546  1.00  0.00    -0.310 C  
HETATM    3  C   UNL     1      -9.665  17.171  66.962  1.00  0.00    -0.265 A  
HETATM    4  O   UNL     1      -7.982  18.784  66.521  1.00  0.00    -0.260 OA 
HETATM    5  C   UNL     1     -10.909  17.027  67.605  1.00  0.00    -0.244 A  
HETATM    6  C   UNL     1     -11.372  15.766  68.006  1.00  0.00    -0.310 A  
HETATM    7  C   UNL     1     -10.552  14.656  67.771  1.00  0.00    -0.251 A  
HETATM    8  N   UNL     1     -10.744  13.336  68.061  1.00  0.00    -0.235 NA 
HETATM    9  C   UNL     1      -9.644  12.751  67.623  1.00  0.00    -0.192 A  
HETATM   10  O   UNL     1      -8.728  13.605  67.058  1.00  0.00    -0.220 OA 
HETATM   11  C   UNL     1      -8.826  16.061  66.734  1.00  0.00    -0.288 A  
HETATM   12  C   UNL     1      -9.321  14.835  67.158  1.00  0.00    -0.224 A  
ENDROOT
BRANCH   9  13
HETATM   13  C   UNL     1      -9.320  11.328  67.660  1.00  0.00    -0.162 A  
HETATM   14  C   UNL     1      -8.028  10.946  68.061  1.00  0.00    -0.109 A  
HETATM   15  C   UNL     1      -7.674   9.601  68.140  1.00  0.00    -0.086 A  
HETATM   16 CL   UNL     1      -6.088   9.166  68.644  1.00  0.00    -0.045 Cl 
HETATM   17  C   UNL     1      -8.595   8.610  67.820  1.00  0.00    -0.136 A  
HETATM   18  C   UNL     1      -9.876   8.980  67.414  1.00  0.00    -0.190 A  
HETATM   19 CL   UNL     1     -11.023   7.760  67.019  1.00  0.00    -0.191 Cl 
HETATM   20  C   UNL     1     -10.243  10.327  67.330  1.00  0.00    -0.265 A  
ENDBRANCH   9  13
TORSDOF 1
ENDMDL
MODEL      145
REMARK 921   NORMALIZED FREE ENERGY PREDICTED BY IDOCK:   -4.14 KCAL/MOL
REMARK 922        TOTAL FREE ENERGY PREDICTED BY IDOCK:   -4.57 KCAL/MOL
REMARK 923 INTER-LIGAND FREE ENERGY PREDICTED BY IDOCK:   -4.35 KCAL/MOL
REMARK 924 INTRA-LIGAND FREE ENERGY PREDICTED BY IDOCK:   -0.22 KCAL/MOL
REMARK 927      BINDING AFFINITY PREDICTED BY RF-SCORE:    0.00 PKD
ROOT
HETATM    1  O   UNL     1      -6.834   5.730  71.714  1.00  0.00    -0.063 OA 
HETATM    2  C   UNL     1      -6.940   7.074  71.759  1.00  0.00    -0.068 C  
HETATM    3  C   UNL     1      -7.551   7.680  70.550  1.00  0.00    -0.081 A  
HETATM    4  O   UNL     1      -6.593   7.738  72.720  1.00  0.00    -0.060 OA 
HETATM    5  C   UNL     1      -7.355   7.114  69.276  1.00  0.00    -0.091 A  
HETATM    6  C   UNL     1      -7.925   7.695  68.135  1.00  0.00    -0.123 A  
HETATM    7  C   UNL     1      -8.675   8.866  68.294  1.00  0.00    -0.134 A  
HETATM    8  N   UNL     1      -9.323   9.634  67.370  1.00  0.00    -0.133 NA 
HETATM    9  C   UNL     1      -9.850  10.613  68.083  1.00  0.00    -0.155 A  
HETATM   10  O   UNL     1      -9.589  10.543  69.431  1.00  0.00    -0.207 OA 
HETATM   11  C   UNL     1      -8.293   8.867  70.718  1.00  0.00    -0.205 A  
HETATM   12  C   UNL     1      -8.828   9.410  69.559  1.00  0.00    -0.162 A  
ENDROOT
BRANCH   9  13
HETATM   13  C   UNL     1     -10.672  11.719  67.603  1.00  0.00    -0.254 A  
HETATM   14  C   UNL     1     -10.926  12.792  68.475  1.00  0.00    -0.288 A  
HETATM   15  C   UNL     1     -11.682  13.886  68.059  1.00  0.00    -0.352 A  
HETATM   16 CL   UNL     1     -11.966  15.188  69.148  1.00  0.00    -0.324 Cl 
HETATM   17  C   UNL     1     -12.202  13.934  66.771  1.00  0.00    -0.438 A  
HETATM   18  C   UNL     1     -11.962  12.871  65.903  1.00  0.00    -0.448 A  
HETATM   19 CL   UNL     1     -12.600  12.924  64.306  1.00  0.00    -0.394 Cl 
HETATM   20  C   UNL     1     -11.205  11.767  66.308  1.00  0.00    -0.370 A  
ENDBRANCH   9  13
TORSDOF 1
ENDMDL
MODEL      146
REMARK 921   NORMALIZED FREE ENERGY PREDICTED BY IDOCK:   -4.13 KCAL/MOL
REMARK 922        TOTAL FREE ENERGY PREDICTED BY IDOCK:   -4.57 KCAL/MOL
REMARK 923 INTER-LIGAND FREE ENERGY PREDICTED BY IDOCK:   -4.38 KCAL/MOL
REMARK 924 INTRA-LIGAND FREE ENERGY PREDICTED BY IDOCK:   -0.19 KCAL/MOL
REMARK 927      BINDING AFFINITY PREDICTED BY RF-SCORE:    0.00 PKD
ROOT
HETATM    1  O   UNL     1      -7.293  20.470  67.403  1.00  0.00    -0.292 OA 
HETATM    2  C   UNL     1      -7.925  19.599  66.590  1.00  0.00    -0.300 C  
HETATM    3  C   UNL     1      -7.652  18.172  66.893  1.00  0.00    -0.239 A  
HETATM    4  O   UNL     1      -8.680  19.946  65.700  1.00  0.00    -0.313 OA 
HETATM    5  C   UNL     1      -6.401  17.762  67.392  1.00  0.00    -0.172 A  
HETATM    6  C   UNL     1      -6.142  16.412  67.667  1.00  0.00    -0.166 A  
HETATM    7  C   UNL     1      -7.154  15.480  67.411  1.00  0.00    -0.202 A  
HETATM    8  N   UNL     1      -7.172  14.125  67.574  1.00  0.00    -0.181 NA 
HETATM    9  C   UNL     1      -8.376  13.770  67.163  1.00  0.00    -0.137 A  
HETATM   10  O   UNL     1      -9.164  14.812  66.735  1.00  0.00    -0.233 OA 
HETATM   11  C   UNL     1      -8.672  17.239  66.619  1.00  0.00    -0.285 A  
HETATM   12  C   UNL     1      -8.366  15.914  66.897  1.00  0.00    -0.246 A  
ENDROOT
BRANCH   9  13
HETATM   13  C   UNL     1      -8.946  12.427  67.137  1.00  0.00    -0.195 A  
HETATM   14  C   UNL     1      -9.741  12.016  68.221  1.00  0.00    -0.205 A  
HETATM   15  C   UNL     1     -10.333  10.755  68.234  1.00  0.00    -0.173 A  
HETATM   16 CL   UNL     1     -11.309  10.286  69.571  1.00  0.00    -0.296 Cl 
HETATM   17  C   UNL     1     -10.143   9.877  67.174  1.00  0.00    -0.270 A  
HETATM   18  C   UNL     1      -9.349  10.272  66.099  1.00  0.00    -0.170 A  
HETATM   19 CL   UNL     1      -9.111   9.191  64.781  1.00  0.00    -0.214 Cl 
HETATM   20  C   UNL     1      -8.750  11.535  66.074  1.00  0.00    -0.095 A  
ENDBRANCH   9  13
TORSDOF 1
ENDMDL
MODEL      147
REMARK 921   NORMALIZED FREE ENERGY PREDICTED BY IDOCK:   -4.12 KCAL/MOL
REMARK 922        TOTAL FREE ENERGY PREDICTED BY IDOCK:   -4.56 KCAL/MOL
REMARK 923 INTER-LIGAND FREE ENERGY PREDICTED BY IDOCK:   -4.35 KCAL/MOL
REMARK 924 INTRA-LIGAND FREE ENERGY PREDICTED BY IDOCK:   -0.21 KCAL/MOL
REMARK 927      BINDING AFFINITY PREDICTED BY RF-SCORE:    0.00 PKD
ROOT
HETATM    1  O   UNL     1     -10.306  20.424  68.705  1.00  0.00    -0.247 OA 
HETATM    2  C   UNL     1     -10.422  19.481  67.748  1.00  0.00    -0.449 C  
HETATM    3  C   UNL     1      -9.610  18.262  67.990  1.00  0.00    -0.314 A  
HETATM    4  O   UNL     1     -11.152  19.600  66.780  1.00  0.00    -0.377 OA 
HETATM    5  C   UNL     1      -8.365  18.336  68.642  1.00  0.00    -0.305 A  
HETATM    6  C   UNL     1      -7.596  17.185  68.860  1.00  0.00    -0.234 A  
HETATM    7  C   UNL     1      -8.090  15.962  68.390  1.00  0.00    -0.149 A  
HETATM    8  N   UNL     1      -7.555  14.708  68.455  1.00  0.00    -0.112 NA 
HETATM    9  C   UNL     1      -8.447  13.949  67.844  1.00  0.00    -0.177 A  
HETATM   10  O   UNL     1      -9.547  14.626  67.375  1.00  0.00    -0.210 OA 
HETATM   11  C   UNL     1     -10.109  17.037  67.502  1.00  0.00    -0.294 A  
HETATM   12  C   UNL     1      -9.308  15.927  67.731  1.00  0.00    -0.207 A  
ENDROOT
BRANCH   9  13
HETATM   13  C   UNL     1      -8.395  12.505  67.640  1.00  0.00    -0.172 A  
HETATM   14  C   UNL     1      -7.702  11.721  68.578  1.00  0.00    -0.137 A  
HETATM   15  C   UNL     1      -7.644  10.335  68.446  1.00  0.00    -0.092 A  
HETATM   16 CL   UNL     1      -6.796   9.404  69.618  1.00  0.00    -0.053 Cl 
HETATM   17  C   UNL     1      -8.271   9.703  67.380  1.00  0.00    -0.114 A  
HETATM   18  C   UNL     1      -8.953  10.473  66.440  1.00  0.00    -0.159 A  
HETATM   19 CL   UNL     1      -9.735   9.696  65.118  1.00  0.00    -0.348 Cl 
HETATM   20  C   UNL     1      -9.019  11.864  66.561  1.00  0.00    -0.199 A  
ENDBRANCH   9  13
TORSDOF 1
ENDMDL
MODEL      148
REMARK 921   NORMALIZED FREE ENERGY PREDICTED BY IDOCK:   -4.12 KCAL/MOL
REMARK 922        TOTAL FREE ENERGY PREDICTED BY IDOCK:   -4.55 KCAL/MOL
REMARK 923 INTER-LIGAND FREE ENERGY PREDICTED BY IDOCK:   -4.36 KCAL/MOL
REMARK 924 INTRA-LIGAND FREE ENERGY PREDICTED BY IDOCK:   -0.20 KCAL/MOL
REMARK 927      BINDING AFFINITY PREDICTED BY RF-SCORE:    0.00 PKD
ROOT
HETATM    1  O   UNL     1      -7.225   2.296  66.986  1.00  0.00    -0.054 OA 
HETATM    2  C   UNL     1      -7.088   3.441  66.286  1.00  0.00    -0.063 C  
HETATM    3  C   UNL     1      -8.180   4.423  66.500  1.00  0.00    -0.102 A  
HETATM    4  O   UNL     1      -6.136   3.669  65.560  1.00  0.00    -0.022 OA 
HETATM    5  C   UNL     1      -9.500   3.999  66.747  1.00  0.00    -0.219 A  
HETATM    6  C   UNL     1     -10.531   4.929  66.938  1.00  0.00    -0.202 A  
HETATM    7  C   UNL     1     -10.217   6.290  66.855  1.00  0.00    -0.209 A  
HETATM    8  N   UNL     1     -11.013   7.392  66.988  1.00  0.00    -0.256 NA 
HETATM    9  C   UNL     1     -10.186   8.405  66.802  1.00  0.00    -0.306 A  
HETATM   10  O   UNL     1      -8.884   8.043  66.552  1.00  0.00    -0.135 OA 
HETATM   11  C   UNL     1      -7.857   5.792  66.401  1.00  0.00    -0.101 A  
HETATM   12  C   UNL     1      -8.913   6.674  66.587  1.00  0.00    -0.142 A  
ENDROOT
BRANCH   9  13
HETATM   13  C   UNL     1     -10.501   9.830  66.853  1.00  0.00    -0.281 A  
HETATM   14  C   UNL     1     -10.361  10.588  65.678  1.00  0.00    -0.274 A  
HETATM   15  C   UNL     1     -10.675  11.946  65.664  1.00  0.00    -0.280 A  
HETATM   16 CL   UNL     1     -10.502  12.844  64.207  1.00  0.00    -0.418 Cl 
HETATM   17  C   UNL     1     -11.130  12.575  66.816  1.00  0.00    -0.323 A  
HETATM   18  C   UNL     1     -11.264  11.833  67.987  1.00  0.00    -0.263 A  
HETATM   19 CL   UNL     1     -11.831  12.604  69.417  1.00  0.00    -0.361 Cl 
HETATM   20  C   UNL     1     -10.953  10.470  68.014  1.00  0.00    -0.345 A  
ENDBRANCH   9  13
TORSDOF 1
ENDMDL
MODEL      149
REMARK 921   NORMALIZED FREE ENERGY PREDICTED BY IDOCK:   -4.11 KCAL/MOL
REMARK 922        TOTAL FREE ENERGY PREDICTED BY IDOCK:   -4.55 KCAL/MOL
REMARK 923 INTER-LIGAND FREE ENERGY PREDICTED BY IDOCK:   -4.35 KCAL/MOL
REMARK 924 INTRA-LIGAND FREE ENERGY PREDICTED BY IDOCK:   -0.19 KCAL/MOL
REMARK 927      BINDING AFFINITY PREDICTED BY RF-SCORE:    0.00 PKD
ROOT
HETATM    1  O   UNL     1      -9.922   2.380  74.472  1.00  0.00    -0.101 OA 
HETATM    2  C   UNL     1     -10.446   2.895  73.341  1.00  0.00    -0.153 C  
HETATM    3  C   UNL     1     -10.325   4.370  73.228  1.00  0.00    -0.235 A  
HETATM    4  O   UNL     1     -10.951   2.211  72.469  1.00  0.00    -0.030 OA 
HETATM    5  C   UNL     1     -10.379   5.193  74.369  1.00  0.00    -0.313 A  
HETATM    6  C   UNL     1     -10.274   6.586  74.258  1.00  0.00    -0.373 A  
HETATM    7  C   UNL     1     -10.139   7.139  72.979  1.00  0.00    -0.228 A  
HETATM    8  N   UNL     1     -10.028   8.441  72.584  1.00  0.00    -0.284 NA 
HETATM    9  C   UNL     1      -9.938   8.368  71.268  1.00  0.00    -0.204 A  
HETATM   10  O   UNL     1      -9.983   7.091  70.762  1.00  0.00    -0.189 OA 
HETATM   11  C   UNL     1     -10.203   4.918  71.935  1.00  0.00    -0.267 A  
HETATM   12  C   UNL     1     -10.114   6.302  71.874  1.00  0.00    -0.181 A  
ENDROOT
BRANCH   9  13
HETATM   13  C   UNL     1      -9.781   9.472  70.326  1.00  0.00    -0.314 A  
HETATM   14  C   UNL     1      -8.488   9.791  69.880  1.00  0.00    -0.217 A  
HETATM   15  C   UNL     1      -8.284  10.817  68.959  1.00  0.00    -0.138 A  
HETATM   16 CL   UNL     1      -6.688  11.177  68.425  1.00  0.00    -0.058 Cl 
HETATM   17  C   UNL     1      -9.360  11.546  68.468  1.00  0.00    -0.171 A  
HETATM   18  C   UNL     1     -10.645  11.242  68.912  1.00  0.00    -0.207 A  
HETATM   19 CL   UNL     1     -11.983  12.139  68.305  1.00  0.00    -0.344 Cl 
HETATM   20  C   UNL     1     -10.863  10.215  69.835  1.00  0.00    -0.347 A  
ENDBRANCH   9  13
TORSDOF 1
ENDMDL
MODEL      150
REMARK 921   NORMALIZED FREE ENERGY PREDICTED BY IDOCK:   -4.09 KCAL/MOL
REMARK 922        TOTAL FREE ENERGY PREDICTED BY IDOCK:   -4.52 KCAL/MOL
REMARK 923 INTER-LIGAND FREE ENERGY PREDICTED BY IDOCK:   -4.32 KCAL/MOL
REMARK 924 INTRA-LIGAND FREE ENERGY PREDICTED BY IDOCK:   -0.20 KCAL/MOL
REMARK 927      BINDING AFFINITY PREDICTED BY RF-SCORE:    0.00 PKD
ROOT
HETATM    1  O   UNL     1     -14.215   8.982  72.812  1.00  0.00    -0.572 OA 
HETATM    2  C   UNL     1     -13.269   9.695  72.167  1.00  0.00    -0.444 C  
HETATM    3  C   UNL     1     -12.318   8.875  71.377  1.00  0.00    -0.368 A  
HETATM    4  O   UNL     1     -13.212  10.912  72.202  1.00  0.00    -0.474 OA 
HETATM    5  C   UNL     1     -11.944   7.586  71.801  1.00  0.00    -0.334 A  
HETATM    6  C   UNL     1     -11.037   6.817  71.058  1.00  0.00    -0.317 A  
HETATM    7  C   UNL     1     -10.497   7.376  69.894  1.00  0.00    -0.231 A  
HETATM    8  N   UNL     1      -9.601   6.865  69.000  1.00  0.00    -0.137 NA 
HETATM    9  C   UNL     1      -9.450   7.831  68.112  1.00  0.00    -0.146 A  
HETATM   10  O   UNL     1     -10.194   8.958  68.362  1.00  0.00    -0.188 OA 
HETATM   11  C   UNL     1     -11.768   9.451  70.213  1.00  0.00    -0.127 A  
HETATM   12  C   UNL     1     -10.868   8.657  69.517  1.00  0.00    -0.129 A  
ENDROOT
BRANCH   9  13
HETATM   13  C   UNL     1      -8.613   7.816  66.916  1.00  0.00    -0.130 A  
HETATM   14  C   UNL     1      -8.743   6.739  66.022  1.00  0.00    -0.155 A  
HETATM   15  C   UNL     1      -7.989   6.689  64.851  1.00  0.00    -0.121 A  
HETATM   16 CL   UNL     1      -8.179   5.362  63.773  1.00  0.00    -0.124 Cl 
HETATM   17  C   UNL     1      -7.090   7.705  64.549  1.00  0.00    -0.065 A  
HETATM   18  C   UNL     1      -6.949   8.772  65.434  1.00  0.00    -0.076 A  
HETATM   19 CL   UNL     1      -5.840  10.035  65.065  1.00  0.00    -0.094 Cl 
HETATM   20  C   UNL     1      -7.700   8.834  66.611  1.00  0.00    -0.093 A  
ENDBRANCH   9  13
TORSDOF 1
ENDMDL
MODEL      151
REMARK 921   NORMALIZED FREE ENERGY PREDICTED BY IDOCK:   -4.08 KCAL/MOL
REMARK 922        TOTAL FREE ENERGY PREDICTED BY IDOCK:   -4.51 KCAL/MOL
REMARK 923 INTER-LIGAND FREE ENERGY PREDICTED BY IDOCK:   -4.31 KCAL/MOL
REMARK 924 INTRA-LIGAND FREE ENERGY PREDICTED BY IDOCK:   -0.20 KCAL/MOL
REMARK 927      BINDING AFFINITY PREDICTED BY RF-SCORE:    0.00 PKD
ROOT
HETATM    1  O   UNL     1      -9.127  20.527  67.056  1.00  0.00    -0.345 OA 
HETATM    2  C   UNL     1      -9.831  19.393  66.861  1.00  0.00    -0.352 C  
HETATM    3  C   UNL     1      -9.029  18.149  66.977  1.00  0.00    -0.263 A  
HETATM    4  O   UNL     1     -11.028  19.382  66.640  1.00  0.00    -0.394 OA 
HETATM    5  C   UNL     1      -7.678  18.117  66.584  1.00  0.00    -0.264 A  
HETATM    6  C   UNL     1      -6.926  16.938  66.684  1.00  0.00    -0.281 A  
HETATM    7  C   UNL     1      -7.563  15.788  67.163  1.00  0.00    -0.224 A  
HETATM    8  N   UNL     1      -7.083  14.523  67.351  1.00  0.00    -0.178 NA 
HETATM    9  C   UNL     1      -8.124  13.853  67.811  1.00  0.00    -0.172 A  
HETATM   10  O   UNL     1      -9.272  14.597  67.940  1.00  0.00    -0.189 OA 
HETATM   11  C   UNL     1      -9.683  16.992  67.447  1.00  0.00    -0.252 A  
HETATM   12  C   UNL     1      -8.901  15.847  67.518  1.00  0.00    -0.189 A  
ENDROOT
BRANCH   9  13
HETATM   13  C   UNL     1      -8.173  12.448  68.204  1.00  0.00    -0.173 A  
HETATM   14  C   UNL     1      -9.192  11.640  67.671  1.00  0.00    -0.178 A  
HETATM   15  C   UNL     1      -9.269  10.286  67.990  1.00  0.00    -0.135 A  
HETATM   16 CL   UNL     1     -10.523   9.321  67.314  1.00  0.00    -0.332 Cl 
HETATM   17  C   UNL     1      -8.338   9.710  68.846  1.00  0.00    -0.116 A  
HETATM   18  C   UNL     1      -7.329  10.506  69.386  1.00  0.00    -0.133 A  
HETATM   19 CL   UNL     1      -6.171   9.800  70.444  1.00  0.00    -0.071 Cl 
HETATM   20  C   UNL     1      -7.241  11.866  69.073  1.00  0.00    -0.068 A  
ENDBRANCH   9  13
TORSDOF 1
ENDMDL
MODEL      152
REMARK 921   NORMALIZED FREE ENERGY PREDICTED BY IDOCK:   -4.05 KCAL/MOL
REMARK 922        TOTAL FREE ENERGY PREDICTED BY IDOCK:   -4.48 KCAL/MOL
REMARK 923 INTER-LIGAND FREE ENERGY PREDICTED BY IDOCK:   -4.26 KCAL/MOL
REMARK 924 INTRA-LIGAND FREE ENERGY PREDICTED BY IDOCK:   -0.22 KCAL/MOL
REMARK 927      BINDING AFFINITY PREDICTED BY RF-SCORE:    0.00 PKD
ROOT
HETATM    1  O   UNL     1      -9.726   3.950  71.007  1.00  0.00    -0.174 OA 
HETATM    2  C   UNL     1      -8.972   5.044  70.773  1.00  0.00    -0.132 C  
HETATM    3  C   UNL     1      -9.395   5.836  69.592  1.00  0.00    -0.166 A  
HETATM    4  O   UNL     1      -8.040   5.375  71.485  1.00  0.00    -0.112 OA 
HETATM    5  C   UNL     1      -9.952   5.212  68.460  1.00  0.00    -0.221 A  
HETATM    6  C   UNL     1     -10.340   5.962  67.342  1.00  0.00    -0.274 A  
HETATM    7  C   UNL     1     -10.138   7.347  67.373  1.00  0.00    -0.211 A  
HETATM    8  N   UNL     1     -10.409   8.302  66.436  1.00  0.00    -0.122 NA 
HETATM    9  C   UNL     1     -10.002   9.426  66.999  1.00  0.00    -0.221 A  
HETATM   10  O   UNL     1      -9.474   9.274  68.259  1.00  0.00    -0.138 OA 
HETATM   11  C   UNL     1      -9.174   7.228  69.627  1.00  0.00    -0.143 A  
HETATM   12  C   UNL     1      -9.564   7.927  68.493  1.00  0.00    -0.150 A  
ENDROOT
BRANCH   9  13
HETATM   13  C   UNL     1     -10.071  10.774  66.445  1.00  0.00    -0.278 A  
HETATM   14  C   UNL     1      -9.481  11.825  67.166  1.00  0.00    -0.180 A  
HETATM   15  C   UNL     1      -9.494  13.127  66.670  1.00  0.00    -0.260 A  
HETATM   16 CL   UNL     1      -8.752  14.390  67.573  1.00  0.00    -0.188 Cl 
HETATM   17  C   UNL     1     -10.097  13.409  65.450  1.00  0.00    -0.270 A  
HETATM   18  C   UNL     1     -10.693  12.374  64.732  1.00  0.00    -0.298 A  
HETATM   19 CL   UNL     1     -11.439  12.715  63.219  1.00  0.00    -0.488 Cl 
HETATM   20  C   UNL     1     -10.686  11.064  65.220  1.00  0.00    -0.234 A  
ENDBRANCH   9  13
TORSDOF 1
ENDMDL
MODEL      153
REMARK 921   NORMALIZED FREE ENERGY PREDICTED BY IDOCK:   -4.04 KCAL/MOL
REMARK 922        TOTAL FREE ENERGY PREDICTED BY IDOCK:   -4.47 KCAL/MOL
REMARK 923 INTER-LIGAND FREE ENERGY PREDICTED BY IDOCK:   -4.29 KCAL/MOL
REMARK 924 INTRA-LIGAND FREE ENERGY PREDICTED BY IDOCK:   -0.19 KCAL/MOL
REMARK 927      BINDING AFFINITY PREDICTED BY RF-SCORE:    0.00 PKD
ROOT
HETATM    1  O   UNL     1      -6.633   7.654  72.964  1.00  0.00    -0.063 OA 
HETATM    2  C   UNL     1      -7.774   8.291  72.627  1.00  0.00    -0.117 C  
HETATM    3  C   UNL     1      -7.695   9.056  71.358  1.00  0.00    -0.081 A  
HETATM    4  O   UNL     1      -8.795   8.223  73.289  1.00  0.00    -0.242 OA 
HETATM    5  C   UNL     1      -6.496   9.675  70.957  1.00  0.00    -0.051 A  
HETATM    6  C   UNL     1      -6.427  10.406  69.763  1.00  0.00    -0.089 A  
HETATM    7  C   UNL     1      -7.590  10.524  68.993  1.00  0.00    -0.117 A  
HETATM    8  N   UNL     1      -7.808  11.174  67.812  1.00  0.00    -0.111 NA 
HETATM    9  C   UNL     1      -9.086  10.956  67.560  1.00  0.00    -0.140 A  
HETATM   10  O   UNL     1      -9.734  10.198  68.505  1.00  0.00    -0.147 OA 
HETATM   11  C   UNL     1      -8.874   9.181  70.596  1.00  0.00    -0.278 A  
HETATM   12  C   UNL     1      -8.760   9.923  69.429  1.00  0.00    -0.179 A  
ENDROOT
BRANCH   9  13
HETATM   13  C   UNL     1      -9.853  11.409  66.403  1.00  0.00    -0.242 A  
HETATM   14  C   UNL     1      -9.557  10.855  65.146  1.00  0.00    -0.291 A  
HETATM   15  C   UNL     1     -10.277  11.231  64.014  1.00  0.00    -0.348 A  
HETATM   16 CL   UNL     1      -9.897  10.526  62.491  1.00  0.00    -0.162 Cl 
HETATM   17  C   UNL     1     -11.301  12.165  64.109  1.00  0.00    -0.449 A  
HETATM   18  C   UNL     1     -11.595  12.726  65.350  1.00  0.00    -0.358 A  
HETATM   19 CL   UNL     1     -12.864  13.882  65.476  1.00  0.00    -0.537 Cl 
HETATM   20  C   UNL     1     -10.880  12.357  66.493  1.00  0.00    -0.284 A  
ENDBRANCH   9  13
TORSDOF 1
ENDMDL
MODEL      154
REMARK 921   NORMALIZED FREE ENERGY PREDICTED BY IDOCK:   -4.04 KCAL/MOL
REMARK 922        TOTAL FREE ENERGY PREDICTED BY IDOCK:   -4.47 KCAL/MOL
REMARK 923 INTER-LIGAND FREE ENERGY PREDICTED BY IDOCK:   -4.26 KCAL/MOL
REMARK 924 INTRA-LIGAND FREE ENERGY PREDICTED BY IDOCK:   -0.21 KCAL/MOL
REMARK 927      BINDING AFFINITY PREDICTED BY RF-SCORE:    0.00 PKD
ROOT
HETATM    1  O   UNL     1     -10.133  19.367  66.163  1.00  0.00    -0.402 OA 
HETATM    2  C   UNL     1      -9.133  18.525  66.494  1.00  0.00    -0.295 C  
HETATM    3  C   UNL     1      -9.580  17.156  66.852  1.00  0.00    -0.268 A  
HETATM    4  O   UNL     1      -7.958  18.846  66.474  1.00  0.00    -0.257 OA 
HETATM    5  C   UNL     1     -10.813  16.940  67.496  1.00  0.00    -0.207 A  
HETATM    6  C   UNL     1     -11.228  15.646  67.842  1.00  0.00    -0.328 A  
HETATM    7  C   UNL     1     -10.372  14.578  67.551  1.00  0.00    -0.244 A  
HETATM    8  N   UNL     1     -10.516  13.240  67.781  1.00  0.00    -0.235 NA 
HETATM    9  C   UNL     1      -9.399  12.714  67.310  1.00  0.00    -0.195 A  
HETATM   10  O   UNL     1      -8.518  13.625  66.778  1.00  0.00    -0.117 OA 
HETATM   11  C   UNL     1      -8.705  16.088  66.567  1.00  0.00    -0.338 A  
HETATM   12  C   UNL     1      -9.154  14.828  66.938  1.00  0.00    -0.248 A  
ENDROOT
BRANCH   9  13
HETATM   13  C   UNL     1      -9.026  11.303  67.279  1.00  0.00    -0.149 A  
HETATM   14  C   UNL     1     -10.048  10.342  67.214  1.00  0.00    -0.249 A  
HETATM   15  C   UNL     1      -9.747   8.983  67.155  1.00  0.00    -0.181 A  
HETATM   16 CL   UNL     1     -11.022   7.831  67.066  1.00  0.00    -0.191 Cl 
HETATM   17  C   UNL     1      -8.425   8.554  67.162  1.00  0.00    -0.118 A  
HETATM   18  C   UNL     1      -7.405   9.500  67.235  1.00  0.00    -0.087 A  
HETATM   19 CL   UNL     1      -5.765   8.977  67.242  1.00  0.00    -0.042 Cl 
HETATM   20  C   UNL     1      -7.694  10.867  67.295  1.00  0.00    -0.112 A  
ENDBRANCH   9  13
TORSDOF 1
ENDMDL
MODEL      155
REMARK 921   NORMALIZED FREE ENERGY PREDICTED BY IDOCK:   -4.03 KCAL/MOL
REMARK 922        TOTAL FREE ENERGY PREDICTED BY IDOCK:   -4.45 KCAL/MOL
REMARK 923 INTER-LIGAND FREE ENERGY PREDICTED BY IDOCK:   -4.27 KCAL/MOL
REMARK 924 INTRA-LIGAND FREE ENERGY PREDICTED BY IDOCK:   -0.18 KCAL/MOL
REMARK 927      BINDING AFFINITY PREDICTED BY RF-SCORE:    0.00 PKD
ROOT
HETATM    1  O   UNL     1      -9.850   5.297  66.814  1.00  0.00    -0.143 OA 
HETATM    2  C   UNL     1     -10.015   6.328  67.668  1.00  0.00    -0.131 C  
HETATM    3  C   UNL     1      -9.519   7.630  67.157  1.00  0.00    -0.196 A  
HETATM    4  O   UNL     1     -10.552   6.213  68.755  1.00  0.00    -0.213 OA 
HETATM    5  C   UNL     1      -8.396   7.698  66.310  1.00  0.00    -0.133 A  
HETATM    6  C   UNL     1      -7.924   8.930  65.838  1.00  0.00    -0.107 A  
HETATM    7  C   UNL     1      -8.584  10.093  66.250  1.00  0.00    -0.131 A  
HETATM    8  N   UNL     1      -8.337  11.403  65.957  1.00  0.00    -0.082 NA 
HETATM    9  C   UNL     1      -9.266  12.061  66.628  1.00  0.00    -0.211 A  
HETATM   10  O   UNL     1     -10.119  11.264  67.353  1.00  0.00    -0.184 OA 
HETATM   11  C   UNL     1     -10.182   8.797  67.589  1.00  0.00    -0.298 A  
HETATM   12  C   UNL     1      -9.672   9.993  67.104  1.00  0.00    -0.174 A  
ENDROOT
BRANCH   9  13
HETATM   13  C   UNL     1      -9.484  13.504  66.661  1.00  0.00    -0.271 A  
HETATM   14  C   UNL     1     -10.258  14.087  65.644  1.00  0.00    -0.351 A  
HETATM   15  C   UNL     1     -10.521  15.455  65.643  1.00  0.00    -0.372 A  
HETATM   16 CL   UNL     1     -11.481  16.136  64.388  1.00  0.00    -0.364 Cl 
HETATM   17  C   UNL     1     -10.017  16.270  66.650  1.00  0.00    -0.274 A  
HETATM   18  C   UNL     1      -9.241  15.701  67.658  1.00  0.00    -0.193 A  
HETATM   19 CL   UNL     1      -8.616  16.703  68.910  1.00  0.00    -0.251 Cl 
HETATM   20  C   UNL     1      -8.971  14.329  67.670  1.00  0.00    -0.194 A  
ENDBRANCH   9  13
TORSDOF 1
ENDMDL
MODEL      156
REMARK 921   NORMALIZED FREE ENERGY PREDICTED BY IDOCK:   -4.01 KCAL/MOL
REMARK 922        TOTAL FREE ENERGY PREDICTED BY IDOCK:   -4.44 KCAL/MOL
REMARK 923 INTER-LIGAND FREE ENERGY PREDICTED BY IDOCK:   -4.26 KCAL/MOL
REMARK 924 INTRA-LIGAND FREE ENERGY PREDICTED BY IDOCK:   -0.18 KCAL/MOL
REMARK 927      BINDING AFFINITY PREDICTED BY RF-SCORE:    0.00 PKD
ROOT
HETATM    1  O   UNL     1      -8.144   2.973  66.216  1.00  0.00    -0.081 OA 
HETATM    2  C   UNL     1      -8.881   3.847  66.933  1.00  0.00    -0.126 C  
HETATM    3  C   UNL     1      -8.641   5.271  66.592  1.00  0.00    -0.110 A  
HETATM    4  O   UNL     1      -9.697   3.502  67.769  1.00  0.00    -0.165 OA 
HETATM    5  C   UNL     1      -7.369   5.717  66.186  1.00  0.00    -0.078 A  
HETATM    6  C   UNL     1      -7.144   7.065  65.875  1.00  0.00    -0.073 A  
HETATM    7  C   UNL     1      -8.213   7.960  66.002  1.00  0.00    -0.122 A  
HETATM    8  N   UNL     1      -8.272   9.306  65.779  1.00  0.00    -0.114 NA 
HETATM    9  C   UNL     1      -9.522   9.622  66.068  1.00  0.00    -0.225 A  
HETATM   10  O   UNL     1     -10.300   8.564  66.472  1.00  0.00    -0.283 OA 
HETATM   11  C   UNL     1      -9.720   6.168  66.736  1.00  0.00    -0.191 A  
HETATM   12  C   UNL     1      -9.446   7.493  66.428  1.00  0.00    -0.147 A  
ENDROOT
BRANCH   9  13
HETATM   13  C   UNL     1     -10.147  10.938  65.985  1.00  0.00    -0.303 A  
HETATM   14  C   UNL     1     -10.045  11.798  67.092  1.00  0.00    -0.224 A  
HETATM   15  C   UNL     1     -10.599  13.075  67.056  1.00  0.00    -0.257 A  
HETATM   16 CL   UNL     1     -10.447  14.108  68.424  1.00  0.00    -0.247 Cl 
HETATM   17  C   UNL     1     -11.269  13.521  65.923  1.00  0.00    -0.310 A  
HETATM   18  C   UNL     1     -11.383  12.672  64.825  1.00  0.00    -0.312 A  
HETATM   19 CL   UNL     1     -12.208  13.218  63.416  1.00  0.00    -0.569 Cl 
HETATM   20  C   UNL     1     -10.830  11.388  64.848  1.00  0.00    -0.323 A  
ENDBRANCH   9  13
TORSDOF 1
ENDMDL
MODEL      157
REMARK 921   NORMALIZED FREE ENERGY PREDICTED BY IDOCK:   -3.98 KCAL/MOL
REMARK 922        TOTAL FREE ENERGY PREDICTED BY IDOCK:   -4.40 KCAL/MOL
REMARK 923 INTER-LIGAND FREE ENERGY PREDICTED BY IDOCK:   -4.22 KCAL/MOL
REMARK 924 INTRA-LIGAND FREE ENERGY PREDICTED BY IDOCK:   -0.18 KCAL/MOL
REMARK 927      BINDING AFFINITY PREDICTED BY RF-SCORE:    0.00 PKD
ROOT
HETATM    1  O   UNL     1      -5.544  10.425  64.149  1.00  0.00    -0.129 OA 
HETATM    2  C   UNL     1      -5.872  10.773  65.410  1.00  0.00    -0.079 C  
HETATM    3  C   UNL     1      -7.086  10.099  65.934  1.00  0.00    -0.121 A  
HETATM    4  O   UNL     1      -5.215  11.552  66.078  1.00  0.00    -0.299 OA 
HETATM    5  C   UNL     1      -8.156   9.766  65.083  1.00  0.00    -0.132 A  
HETATM    6  C   UNL     1      -9.306   9.139  65.584  1.00  0.00    -0.300 A  
HETATM    7  C   UNL     1      -9.369   8.874  66.956  1.00  0.00    -0.152 A  
HETATM    8  N   UNL     1     -10.355   8.292  67.701  1.00  0.00    -0.237 NA 
HETATM    9  C   UNL     1      -9.877   8.313  68.933  1.00  0.00    -0.180 A  
HETATM   10  O   UNL     1      -8.629   8.876  69.053  1.00  0.00    -0.134 OA 
HETATM   11  C   UNL     1      -7.147   9.849  67.321  1.00  0.00    -0.085 A  
HETATM   12  C   UNL     1      -8.308   9.237  67.771  1.00  0.00    -0.116 A  
ENDROOT
BRANCH   9  13
HETATM   13  C   UNL     1     -10.513   7.796  70.141  1.00  0.00    -0.231 A  
HETATM   14  C   UNL     1     -11.504   8.575  70.761  1.00  0.00    -0.281 A  
HETATM   15  C   UNL     1     -12.163   8.118  71.900  1.00  0.00    -0.331 A  
HETATM   16 CL   UNL     1     -13.379   9.091  72.629  1.00  0.00    -0.471 Cl 
HETATM   17  C   UNL     1     -11.847   6.880  72.447  1.00  0.00    -0.217 A  
HETATM   18  C   UNL     1     -10.858   6.104  71.843  1.00  0.00    -0.249 A  
HETATM   19 CL   UNL     1     -10.463   4.569  72.512  1.00  0.00    -0.258 Cl 
HETATM   20  C   UNL     1     -10.191   6.552  70.699  1.00  0.00    -0.220 A  
ENDBRANCH   9  13
TORSDOF 1
ENDMDL
MODEL      158
REMARK 921   NORMALIZED FREE ENERGY PREDICTED BY IDOCK:   -3.96 KCAL/MOL
REMARK 922        TOTAL FREE ENERGY PREDICTED BY IDOCK:   -4.39 KCAL/MOL
REMARK 923 INTER-LIGAND FREE ENERGY PREDICTED BY IDOCK:   -4.19 KCAL/MOL
REMARK 924 INTRA-LIGAND FREE ENERGY PREDICTED BY IDOCK:   -0.20 KCAL/MOL
REMARK 927      BINDING AFFINITY PREDICTED BY RF-SCORE:    0.00 PKD
ROOT
HETATM    1  O   UNL     1      -5.606  10.326  64.036  1.00  0.00    -0.118 OA 
HETATM    2  C   UNL     1      -5.889  10.693  65.303  1.00  0.00    -0.107 C  
HETATM    3  C   UNL     1      -7.168  10.150  65.825  1.00  0.00    -0.128 A  
HETATM    4  O   UNL     1      -5.148  11.386  65.977  1.00  0.00    -0.248 OA 
HETATM    5  C   UNL     1      -8.272   9.948  64.975  1.00  0.00    -0.143 A  
HETATM    6  C   UNL     1      -9.482   9.445  65.474  1.00  0.00    -0.328 A  
HETATM    7  C   UNL     1      -9.570   9.172  66.844  1.00  0.00    -0.178 A  
HETATM    8  N   UNL     1     -10.610   8.694  67.586  1.00  0.00    -0.234 NA 
HETATM    9  C   UNL     1     -10.129   8.646  68.816  1.00  0.00    -0.196 A  
HETATM   10  O   UNL     1      -8.826   9.066  68.936  1.00  0.00    -0.137 OA 
HETATM   11  C   UNL     1      -7.251   9.891  67.208  1.00  0.00    -0.086 A  
HETATM   12  C   UNL     1      -8.472   9.406  67.657  1.00  0.00    -0.119 A  
ENDROOT
BRANCH   9  13
HETATM   13  C   UNL     1     -10.814   8.188  70.021  1.00  0.00    -0.233 A  
HETATM   14  C   UNL     1     -10.390   6.988  70.615  1.00  0.00    -0.223 A  
HETATM   15  C   UNL     1     -10.990   6.519  71.782  1.00  0.00    -0.247 A  
HETATM   16 CL   UNL     1     -10.440   5.051  72.491  1.00  0.00    -0.260 Cl 
HETATM   17  C   UNL     1     -12.024   7.231  72.377  1.00  0.00    -0.202 A  
HETATM   18  C   UNL     1     -12.457   8.418  71.789  1.00  0.00    -0.335 A  
HETATM   19 CL   UNL     1     -13.735   9.307  72.522  1.00  0.00    -0.507 Cl 
HETATM   20  C   UNL     1     -11.862   8.899  70.619  1.00  0.00    -0.159 A  
ENDBRANCH   9  13
TORSDOF 1
ENDMDL
MODEL      159
REMARK 921   NORMALIZED FREE ENERGY PREDICTED BY IDOCK:   -3.93 KCAL/MOL
REMARK 922        TOTAL FREE ENERGY PREDICTED BY IDOCK:   -4.35 KCAL/MOL
REMARK 923 INTER-LIGAND FREE ENERGY PREDICTED BY IDOCK:   -4.14 KCAL/MOL
REMARK 924 INTRA-LIGAND FREE ENERGY PREDICTED BY IDOCK:   -0.21 KCAL/MOL
REMARK 927      BINDING AFFINITY PREDICTED BY RF-SCORE:    0.00 PKD
ROOT
HETATM    1  O   UNL     1      -9.265  13.895  67.073  1.00  0.00    -0.231 OA 
HETATM    2  C   UNL     1     -10.110  13.209  67.870  1.00  0.00    -0.232 C  
HETATM    3  C   UNL     1      -9.910  11.739  67.850  1.00  0.00    -0.186 A  
HETATM    4  O   UNL     1     -10.948  13.746  68.572  1.00  0.00    -0.244 OA 
HETATM    5  C   UNL     1      -9.484  11.079  66.682  1.00  0.00    -0.207 A  
HETATM    6  C   UNL     1      -9.306   9.689  66.663  1.00  0.00    -0.200 A  
HETATM    7  C   UNL     1      -9.585   8.972  67.833  1.00  0.00    -0.147 A  
HETATM    8  N   UNL     1      -9.510   7.633  68.089  1.00  0.00    -0.144 NA 
HETATM    9  C   UNL     1      -9.899   7.528  69.348  1.00  0.00    -0.166 A  
HETATM   10  O   UNL     1     -10.230   8.720  69.945  1.00  0.00    -0.190 OA 
HETATM   11  C   UNL     1     -10.207  11.023  69.028  1.00  0.00    -0.217 A  
HETATM   12  C   UNL     1     -10.026   9.649  68.959  1.00  0.00    -0.185 A  
ENDROOT
BRANCH   9  13
HETATM   13  C   UNL     1      -9.991   6.312  70.150  1.00  0.00    -0.209 A  
HETATM   14  C   UNL     1      -9.702   5.082  69.536  1.00  0.00    -0.259 A  
HETATM   15  C   UNL     1      -9.748   3.894  70.263  1.00  0.00    -0.175 A  
HETATM   16 CL   UNL     1      -9.379   2.405  69.484  1.00  0.00    -0.185 Cl 
HETATM   17  C   UNL     1     -10.084   3.906  71.611  1.00  0.00    -0.167 A  
HETATM   18  C   UNL     1     -10.380   5.120  72.226  1.00  0.00    -0.211 A  
HETATM   19 CL   UNL     1     -10.795   5.143  73.896  1.00  0.00    -0.340 Cl 
HETATM   20  C   UNL     1     -10.338   6.319  71.508  1.00  0.00    -0.243 A  
ENDBRANCH   9  13
TORSDOF 1
ENDMDL
MODEL      160
REMARK 921   NORMALIZED FREE ENERGY PREDICTED BY IDOCK:   -3.93 KCAL/MOL
REMARK 922        TOTAL FREE ENERGY PREDICTED BY IDOCK:   -4.35 KCAL/MOL
REMARK 923 INTER-LIGAND FREE ENERGY PREDICTED BY IDOCK:   -4.14 KCAL/MOL
REMARK 924 INTRA-LIGAND FREE ENERGY PREDICTED BY IDOCK:   -0.21 KCAL/MOL
REMARK 927      BINDING AFFINITY PREDICTED BY RF-SCORE:    0.00 PKD
ROOT
HETATM    1  O   UNL     1     -14.357   8.912  72.657  1.00  0.00    -0.613 OA 
HETATM    2  C   UNL     1     -13.223   9.397  72.110  1.00  0.00    -0.460 C  
HETATM    3  C   UNL     1     -12.350   8.364  71.499  1.00  0.00    -0.343 A  
HETATM    4  O   UNL     1     -12.949  10.583  72.089  1.00  0.00    -0.435 OA 
HETATM    5  C   UNL     1     -12.274   7.066  72.038  1.00  0.00    -0.317 A  
HETATM    6  C   UNL     1     -11.440   6.096  71.465  1.00  0.00    -0.325 A  
HETATM    7  C   UNL     1     -10.666   6.461  70.357  1.00  0.00    -0.262 A  
HETATM    8  N   UNL     1      -9.776   5.734  69.620  1.00  0.00    -0.154 NA 
HETATM    9  C   UNL     1      -9.342   6.589  68.711  1.00  0.00    -0.130 A  
HETATM   10  O   UNL     1      -9.892   7.845  68.799  1.00  0.00    -0.160 OA 
HETATM   11  C   UNL     1     -11.564   8.745  70.392  1.00  0.00    -0.105 A  
HETATM   12  C   UNL     1     -10.746   7.755  69.866  1.00  0.00    -0.245 A  
ENDROOT
BRANCH   9  13
HETATM   13  C   UNL     1      -8.382   6.336  67.641  1.00  0.00    -0.117 A  
HETATM   14  C   UNL     1      -7.436   7.332  67.342  1.00  0.00    -0.096 A  
HETATM   15  C   UNL     1      -6.479   7.132  66.350  1.00  0.00    -0.051 A  
HETATM   16 CL   UNL     1      -5.329   8.368  66.015  1.00  0.00    -0.031 Cl 
HETATM   17  C   UNL     1      -6.445   5.942  65.634  1.00  0.00    -0.043 A  
HETATM   18  C   UNL     1      -7.384   4.952  65.918  1.00  0.00    -0.077 A  
HETATM   19 CL   UNL     1      -7.346   3.474  65.038  1.00  0.00    -0.070 Cl 
HETATM   20  C   UNL     1      -8.349   5.141  66.912  1.00  0.00    -0.107 A  
ENDBRANCH   9  13
TORSDOF 1
ENDMDL
MODEL      161
REMARK 921   NORMALIZED FREE ENERGY PREDICTED BY IDOCK:   -3.91 KCAL/MOL
REMARK 922        TOTAL FREE ENERGY PREDICTED BY IDOCK:   -4.33 KCAL/MOL
REMARK 923 INTER-LIGAND FREE ENERGY PREDICTED BY IDOCK:   -4.12 KCAL/MOL
REMARK 924 INTRA-LIGAND FREE ENERGY PREDICTED BY IDOCK:   -0.21 KCAL/MOL
REMARK 927      BINDING AFFINITY PREDICTED BY RF-SCORE:    0.00 PKD
ROOT
HETATM    1  O   UNL     1     -13.485   7.575  71.128  1.00  0.00    -0.273 OA 
HETATM    2  C   UNL     1     -13.137   8.794  71.588  1.00  0.00    -0.352 C  
HETATM    3  C   UNL     1     -12.197   9.534  70.710  1.00  0.00    -0.269 A  
HETATM    4  O   UNL     1     -13.577   9.266  72.621  1.00  0.00    -0.455 OA 
HETATM    5  C   UNL     1     -11.224   8.855  69.952  1.00  0.00    -0.076 A  
HETATM    6  C   UNL     1     -10.330   9.557  69.131  1.00  0.00    -0.218 A  
HETATM    7  C   UNL     1     -10.417  10.954  69.104  1.00  0.00    -0.221 A  
HETATM    8  N   UNL     1      -9.680  11.873  68.414  1.00  0.00    -0.206 NA 
HETATM    9  C   UNL     1     -10.195  13.033  68.780  1.00  0.00    -0.089 A  
HETATM   10  O   UNL     1     -11.234  12.941  69.676  1.00  0.00    -0.142 OA 
HETATM   11  C   UNL     1     -12.282  10.941  70.699  1.00  0.00    -0.472 A  
HETATM   12  C   UNL     1     -11.370  11.593  69.881  1.00  0.00    -0.150 A  
ENDROOT
BRANCH   9  13
HETATM   13  C   UNL     1      -9.799  14.364  68.329  1.00  0.00    -0.229 A  
HETATM   14  C   UNL     1      -8.453  14.580  67.987  1.00  0.00    -0.161 A  
HETATM   15  C   UNL     1      -8.026  15.823  67.524  1.00  0.00    -0.150 A  
HETATM   16 CL   UNL     1      -6.374  16.053  67.103  1.00  0.00    -0.179 Cl 
HETATM   17  C   UNL     1      -8.926  16.874  67.395  1.00  0.00    -0.215 A  
HETATM   18  C   UNL     1     -10.261  16.670  67.741  1.00  0.00    -0.292 A  
HETATM   19 CL   UNL     1     -11.382  17.966  67.582  1.00  0.00     0.283 Cl 
HETATM   20  C   UNL     1     -10.702  15.428  68.207  1.00  0.00    -0.260 A  
ENDBRANCH   9  13
TORSDOF 1
ENDMDL
MODEL      162
REMARK 921   NORMALIZED FREE ENERGY PREDICTED BY IDOCK:   -3.91 KCAL/MOL
REMARK 922        TOTAL FREE ENERGY PREDICTED BY IDOCK:   -4.33 KCAL/MOL
REMARK 923 INTER-LIGAND FREE ENERGY PREDICTED BY IDOCK:   -4.13 KCAL/MOL
REMARK 924 INTRA-LIGAND FREE ENERGY PREDICTED BY IDOCK:   -0.20 KCAL/MOL
REMARK 927      BINDING AFFINITY PREDICTED BY RF-SCORE:    0.00 PKD
ROOT
HETATM    1  O   UNL     1     -10.501   4.038  74.219  1.00  0.00    -0.193 OA 
HETATM    2  C   UNL     1     -10.547   4.166  72.877  1.00  0.00    -0.167 C  
HETATM    3  C   UNL     1     -10.673   5.565  72.399  1.00  0.00    -0.286 A  
HETATM    4  O   UNL     1     -10.462   3.219  72.115  1.00  0.00    -0.064 OA 
HETATM    5  C   UNL     1     -11.392   6.523  73.139  1.00  0.00    -0.009 A  
HETATM    6  C   UNL     1     -11.518   7.842  72.681  1.00  0.00    -0.430 A  
HETATM    7  C   UNL     1     -10.928   8.174  71.455  1.00  0.00    -0.243 A  
HETATM    8  N   UNL     1     -10.903   9.358  70.777  1.00  0.00    -0.277 NA 
HETATM    9  C   UNL     1     -10.217   9.084  69.682  1.00  0.00    -0.206 A  
HETATM   10  O   UNL     1      -9.783   7.784  69.590  1.00  0.00    -0.170 OA 
HETATM   11  C   UNL     1     -10.088   5.887  71.158  1.00  0.00    -0.249 A  
HETATM   12  C   UNL     1     -10.248   7.201  70.740  1.00  0.00    -0.197 A  
ENDROOT
BRANCH   9  13
HETATM   13  C   UNL     1      -9.867  10.000  68.600  1.00  0.00    -0.168 A  
HETATM   14  C   UNL     1      -9.279  11.232  68.932  1.00  0.00    -0.076 A  
HETATM   15  C   UNL     1      -8.900  12.132  67.937  1.00  0.00    -0.177 A  
HETATM   16 CL   UNL     1      -8.173  13.629  68.376  1.00  0.00    -0.152 Cl 
HETATM   17  C   UNL     1      -9.099  11.825  66.597  1.00  0.00    -0.194 A  
HETATM   18  C   UNL     1      -9.689  10.608  66.260  1.00  0.00    -0.199 A  
HETATM   19 CL   UNL     1      -9.937  10.220  64.602  1.00  0.00    -0.405 Cl 
HETATM   20  C   UNL     1     -10.074   9.697  67.248  1.00  0.00    -0.267 A  
ENDBRANCH   9  13
TORSDOF 1
ENDMDL
MODEL      163
REMARK 921   NORMALIZED FREE ENERGY PREDICTED BY IDOCK:   -3.88 KCAL/MOL
REMARK 922        TOTAL FREE ENERGY PREDICTED BY IDOCK:   -4.30 KCAL/MOL
REMARK 923 INTER-LIGAND FREE ENERGY PREDICTED BY IDOCK:   -4.09 KCAL/MOL
REMARK 924 INTRA-LIGAND FREE ENERGY PREDICTED BY IDOCK:   -0.21 KCAL/MOL
REMARK 927      BINDING AFFINITY PREDICTED BY RF-SCORE:    0.00 PKD
ROOT
HETATM    1  O   UNL     1     -12.494  15.491  69.138  1.00  0.00    -0.127 OA 
HETATM    2  C   UNL     1     -12.705  14.331  69.795  1.00  0.00     0.041 C  
HETATM    3  C   UNL     1     -12.147  13.135  69.117  1.00  0.00    -0.261 A  
HETATM    4  O   UNL     1     -13.278  14.268  70.868  1.00  0.00    -0.342 OA 
HETATM    5  C   UNL     1     -12.095  13.054  67.713  1.00  0.00    -0.244 A  
HETATM    6  C   UNL     1     -11.577  11.918  67.076  1.00  0.00    -0.365 A  
HETATM    7  C   UNL     1     -11.133  10.857  67.874  1.00  0.00    -0.302 A  
HETATM    8  N   UNL     1     -10.601   9.649  67.526  1.00  0.00    -0.270 NA 
HETATM    9  C   UNL     1     -10.378   9.053  68.683  1.00  0.00    -0.209 A  
HETATM   10  O   UNL     1     -10.732   9.795  69.785  1.00  0.00    -0.225 OA 
HETATM   11  C   UNL     1     -11.715  12.066  69.929  1.00  0.00    -0.374 A  
HETATM   12  C   UNL     1     -11.220  10.959  69.253  1.00  0.00    -0.265 A  
ENDROOT
BRANCH   9  13
HETATM   13  C   UNL     1      -9.794   7.735  68.906  1.00  0.00    -0.166 A  
HETATM   14  C   UNL     1      -8.951   7.201  67.917  1.00  0.00    -0.122 A  
HETATM   15  C   UNL     1      -8.345   5.958  68.091  1.00  0.00    -0.115 A  
HETATM   16 CL   UNL     1      -7.309   5.337  66.865  1.00  0.00    -0.085 Cl 
HETATM   17  C   UNL     1      -8.567   5.222  69.248  1.00  0.00    -0.102 A  
HETATM   18  C   UNL     1      -9.408   5.740  70.231  1.00  0.00    -0.156 A  
HETATM   19 CL   UNL     1      -9.686   4.836  71.668  1.00  0.00    -0.219 Cl 
HETATM   20  C   UNL     1     -10.022   6.986  70.068  1.00  0.00    -0.188 A  
ENDBRANCH   9  13
TORSDOF 1
ENDMDL
MODEL      164
REMARK 921   NORMALIZED FREE ENERGY PREDICTED BY IDOCK:   -3.88 KCAL/MOL
REMARK 922        TOTAL FREE ENERGY PREDICTED BY IDOCK:   -4.30 KCAL/MOL
REMARK 923 INTER-LIGAND FREE ENERGY PREDICTED BY IDOCK:   -4.10 KCAL/MOL
REMARK 924 INTRA-LIGAND FREE ENERGY PREDICTED BY IDOCK:   -0.20 KCAL/MOL
REMARK 927      BINDING AFFINITY PREDICTED BY RF-SCORE:    0.00 PKD
ROOT
HETATM    1  O   UNL     1      -5.975   3.432  64.949  1.00  0.00    -0.021 OA 
HETATM    2  C   UNL     1      -6.280   4.684  64.551  1.00  0.00    -0.030 C  
HETATM    3  C   UNL     1      -7.450   5.278  65.244  1.00  0.00    -0.077 A  
HETATM    4  O   UNL     1      -5.635   5.293  63.715  1.00  0.00    -0.013 OA 
HETATM    5  C   UNL     1      -8.530   4.478  65.660  1.00  0.00    -0.116 A  
HETATM    6  C   UNL     1      -9.639   5.044  66.305  1.00  0.00    -0.175 A  
HETATM    7  C   UNL     1      -9.652   6.429  66.503  1.00  0.00    -0.145 A  
HETATM    8  N   UNL     1     -10.592   7.232  67.084  1.00  0.00    -0.321 NA 
HETATM    9  C   UNL     1     -10.080   8.446  66.983  1.00  0.00    -0.284 A  
HETATM   10  O   UNL     1      -8.852   8.499  66.367  1.00  0.00    -0.133 OA 
HETATM   11  C   UNL     1      -7.461   6.676  65.426  1.00  0.00    -0.080 A  
HETATM   12  C   UNL     1      -8.583   7.191  66.059  1.00  0.00    -0.152 A  
ENDROOT
BRANCH   9  13
HETATM   13  C   UNL     1     -10.659   9.697  67.462  1.00  0.00    -0.339 A  
HETATM   14  C   UNL     1     -10.820  10.752  66.549  1.00  0.00    -0.196 A  
HETATM   15  C   UNL     1     -11.393  11.959  66.947  1.00  0.00    -0.330 A  
HETATM   16 CL   UNL     1     -11.585  13.228  65.802  1.00  0.00    -0.349 Cl 
HETATM   17  C   UNL     1     -11.813  12.139  68.259  1.00  0.00    -0.361 A  
HETATM   18  C   UNL     1     -11.650  11.101  69.174  1.00  0.00    -0.324 A  
HETATM   19 CL   UNL     1     -12.171  11.316  70.799  1.00  0.00    -0.473 Cl 
HETATM   20  C   UNL     1     -11.077   9.885  68.786  1.00  0.00    -0.179 A  
ENDBRANCH   9  13
TORSDOF 1
ENDMDL
MODEL      165
REMARK 921   NORMALIZED FREE ENERGY PREDICTED BY IDOCK:   -3.87 KCAL/MOL
REMARK 922        TOTAL FREE ENERGY PREDICTED BY IDOCK:   -4.29 KCAL/MOL
REMARK 923 INTER-LIGAND FREE ENERGY PREDICTED BY IDOCK:   -4.08 KCAL/MOL
REMARK 924 INTRA-LIGAND FREE ENERGY PREDICTED BY IDOCK:   -0.21 KCAL/MOL
REMARK 927      BINDING AFFINITY PREDICTED BY RF-SCORE:    0.00 PKD
ROOT
HETATM    1  O   UNL     1     -11.343  14.978  68.156  1.00  0.00    -0.303 OA 
HETATM    2  C   UNL     1     -10.396  14.118  67.729  1.00  0.00    -0.242 C  
HETATM    3  C   UNL     1     -10.559  12.731  68.231  1.00  0.00    -0.251 A  
HETATM    4  O   UNL     1      -9.497  14.439  66.972  1.00  0.00    -0.229 OA 
HETATM    5  C   UNL     1     -11.097  12.479  69.507  1.00  0.00    -0.073 A  
HETATM    6  C   UNL     1     -11.240  11.168  69.982  1.00  0.00    -0.261 A  
HETATM    7  C   UNL     1     -10.811  10.117  69.163  1.00  0.00    -0.226 A  
HETATM    8  N   UNL     1     -10.822   8.769  69.373  1.00  0.00    -0.166 NA 
HETATM    9  C   UNL     1     -10.290   8.270  68.272  1.00  0.00    -0.198 A  
HETATM   10  O   UNL     1      -9.923   9.209  67.338  1.00  0.00    -0.178 OA 
HETATM   11  C   UNL     1     -10.111  11.680  67.404  1.00  0.00    -0.218 A  
HETATM   12  C   UNL     1     -10.263  10.401  67.922  1.00  0.00    -0.179 A  
ENDROOT
BRANCH   9  13
HETATM   13  C   UNL     1     -10.075   6.863  67.947  1.00  0.00    -0.195 A  
HETATM   14  C   UNL     1      -9.822   5.965  68.997  1.00  0.00    -0.193 A  
HETATM   15  C   UNL     1      -9.637   4.607  68.746  1.00  0.00    -0.163 A  
HETATM   16 CL   UNL     1      -9.339   3.532  70.056  1.00  0.00    -0.231 Cl 
HETATM   17  C   UNL     1      -9.698   4.117  67.447  1.00  0.00    -0.202 A  
HETATM   18  C   UNL     1      -9.940   5.002  66.399  1.00  0.00    -0.226 A  
HETATM   19 CL   UNL     1     -10.020   4.402  64.788  1.00  0.00    -0.145 Cl 
HETATM   20  C   UNL     1     -10.127   6.366  66.638  1.00  0.00    -0.206 A  
ENDBRANCH   9  13
TORSDOF 1
ENDMDL
MODEL      166
REMARK 921   NORMALIZED FREE ENERGY PREDICTED BY IDOCK:   -3.87 KCAL/MOL
REMARK 922        TOTAL FREE ENERGY PREDICTED BY IDOCK:   -4.29 KCAL/MOL
REMARK 923 INTER-LIGAND FREE ENERGY PREDICTED BY IDOCK:   -4.07 KCAL/MOL
REMARK 924 INTRA-LIGAND FREE ENERGY PREDICTED BY IDOCK:   -0.22 KCAL/MOL
REMARK 927      BINDING AFFINITY PREDICTED BY RF-SCORE:    0.00 PKD
ROOT
HETATM    1  O   UNL     1     -10.347   2.523  74.374  1.00  0.00    -0.128 OA 
HETATM    2  C   UNL     1     -10.183   2.636  73.040  1.00  0.00    -0.142 C  
HETATM    3  C   UNL     1     -10.579   3.954  72.484  1.00  0.00    -0.125 A  
HETATM    4  O   UNL     1      -9.720   1.746  72.348  1.00  0.00    -0.085 OA 
HETATM    5  C   UNL     1     -11.642   4.688  73.044  1.00  0.00    -0.208 A  
HETATM    6  C   UNL     1     -12.021   5.927  72.510  1.00  0.00    -0.173 A  
HETATM    7  C   UNL     1     -11.328   6.405  71.392  1.00  0.00    -0.301 A  
HETATM    8  N   UNL     1     -11.490   7.555  70.675  1.00  0.00    -0.284 NA 
HETATM    9  C   UNL     1     -10.571   7.473  69.729  1.00  0.00    -0.241 A  
HETATM   10  O   UNL     1      -9.806   6.332  69.773  1.00  0.00    -0.161 OA 
HETATM   11  C   UNL     1      -9.885   4.420  71.350  1.00  0.00    -0.262 A  
HETATM   12  C   UNL     1     -10.302   5.646  70.851  1.00  0.00    -0.238 A  
ENDROOT
BRANCH   9  13
HETATM   13  C   UNL     1     -10.281   8.450  68.684  1.00  0.00    -0.220 A  
HETATM   14  C   UNL     1      -9.538   8.034  67.567  1.00  0.00    -0.191 A  
HETATM   15  C   UNL     1      -9.257   8.919  66.528  1.00  0.00    -0.183 A  
HETATM   16 CL   UNL     1      -8.352   8.375  65.168  1.00  0.00    -0.165 Cl 
HETATM   17  C   UNL     1      -9.706  10.232  66.580  1.00  0.00    -0.233 A  
HETATM   18  C   UNL     1     -10.437  10.656  67.689  1.00  0.00    -0.227 A  
HETATM   19 CL   UNL     1     -10.999  12.281  67.760  1.00  0.00    -0.256 Cl 
HETATM   20  C   UNL     1     -10.725   9.778  68.738  1.00  0.00    -0.243 A  
ENDBRANCH   9  13
TORSDOF 1
ENDMDL
MODEL      167
REMARK 921   NORMALIZED FREE ENERGY PREDICTED BY IDOCK:   -3.87 KCAL/MOL
REMARK 922        TOTAL FREE ENERGY PREDICTED BY IDOCK:   -4.29 KCAL/MOL
REMARK 923 INTER-LIGAND FREE ENERGY PREDICTED BY IDOCK:   -4.09 KCAL/MOL
REMARK 924 INTRA-LIGAND FREE ENERGY PREDICTED BY IDOCK:   -0.19 KCAL/MOL
REMARK 927      BINDING AFFINITY PREDICTED BY RF-SCORE:    0.00 PKD
ROOT
HETATM    1  O   UNL     1     -12.035   8.131  72.950  1.00  0.00    -0.313 OA 
HETATM    2  C   UNL     1     -11.304   8.505  71.880  1.00  0.00    -0.329 C  
HETATM    3  C   UNL     1     -10.912   7.387  70.986  1.00  0.00    -0.268 A  
HETATM    4  O   UNL     1     -11.013   9.664  71.644  1.00  0.00    -0.322 OA 
HETATM    5  C   UNL     1     -10.647   6.104  71.502  1.00  0.00    -0.288 A  
HETATM    6  C   UNL     1     -10.267   5.053  70.657  1.00  0.00    -0.306 A  
HETATM    7  C   UNL     1     -10.135   5.319  69.289  1.00  0.00    -0.230 A  
HETATM    8  N   UNL     1      -9.775   4.500  68.258  1.00  0.00    -0.145 NA 
HETATM    9  C   UNL     1      -9.811   5.287  67.198  1.00  0.00    -0.164 A  
HETATM   10  O   UNL     1     -10.173   6.586  67.463  1.00  0.00    -0.143 OA 
HETATM   11  C   UNL     1     -10.769   7.668  69.612  1.00  0.00    -0.230 A  
HETATM   12  C   UNL     1     -10.380   6.599  68.817  1.00  0.00    -0.194 A  
ENDROOT
BRANCH   9  13
HETATM   13  C   UNL     1      -9.531   4.925  65.812  1.00  0.00    -0.172 A  
HETATM   14  C   UNL     1     -10.367   3.985  65.185  1.00  0.00    -0.147 A  
HETATM   15  C   UNL     1     -10.162   3.624  63.855  1.00  0.00    -0.228 A  
HETATM   16 CL   UNL     1     -11.209   2.478  63.113  1.00  0.00    -0.170 Cl 
HETATM   17  C   UNL     1      -9.123   4.187  63.124  1.00  0.00    -0.125 A  
HETATM   18  C   UNL     1      -8.284   5.113  63.741  1.00  0.00    -0.126 A  
HETATM   19 CL   UNL     1      -6.996   5.817  62.842  1.00  0.00    -0.045 Cl 
HETATM   20  C   UNL     1      -8.479   5.484  65.074  1.00  0.00    -0.147 A  
ENDBRANCH   9  13
TORSDOF 1
ENDMDL
MODEL      168
REMARK 921   NORMALIZED FREE ENERGY PREDICTED BY IDOCK:   -3.85 KCAL/MOL
REMARK 922        TOTAL FREE ENERGY PREDICTED BY IDOCK:   -4.27 KCAL/MOL
REMARK 923 INTER-LIGAND FREE ENERGY PREDICTED BY IDOCK:   -4.07 KCAL/MOL
REMARK 924 INTRA-LIGAND FREE ENERGY PREDICTED BY IDOCK:   -0.20 KCAL/MOL
REMARK 927      BINDING AFFINITY PREDICTED BY RF-SCORE:    0.00 PKD
ROOT
HETATM    1  O   UNL     1      -6.047   8.113  64.002  1.00  0.00    -0.064 OA 
HETATM    2  C   UNL     1      -7.180   8.267  64.718  1.00  0.00    -0.082 C  
HETATM    3  C   UNL     1      -7.248   9.534  65.488  1.00  0.00    -0.091 A  
HETATM    4  O   UNL     1      -8.087   7.454  64.712  1.00  0.00    -0.131 OA 
HETATM    5  C   UNL     1      -6.087  10.118  66.029  1.00  0.00    -0.083 A  
HETATM    6  C   UNL     1      -6.157  11.309  66.765  1.00  0.00    -0.131 A  
HETATM    7  C   UNL     1      -7.415  11.888  66.968  1.00  0.00    -0.126 A  
HETATM    8  N   UNL     1      -7.770  13.021  67.643  1.00  0.00    -0.147 NA 
HETATM    9  C   UNL     1      -9.084  13.070  67.514  1.00  0.00    -0.191 A  
HETATM   10  O   UNL     1      -9.626  12.034  66.791  1.00  0.00    -0.198 OA 
HETATM   11  C   UNL     1      -8.521  10.102  65.699  1.00  0.00    -0.159 A  
HETATM   12  C   UNL     1      -8.541  11.274  66.443  1.00  0.00    -0.174 A  
ENDROOT
BRANCH   9  13
HETATM   13  C   UNL     1      -9.990  14.092  68.028  1.00  0.00    -0.226 A  
HETATM   14  C   UNL     1     -10.925  13.725  69.010  1.00  0.00    -0.277 A  
HETATM   15  C   UNL     1     -11.795  14.667  69.555  1.00  0.00    -0.330 A  
HETATM   16 CL   UNL     1     -12.921  14.187  70.763  1.00  0.00    -0.371 Cl 
HETATM   17  C   UNL     1     -11.753  15.991  69.132  1.00  0.00    -0.310 A  
HETATM   18  C   UNL     1     -10.835  16.362  68.153  1.00  0.00    -0.346 A  
HETATM   19 CL   UNL     1     -10.776  17.999  67.627  1.00  0.00    -0.411 Cl 
HETATM   20  C   UNL     1      -9.957  15.426  67.598  1.00  0.00    -0.225 A  
ENDBRANCH   9  13
TORSDOF 1
ENDMDL
MODEL      169
REMARK 921   NORMALIZED FREE ENERGY PREDICTED BY IDOCK:   -3.85 KCAL/MOL
REMARK 922        TOTAL FREE ENERGY PREDICTED BY IDOCK:   -4.27 KCAL/MOL
REMARK 923 INTER-LIGAND FREE ENERGY PREDICTED BY IDOCK:   -4.06 KCAL/MOL
REMARK 924 INTRA-LIGAND FREE ENERGY PREDICTED BY IDOCK:   -0.21 KCAL/MOL
REMARK 927      BINDING AFFINITY PREDICTED BY RF-SCORE:    0.00 PKD
ROOT
HETATM    1  O   UNL     1      -8.030   3.901  67.683  1.00  0.00    -0.088 OA 
HETATM    2  C   UNL     1      -7.780   4.892  66.802  1.00  0.00    -0.092 C  
HETATM    3  C   UNL     1      -8.669   6.072  66.940  1.00  0.00    -0.112 A  
HETATM    4  O   UNL     1      -6.882   4.840  65.981  1.00  0.00    -0.055 OA 
HETATM    5  C   UNL     1     -10.008   5.929  67.349  1.00  0.00    -0.172 A  
HETATM    6  C   UNL     1     -10.848   7.045  67.468  1.00  0.00    -0.338 A  
HETATM    7  C   UNL     1     -10.325   8.302  67.146  1.00  0.00    -0.317 A  
HETATM    8  N   UNL     1     -10.911   9.535  67.162  1.00  0.00    -0.078 NA 
HETATM    9  C   UNL     1      -9.953  10.349  66.756  1.00  0.00    -0.206 A  
HETATM   10  O   UNL     1      -8.760   9.729  66.469  1.00  0.00    -0.126 OA 
HETATM   11  C   UNL     1      -8.137   7.333  66.601  1.00  0.00    -0.113 A  
HETATM   12  C   UNL     1      -9.009   8.406  66.723  1.00  0.00    -0.145 A  
ENDROOT
BRANCH   9  13
HETATM   13  C   UNL     1     -10.023  11.799  66.604  1.00  0.00    -0.224 A  
HETATM   14  C   UNL     1     -11.216  12.363  66.120  1.00  0.00    -0.364 A  
HETATM   15  C   UNL     1     -11.346  13.744  65.982  1.00  0.00    -0.314 A  
HETATM   16 CL   UNL     1     -12.824  14.404  65.397  1.00  0.00    -0.346 Cl 
HETATM   17  C   UNL     1     -10.295  14.588  66.318  1.00  0.00    -0.300 A  
HETATM   18  C   UNL     1      -9.106  14.036  66.790  1.00  0.00    -0.232 A  
HETATM   19 CL   UNL     1      -7.800  15.075  67.210  1.00  0.00    -0.226 Cl 
HETATM   20  C   UNL     1      -8.962  12.652  66.933  1.00  0.00    -0.213 A  
ENDBRANCH   9  13
TORSDOF 1
ENDMDL
MODEL      170
REMARK 921   NORMALIZED FREE ENERGY PREDICTED BY IDOCK:   -3.79 KCAL/MOL
REMARK 922        TOTAL FREE ENERGY PREDICTED BY IDOCK:   -4.20 KCAL/MOL
REMARK 923 INTER-LIGAND FREE ENERGY PREDICTED BY IDOCK:   -3.99 KCAL/MOL
REMARK 924 INTRA-LIGAND FREE ENERGY PREDICTED BY IDOCK:   -0.21 KCAL/MOL
REMARK 927      BINDING AFFINITY PREDICTED BY RF-SCORE:    0.00 PKD
ROOT
HETATM    1  O   UNL     1      -8.668   2.772  72.983  1.00  0.00    -0.077 OA 
HETATM    2  C   UNL     1      -8.740   2.947  71.647  1.00  0.00    -0.073 C  
HETATM    3  C   UNL     1      -9.290   4.262  71.232  1.00  0.00    -0.214 A  
HETATM    4  O   UNL     1      -8.359   2.114  70.845  1.00  0.00    -0.049 OA 
HETATM    5  C   UNL     1     -10.276   4.911  71.998  1.00  0.00    -0.263 A  
HETATM    6  C   UNL     1     -10.801   6.148  71.597  1.00  0.00    -0.308 A  
HETATM    7  C   UNL     1     -10.334   6.708  70.403  1.00  0.00    -0.199 A  
HETATM    8  N   UNL     1     -10.671   7.875  69.781  1.00  0.00    -0.246 NA 
HETATM    9  C   UNL     1      -9.925   7.883  68.691  1.00  0.00    -0.191 A  
HETATM   10  O   UNL     1      -9.109   6.787  68.549  1.00  0.00    -0.131 OA 
HETATM   11  C   UNL     1      -8.823   4.812  70.021  1.00  0.00    -0.122 A  
HETATM   12  C   UNL     1      -9.379   6.031  69.660  1.00  0.00    -0.144 A  
ENDROOT
BRANCH   9  13
HETATM   13  C   UNL     1      -9.866   8.916  67.661  1.00  0.00    -0.229 A  
HETATM   14  C   UNL     1     -10.789   9.974  67.722  1.00  0.00    -0.337 A  
HETATM   15  C   UNL     1     -10.760  11.001  66.781  1.00  0.00    -0.266 A  
HETATM   16 CL   UNL     1     -11.896  12.288  66.889  1.00  0.00    -0.398 Cl 
HETATM   17  C   UNL     1      -9.816  10.994  65.760  1.00  0.00    -0.282 A  
HETATM   18  C   UNL     1      -8.903   9.944  65.687  1.00  0.00    -0.158 A  
HETATM   19 CL   UNL     1      -7.730   9.930  64.428  1.00  0.00    -0.138 Cl 
HETATM   20  C   UNL     1      -8.922   8.908  66.626  1.00  0.00    -0.165 A  
ENDBRANCH   9  13
TORSDOF 1
ENDMDL
MODEL      171
REMARK 921   NORMALIZED FREE ENERGY PREDICTED BY IDOCK:   -3.73 KCAL/MOL
REMARK 922        TOTAL FREE ENERGY PREDICTED BY IDOCK:   -4.14 KCAL/MOL
REMARK 923 INTER-LIGAND FREE ENERGY PREDICTED BY IDOCK:   -3.96 KCAL/MOL
REMARK 924 INTRA-LIGAND FREE ENERGY PREDICTED BY IDOCK:   -0.18 KCAL/MOL
REMARK 927      BINDING AFFINITY PREDICTED BY RF-SCORE:    0.00 PKD
ROOT
HETATM    1  O   UNL     1      -5.459  10.698  63.724  1.00  0.00    -0.156 OA 
HETATM    2  C   UNL     1      -5.801   9.642  64.490  1.00  0.00    -0.083 C  
HETATM    3  C   UNL     1      -6.369  10.004  65.812  1.00  0.00    -0.094 A  
HETATM    4  O   UNL     1      -5.684   8.486  64.122  1.00  0.00    -0.063 OA 
HETATM    5  C   UNL     1      -5.936  11.155  66.498  1.00  0.00    -0.143 A  
HETATM    6  C   UNL     1      -6.467  11.488  67.752  1.00  0.00    -0.064 A  
HETATM    7  C   UNL     1      -7.422  10.633  68.314  1.00  0.00    -0.091 A  
HETATM    8  N   UNL     1      -8.086  10.708  69.504  1.00  0.00    -0.099 NA 
HETATM    9  C   UNL     1      -8.851   9.631  69.510  1.00  0.00    -0.190 A  
HETATM   10  O   UNL     1      -8.735   8.841  68.392  1.00  0.00    -0.133 OA 
HETATM   11  C   UNL     1      -7.320   9.129  66.376  1.00  0.00    -0.092 A  
HETATM   12  C   UNL     1      -7.808   9.495  67.623  1.00  0.00    -0.102 A  
ENDROOT
BRANCH   9  13
HETATM   13  C   UNL     1      -9.794   9.217  70.544  1.00  0.00    -0.285 A  
HETATM   14  C   UNL     1      -9.302   8.507  71.653  1.00  0.00    -0.311 A  
HETATM   15  C   UNL     1     -10.154   8.112  72.682  1.00  0.00    -0.309 A  
HETATM   16 CL   UNL     1      -9.518   7.253  74.030  1.00  0.00    -0.305 Cl 
HETATM   17  C   UNL     1     -11.510   8.411  72.628  1.00  0.00    -0.359 A  
HETATM   18  C   UNL     1     -12.008   9.107  71.529  1.00  0.00    -0.352 A  
HETATM   19 CL   UNL     1     -13.685   9.485  71.456  1.00  0.00    -0.380 Cl 
HETATM   20  C   UNL     1     -11.163   9.510  70.489  1.00  0.00    -0.345 A  
ENDBRANCH   9  13
TORSDOF 1
ENDMDL
MODEL      172
REMARK 921   NORMALIZED FREE ENERGY PREDICTED BY IDOCK:   -3.71 KCAL/MOL
REMARK 922        TOTAL FREE ENERGY PREDICTED BY IDOCK:   -4.12 KCAL/MOL
REMARK 923 INTER-LIGAND FREE ENERGY PREDICTED BY IDOCK:   -3.93 KCAL/MOL
REMARK 924 INTRA-LIGAND FREE ENERGY PREDICTED BY IDOCK:   -0.20 KCAL/MOL
REMARK 927      BINDING AFFINITY PREDICTED BY RF-SCORE:    0.00 PKD
ROOT
HETATM    1  O   UNL     1      -7.337   2.253  69.570  1.00  0.00    -0.043 OA 
HETATM    2  C   UNL     1      -6.891   3.510  69.364  1.00  0.00    -0.041 C  
HETATM    3  C   UNL     1      -7.913   4.439  68.822  1.00  0.00    -0.073 A  
HETATM    4  O   UNL     1      -5.756   3.865  69.629  1.00  0.00    -0.016 OA 
HETATM    5  C   UNL     1      -8.915   3.985  67.945  1.00  0.00    -0.152 A  
HETATM    6  C   UNL     1      -9.872   4.868  67.425  1.00  0.00    -0.213 A  
HETATM    7  C   UNL     1      -9.789   6.218  67.784  1.00  0.00    -0.121 A  
HETATM    8  N   UNL     1     -10.569   7.279  67.425  1.00  0.00    -0.281 NA 
HETATM    9  C   UNL     1     -10.021   8.305  68.052  1.00  0.00    -0.185 A  
HETATM   10  O   UNL     1      -8.919   7.988  68.810  1.00  0.00    -0.141 OA 
HETATM   11  C   UNL     1      -7.813   5.800  69.178  1.00  0.00    -0.090 A  
HETATM   12  C   UNL     1      -8.775   6.637  68.630  1.00  0.00    -0.124 A  
ENDROOT
BRANCH   9  13
HETATM   13  C   UNL     1     -10.464   9.695  68.039  1.00  0.00    -0.276 A  
HETATM   14  C   UNL     1     -11.071  10.215  69.195  1.00  0.00    -0.257 A  
HETATM   15  C   UNL     1     -11.488  11.543  69.246  1.00  0.00    -0.305 A  
HETATM   16 CL   UNL     1     -12.217  12.152  70.681  1.00  0.00    -0.452 Cl 
HETATM   17  C   UNL     1     -11.313  12.379  68.150  1.00  0.00    -0.341 A  
HETATM   18  C   UNL     1     -10.721  11.869  66.996  1.00  0.00    -0.240 A  
HETATM   19 CL   UNL     1     -10.498  12.899  65.635  1.00  0.00    -0.285 Cl 
HETATM   20  C   UNL     1     -10.298  10.538  66.932  1.00  0.00    -0.293 A  
ENDBRANCH   9  13
TORSDOF 1
ENDMDL
MODEL      173
REMARK 921   NORMALIZED FREE ENERGY PREDICTED BY IDOCK:   -3.71 KCAL/MOL
REMARK 922        TOTAL FREE ENERGY PREDICTED BY IDOCK:   -4.12 KCAL/MOL
REMARK 923 INTER-LIGAND FREE ENERGY PREDICTED BY IDOCK:   -3.94 KCAL/MOL
REMARK 924 INTRA-LIGAND FREE ENERGY PREDICTED BY IDOCK:   -0.18 KCAL/MOL
REMARK 927      BINDING AFFINITY PREDICTED BY RF-SCORE:    0.00 PKD
ROOT
HETATM    1  O   UNL     1      -8.686  16.780  66.789  1.00  0.00    -0.200 OA 
HETATM    2  C   UNL     1      -9.308  15.614  66.516  1.00  0.00    -0.276 C  
HETATM    3  C   UNL     1      -8.743  14.439  67.225  1.00  0.00    -0.228 A  
HETATM    4  O   UNL     1     -10.271  15.531  65.774  1.00  0.00    -0.312 OA 
HETATM    5  C   UNL     1      -7.367  14.357  67.513  1.00  0.00    -0.208 A  
HETATM    6  C   UNL     1      -6.835  13.241  68.173  1.00  0.00    -0.114 A  
HETATM    7  C   UNL     1      -7.705  12.200  68.518  1.00  0.00    -0.119 A  
HETATM    8  N   UNL     1      -7.461  11.013  69.146  1.00  0.00    -0.126 NA 
HETATM    9  C   UNL     1      -8.645  10.429  69.194  1.00  0.00    -0.164 A  
HETATM   10  O   UNL     1      -9.666  11.158  68.634  1.00  0.00    -0.190 OA 
HETATM   11  C   UNL     1      -9.624  13.390  67.555  1.00  0.00    -0.221 A  
HETATM   12  C   UNL     1      -9.050  12.302  68.197  1.00  0.00    -0.196 A  
ENDROOT
BRANCH   9  13
HETATM   13  C   UNL     1      -8.973   9.134  69.783  1.00  0.00    -0.168 A  
HETATM   14  C   UNL     1      -8.873   7.988  68.977  1.00  0.00    -0.145 A  
HETATM   15  C   UNL     1      -9.148   6.724  69.496  1.00  0.00    -0.141 A  
HETATM   16 CL   UNL     1      -9.005   5.340  68.484  1.00  0.00    -0.112 Cl 
HETATM   17  C   UNL     1      -9.530   6.576  70.823  1.00  0.00    -0.180 A  
HETATM   18  C   UNL     1      -9.640   7.709  71.628  1.00  0.00    -0.153 A  
HETATM   19 CL   UNL     1     -10.110   7.533  73.274  1.00  0.00    -0.354 Cl 
HETATM   20  C   UNL     1      -9.367   8.982  71.119  1.00  0.00    -0.336 A  
ENDBRANCH   9  13
TORSDOF 1
ENDMDL
MODEL      174
REMARK 921   NORMALIZED FREE ENERGY PREDICTED BY IDOCK:   -3.67 KCAL/MOL
REMARK 922        TOTAL FREE ENERGY PREDICTED BY IDOCK:   -4.07 KCAL/MOL
REMARK 923 INTER-LIGAND FREE ENERGY PREDICTED BY IDOCK:   -3.89 KCAL/MOL
REMARK 924 INTRA-LIGAND FREE ENERGY PREDICTED BY IDOCK:   -0.18 KCAL/MOL
REMARK 927      BINDING AFFINITY PREDICTED BY RF-SCORE:    0.00 PKD
ROOT
HETATM    1  O   UNL     1      -6.755   4.161  63.346  1.00  0.00    -0.036 OA 
HETATM    2  C   UNL     1      -6.819   5.270  64.112  1.00  0.00    -0.047 C  
HETATM    3  C   UNL     1      -7.967   5.297  65.053  1.00  0.00    -0.103 A  
HETATM    4  O   UNL     1      -5.991   6.162  64.063  1.00  0.00    -0.022 OA 
HETATM    5  C   UNL     1      -9.197   4.704  64.714  1.00  0.00    -0.133 A  
HETATM    6  C   UNL     1     -10.283   4.741  65.600  1.00  0.00    -0.213 A  
HETATM    7  C   UNL     1     -10.116   5.404  66.822  1.00  0.00    -0.214 A  
HETATM    8  N   UNL     1     -10.992   5.599  67.850  1.00  0.00    -0.080 NA 
HETATM    9  C   UNL     1     -10.298   6.295  68.733  1.00  0.00    -0.205 A  
HETATM   10  O   UNL     1      -9.009   6.577  68.351  1.00  0.00    -0.126 OA 
HETATM   11  C   UNL     1      -7.794   5.979  66.275  1.00  0.00    -0.104 A  
HETATM   12  C   UNL     1      -8.899   5.999  67.114  1.00  0.00    -0.108 A  
ENDROOT
BRANCH   9  13
HETATM   13  C   UNL     1     -10.742   6.765  70.041  1.00  0.00    -0.287 A  
HETATM   14  C   UNL     1     -10.617   5.899  71.141  1.00  0.00    -0.306 A  
HETATM   15  C   UNL     1     -10.999   6.307  72.417  1.00  0.00    -0.254 A  
HETATM   16 CL   UNL     1     -10.823   5.227  73.744  1.00  0.00    -0.336 Cl 
HETATM   17  C   UNL     1     -11.516   7.580  72.624  1.00  0.00    -0.369 A  
HETATM   18  C   UNL     1     -11.653   8.442  71.538  1.00  0.00    -0.284 A  
HETATM   19 CL   UNL     1     -12.289  10.022  71.787  1.00  0.00    -0.470 Cl 
HETATM   20  C   UNL     1     -11.272   8.045  70.252  1.00  0.00    -0.192 A  
ENDBRANCH   9  13
TORSDOF 1
ENDMDL
MODEL      175
REMARK 921   NORMALIZED FREE ENERGY PREDICTED BY IDOCK:   -3.63 KCAL/MOL
REMARK 922        TOTAL FREE ENERGY PREDICTED BY IDOCK:   -4.03 KCAL/MOL
REMARK 923 INTER-LIGAND FREE ENERGY PREDICTED BY IDOCK:   -3.82 KCAL/MOL
REMARK 924 INTRA-LIGAND FREE ENERGY PREDICTED BY IDOCK:   -0.21 KCAL/MOL
REMARK 927      BINDING AFFINITY PREDICTED BY RF-SCORE:    0.00 PKD
ROOT
HETATM    1  O   UNL     1      -6.777  20.129  69.231  1.00  0.00    -0.296 OA 
HETATM    2  C   UNL     1      -7.654  19.391  68.519  1.00  0.00    -0.334 C  
HETATM    3  C   UNL     1      -7.217  17.995  68.271  1.00  0.00    -0.248 A  
HETATM    4  O   UNL     1      -8.727  19.820  68.135  1.00  0.00    -0.314 OA 
HETATM    5  C   UNL     1      -5.856  17.679  68.100  1.00  0.00    -0.155 A  
HETATM    6  C   UNL     1      -5.448  16.360  67.856  1.00  0.00    -0.130 A  
HETATM    7  C   UNL     1      -6.433  15.370  67.763  1.00  0.00    -0.162 A  
HETATM    8  N   UNL     1      -6.322  14.030  67.527  1.00  0.00    -0.323 NA 
HETATM    9  C   UNL     1      -7.572  13.600  67.538  1.00  0.00    -0.170 A  
HETATM   10  O   UNL     1      -8.510  14.577  67.769  1.00  0.00    -0.155 OA 
HETATM   11  C   UNL     1      -8.217  17.007  68.166  1.00  0.00    -0.217 A  
HETATM   12  C   UNL     1      -7.766  15.719  67.912  1.00  0.00    -0.133 A  
ENDROOT
BRANCH   9  13
HETATM   13  C   UNL     1      -8.041  12.230  67.357  1.00  0.00    -0.175 A  
HETATM   14  C   UNL     1      -7.160  11.289  66.798  1.00  0.00    -0.143 A  
HETATM   15  C   UNL     1      -7.548   9.962  66.628  1.00  0.00    -0.103 A  
HETATM   16 CL   UNL     1      -6.441   8.832  65.951  1.00  0.00    -0.056 Cl 
HETATM   17  C   UNL     1      -8.818   9.546  67.006  1.00  0.00    -0.139 A  
HETATM   18  C   UNL     1      -9.702  10.474  67.553  1.00  0.00    -0.166 A  
HETATM   19 CL   UNL     1     -11.276   9.965  68.026  1.00  0.00    -0.218 Cl 
HETATM   20  C   UNL     1      -9.325  11.809  67.729  1.00  0.00    -0.181 A  
ENDBRANCH   9  13
TORSDOF 1
ENDMDL
MODEL      176
REMARK 921   NORMALIZED FREE ENERGY PREDICTED BY IDOCK:   -3.62 KCAL/MOL
REMARK 922        TOTAL FREE ENERGY PREDICTED BY IDOCK:   -4.03 KCAL/MOL
REMARK 923 INTER-LIGAND FREE ENERGY PREDICTED BY IDOCK:   -3.83 KCAL/MOL
REMARK 924 INTRA-LIGAND FREE ENERGY PREDICTED BY IDOCK:   -0.20 KCAL/MOL
REMARK 927      BINDING AFFINITY PREDICTED BY RF-SCORE:    0.00 PKD
ROOT
HETATM    1  O   UNL     1      -9.063   3.147  69.414  1.00  0.00    -0.104 OA 
HETATM    2  C   UNL     1      -8.813   4.436  69.721  1.00  0.00    -0.084 C  
HETATM    3  C   UNL     1      -8.866   5.362  68.563  1.00  0.00    -0.103 A  
HETATM    4  O   UNL     1      -8.592   4.820  70.856  1.00  0.00    -0.106 OA 
HETATM    5  C   UNL     1      -8.471   4.942  67.279  1.00  0.00    -0.105 A  
HETATM    6  C   UNL     1      -8.512   5.822  66.188  1.00  0.00    -0.130 A  
HETATM    7  C   UNL     1      -8.935   7.137  66.416  1.00  0.00    -0.155 A  
HETATM    8  N   UNL     1      -9.060   8.188  65.554  1.00  0.00    -0.039 NA 
HETATM    9  C   UNL     1      -9.487   9.177  66.319  1.00  0.00    -0.237 A  
HETATM   10  O   UNL     1      -9.654   8.846  67.642  1.00  0.00    -0.142 OA 
HETATM   11  C   UNL     1      -9.280   6.688  68.804  1.00  0.00    -0.129 A  
HETATM   12  C   UNL     1      -9.293   7.525  67.697  1.00  0.00    -0.137 A  
ENDROOT
BRANCH   9  13
HETATM   13  C   UNL     1      -9.810  10.541  65.910  1.00  0.00    -0.291 A  
HETATM   14  C   UNL     1     -10.775  10.727  64.906  1.00  0.00    -0.167 A  
HETATM   15  C   UNL     1     -11.141  12.008  64.497  1.00  0.00    -0.331 A  
HETATM   16 CL   UNL     1     -12.334  12.203  63.273  1.00  0.00    -0.617 Cl 
HETATM   17  C   UNL     1     -10.552  13.126  65.075  1.00  0.00    -0.347 A  
HETATM   18  C   UNL     1      -9.588  12.951  66.065  1.00  0.00    -0.165 A  
HETATM   19 CL   UNL     1      -8.857  14.331  66.788  1.00  0.00    -0.238 Cl 
HETATM   20  C   UNL     1      -9.212  11.670  66.484  1.00  0.00    -0.205 A  
ENDBRANCH   9  13
TORSDOF 1
ENDMDL
MODEL      177
REMARK 921   NORMALIZED FREE ENERGY PREDICTED BY IDOCK:   -3.59 KCAL/MOL
REMARK 922        TOTAL FREE ENERGY PREDICTED BY IDOCK:   -3.99 KCAL/MOL
REMARK 923 INTER-LIGAND FREE ENERGY PREDICTED BY IDOCK:   -3.80 KCAL/MOL
REMARK 924 INTRA-LIGAND FREE ENERGY PREDICTED BY IDOCK:   -0.20 KCAL/MOL
REMARK 927      BINDING AFFINITY PREDICTED BY RF-SCORE:    0.00 PKD
ROOT
HETATM    1  O   UNL     1      -7.167   3.161  69.370  1.00  0.00    -0.044 OA 
HETATM    2  C   UNL     1      -6.740   4.172  68.586  1.00  0.00    -0.046 C  
HETATM    3  C   UNL     1      -7.813   5.096  68.141  1.00  0.00    -0.087 A  
HETATM    4  O   UNL     1      -5.569   4.337  68.290  1.00  0.00    -0.015 OA 
HETATM    5  C   UNL     1      -9.117   4.628  67.895  1.00  0.00    -0.140 A  
HETATM    6  C   UNL     1     -10.126   5.501  67.464  1.00  0.00    -0.217 A  
HETATM    7  C   UNL     1      -9.794   6.846  67.262  1.00  0.00    -0.152 A  
HETATM    8  N   UNL     1     -10.562   7.894  66.843  1.00  0.00    -0.331 NA 
HETATM    9  C   UNL     1      -9.725   8.916  66.827  1.00  0.00    -0.219 A  
HETATM   10  O   UNL     1      -8.441   8.609  67.211  1.00  0.00    -0.114 OA 
HETATM   11  C   UNL     1      -7.466   6.445  67.926  1.00  0.00    -0.094 A  
HETATM   12  C   UNL     1      -8.494   7.269  67.489  1.00  0.00    -0.119 A  
ENDROOT
BRANCH   9  13
HETATM   13  C   UNL     1     -10.020  10.301  66.473  1.00  0.00    -0.280 A  
HETATM   14  C   UNL     1     -10.052  11.261  67.498  1.00  0.00    -0.207 A  
HETATM   15  C   UNL     1     -10.301  12.602  67.212  1.00  0.00    -0.224 A  
HETATM   16 CL   UNL     1     -10.323  13.755  68.489  1.00  0.00    -0.242 Cl 
HETATM   17  C   UNL     1     -10.526  13.013  65.904  1.00  0.00    -0.293 A  
HETATM   18  C   UNL     1     -10.505  12.065  64.882  1.00  0.00    -0.285 A  
HETATM   19 CL   UNL     1     -10.780  12.567  63.259  1.00  0.00    -0.323 Cl 
HETATM   20  C   UNL     1     -10.256  10.717  65.156  1.00  0.00    -0.365 A  
ENDBRANCH   9  13
TORSDOF 1
ENDMDL
MODEL      178
REMARK 921   NORMALIZED FREE ENERGY PREDICTED BY IDOCK:   -3.58 KCAL/MOL
REMARK 922        TOTAL FREE ENERGY PREDICTED BY IDOCK:   -3.99 KCAL/MOL
REMARK 923 INTER-LIGAND FREE ENERGY PREDICTED BY IDOCK:   -3.80 KCAL/MOL
REMARK 924 INTRA-LIGAND FREE ENERGY PREDICTED BY IDOCK:   -0.18 KCAL/MOL
REMARK 927      BINDING AFFINITY PREDICTED BY RF-SCORE:    0.00 PKD
ROOT
HETATM    1  O   UNL     1      -7.649   3.008  65.602  1.00  0.00    -0.072 OA 
HETATM    2  C   UNL     1      -8.350   3.738  66.494  1.00  0.00    -0.104 C  
HETATM    3  C   UNL     1      -8.199   5.206  66.336  1.00  0.00    -0.108 A  
HETATM    4  O   UNL     1      -9.071   3.241  67.341  1.00  0.00    -0.142 OA 
HETATM    5  C   UNL     1      -6.988   5.767  65.888  1.00  0.00    -0.065 A  
HETATM    6  C   UNL     1      -6.845   7.155  65.750  1.00  0.00    -0.056 A  
HETATM    7  C   UNL     1      -7.932   7.968  66.092  1.00  0.00    -0.103 A  
HETATM    8  N   UNL     1      -8.064   9.327  66.065  1.00  0.00    -0.109 NA 
HETATM    9  C   UNL     1      -9.293   9.536  66.503  1.00  0.00    -0.171 A  
HETATM   10  O   UNL     1      -9.988   8.394  66.821  1.00  0.00    -0.233 OA 
HETATM   11  C   UNL     1      -9.294   6.018  66.697  1.00  0.00    -0.156 A  
HETATM   12  C   UNL     1      -9.101   7.385  66.554  1.00  0.00    -0.162 A  
ENDROOT
BRANCH   9  13
HETATM   13  C   UNL     1      -9.974  10.817  66.660  1.00  0.00    -0.251 A  
HETATM   14  C   UNL     1     -10.366  11.513  65.503  1.00  0.00    -0.322 A  
HETATM   15  C   UNL     1     -11.044  12.726  65.596  1.00  0.00    -0.279 A  
HETATM   16 CL   UNL     1     -11.519  13.548  64.160  1.00  0.00    -0.405 Cl 
HETATM   17  C   UNL     1     -11.342  13.273  66.838  1.00  0.00    -0.351 A  
HETATM   18  C   UNL     1     -10.950  12.595  67.990  1.00  0.00    -0.235 A  
HETATM   19 CL   UNL     1     -11.318  13.264  69.532  1.00  0.00    -0.274 Cl 
HETATM   20  C   UNL     1     -10.269  11.376  67.910  1.00  0.00    -0.201 A  
ENDBRANCH   9  13
TORSDOF 1
ENDMDL
MODEL      179
REMARK 921   NORMALIZED FREE ENERGY PREDICTED BY IDOCK:   -3.52 KCAL/MOL
REMARK 922        TOTAL FREE ENERGY PREDICTED BY IDOCK:   -3.92 KCAL/MOL
REMARK 923 INTER-LIGAND FREE ENERGY PREDICTED BY IDOCK:   -3.71 KCAL/MOL
REMARK 924 INTRA-LIGAND FREE ENERGY PREDICTED BY IDOCK:   -0.21 KCAL/MOL
REMARK 927      BINDING AFFINITY PREDICTED BY RF-SCORE:    0.00 PKD
ROOT
HETATM    1  O   UNL     1     -10.513  15.875  66.502  1.00  0.00    -0.295 OA 
HETATM    2  C   UNL     1      -9.876  15.118  67.419  1.00  0.00    -0.224 C  
HETATM    3  C   UNL     1     -10.183  13.668  67.335  1.00  0.00    -0.241 A  
HETATM    4  O   UNL     1      -9.091  15.575  68.231  1.00  0.00    -0.181 OA 
HETATM    5  C   UNL     1     -11.454  13.217  66.932  1.00  0.00    -0.376 A  
HETATM    6  C   UNL     1     -11.744  11.848  66.863  1.00  0.00    -0.291 A  
HETATM    7  C   UNL     1     -10.742  10.941  67.230  1.00  0.00    -0.268 A  
HETATM    8  N   UNL     1     -10.753   9.577  67.267  1.00  0.00    -0.246 NA 
HETATM    9  C   UNL     1      -9.545   9.260  67.697  1.00  0.00    -0.142 A  
HETATM   10  O   UNL     1      -8.728  10.335  67.950  1.00  0.00    -0.121 OA 
HETATM   11  C   UNL     1      -9.172  12.763  67.719  1.00  0.00    -0.199 A  
HETATM   12  C   UNL     1      -9.509  11.419  67.646  1.00  0.00    -0.162 A  
ENDROOT
BRANCH   9  13
HETATM   13  C   UNL     1      -8.999   7.922  67.907  1.00  0.00    -0.129 A  
HETATM   14  C   UNL     1      -9.622   6.838  67.267  1.00  0.00    -0.165 A  
HETATM   15  C   UNL     1      -9.125   5.544  67.410  1.00  0.00    -0.110 A  
HETATM   16 CL   UNL     1      -9.905   4.238  66.605  1.00  0.00    -0.239 Cl 
HETATM   17  C   UNL     1      -8.003   5.303  68.194  1.00  0.00    -0.091 A  
HETATM   18  C   UNL     1      -7.384   6.372  68.839  1.00  0.00    -0.086 A  
HETATM   19 CL   UNL     1      -5.992   6.082  69.809  1.00  0.00    -0.024 Cl 
HETATM   20  C   UNL     1      -7.873   7.675  68.703  1.00  0.00    -0.121 A  
ENDBRANCH   9  13
TORSDOF 1
ENDMDL
MODEL      180
REMARK 921   NORMALIZED FREE ENERGY PREDICTED BY IDOCK:   -3.49 KCAL/MOL
REMARK 922        TOTAL FREE ENERGY PREDICTED BY IDOCK:   -3.89 KCAL/MOL
REMARK 923 INTER-LIGAND FREE ENERGY PREDICTED BY IDOCK:   -3.70 KCAL/MOL
REMARK 924 INTRA-LIGAND FREE ENERGY PREDICTED BY IDOCK:   -0.18 KCAL/MOL
REMARK 927      BINDING AFFINITY PREDICTED BY RF-SCORE:    0.00 PKD
ROOT
HETATM    1  O   UNL     1      -7.015   3.882  63.521  1.00  0.00    -0.043 OA 
HETATM    2  C   UNL     1      -7.038   5.132  64.028  1.00  0.00    -0.049 C  
HETATM    3  C   UNL     1      -8.101   5.362  65.038  1.00  0.00    -0.120 A  
HETATM    4  O   UNL     1      -6.238   5.994  63.712  1.00  0.00    -0.025 OA 
HETATM    5  C   UNL     1      -9.342   4.705  64.948  1.00  0.00    -0.127 A  
HETATM    6  C   UNL     1     -10.349   4.933  65.897  1.00  0.00    -0.271 A  
HETATM    7  C   UNL     1     -10.093   5.849  66.924  1.00  0.00    -0.188 A  
HETATM    8  N   UNL     1     -10.882   6.263  67.958  1.00  0.00    -0.302 NA 
HETATM    9  C   UNL     1     -10.131   7.139  68.601  1.00  0.00    -0.173 A  
HETATM   10  O   UNL     1      -8.885   7.334  68.055  1.00  0.00    -0.130 OA 
HETATM   11  C   UNL     1      -7.839   6.297  66.060  1.00  0.00    -0.106 A  
HETATM   12  C   UNL     1      -8.869   6.498  66.970  1.00  0.00    -0.116 A  
ENDROOT
BRANCH   9  13
HETATM   13  C   UNL     1     -10.472   7.884  69.809  1.00  0.00    -0.233 A  
HETATM   14  C   UNL     1     -11.073   9.146  69.669  1.00  0.00    -0.103 A  
HETATM   15  C   UNL     1     -11.444   9.888  70.789  1.00  0.00    -0.354 A  
HETATM   16 CL   UNL     1     -12.188  11.425  70.583  1.00  0.00    -0.473 Cl 
HETATM   17  C   UNL     1     -11.222   9.392  72.067  1.00  0.00    -0.066 A  
HETATM   18  C   UNL     1     -10.617   8.145  72.216  1.00  0.00    -0.309 A  
HETATM   19 CL   UNL     1     -10.341   7.522  73.796  1.00  0.00    -0.318 Cl 
HETATM   20  C   UNL     1     -10.241   7.391  71.100  1.00  0.00    -0.199 A  
ENDBRANCH   9  13
TORSDOF 1
ENDMDL
MODEL      181
REMARK 921   NORMALIZED FREE ENERGY PREDICTED BY IDOCK:   -3.41 KCAL/MOL
REMARK 922        TOTAL FREE ENERGY PREDICTED BY IDOCK:   -3.80 KCAL/MOL
REMARK 923 INTER-LIGAND FREE ENERGY PREDICTED BY IDOCK:   -3.59 KCAL/MOL
REMARK 924 INTRA-LIGAND FREE ENERGY PREDICTED BY IDOCK:   -0.21 KCAL/MOL
REMARK 927      BINDING AFFINITY PREDICTED BY RF-SCORE:    0.00 PKD
ROOT
HETATM    1  O   UNL     1      -7.627   7.490  66.075  1.00  0.00    -0.083 OA 
HETATM    2  C   UNL     1      -6.888   8.608  65.921  1.00  0.00    -0.068 C  
HETATM    3  C   UNL     1      -7.635   9.871  66.142  1.00  0.00    -0.104 A  
HETATM    4  O   UNL     1      -5.699   8.588  65.652  1.00  0.00    -0.042 OA 
HETATM    5  C   UNL     1      -8.998   9.976  65.806  1.00  0.00    -0.187 A  
HETATM    6  C   UNL     1      -9.698  11.174  66.007  1.00  0.00    -0.263 A  
HETATM    7  C   UNL     1      -8.999  12.269  66.528  1.00  0.00    -0.161 A  
HETATM    8  N   UNL     1      -9.421  13.536  66.810  1.00  0.00    -0.263 NA 
HETATM    9  C   UNL     1      -8.338  14.139  67.267  1.00  0.00    -0.196 A  
HETATM   10  O   UNL     1      -7.216  13.346  67.305  1.00  0.00    -0.139 OA 
HETATM   11  C   UNL     1      -6.919  10.972  66.654  1.00  0.00    -0.140 A  
HETATM   12  C   UNL     1      -7.651  12.139  66.824  1.00  0.00     0.055 A  
ENDROOT
BRANCH   9  13
HETATM   13  C   UNL     1      -8.219  15.514  67.740  1.00  0.00    -0.157 A  
HETATM   14  C   UNL     1      -9.263  16.411  67.458  1.00  0.00    -0.199 A  
HETATM   15  C   UNL     1      -9.213  17.729  67.910  1.00  0.00    -0.265 A  
HETATM   16 CL   UNL     1     -10.513  18.799  67.557  1.00  0.00    -0.460 Cl 
HETATM   17  C   UNL     1      -8.125  18.180  68.647  1.00  0.00    -0.301 A  
HETATM   18  C   UNL     1      -7.081  17.299  68.924  1.00  0.00    -0.242 A  
HETATM   19 CL   UNL     1      -5.731  17.850  69.838  1.00  0.00    -0.240 Cl 
HETATM   20  C   UNL     1      -7.119  15.975  68.476  1.00  0.00    -0.132 A  
ENDBRANCH   9  13
TORSDOF 1
ENDMDL
MODEL      182
REMARK 921   NORMALIZED FREE ENERGY PREDICTED BY IDOCK:   -3.29 KCAL/MOL
REMARK 922        TOTAL FREE ENERGY PREDICTED BY IDOCK:   -3.68 KCAL/MOL
REMARK 923 INTER-LIGAND FREE ENERGY PREDICTED BY IDOCK:   -3.48 KCAL/MOL
REMARK 924 INTRA-LIGAND FREE ENERGY PREDICTED BY IDOCK:   -0.19 KCAL/MOL
REMARK 927      BINDING AFFINITY PREDICTED BY RF-SCORE:    0.00 PKD
ROOT
HETATM    1  O   UNL     1     -11.049  14.623  68.515  1.00  0.00    -0.241 OA 
HETATM    2  C   UNL     1     -11.326  13.490  67.837  1.00  0.00    -0.289 C  
HETATM    3  C   UNL     1     -10.491  12.326  68.224  1.00  0.00    -0.236 A  
HETATM    4  O   UNL     1     -12.205  13.415  66.997  1.00  0.00    -0.353 OA 
HETATM    5  C   UNL     1      -9.155  12.494  68.633  1.00  0.00     0.038 A  
HETATM    6  C   UNL     1      -8.366  11.391  68.989  1.00  0.00     0.036 A  
HETATM    7  C   UNL     1      -8.937  10.116  68.903  1.00  0.00    -0.155 A  
HETATM    8  N   UNL     1      -8.405   8.888  69.173  1.00  0.00    -0.121 NA 
HETATM    9  C   UNL     1      -9.390   8.048  68.907  1.00  0.00    -0.150 A  
HETATM   10  O   UNL     1     -10.549   8.646  68.474  1.00  0.00    -0.196 OA 
HETATM   11  C   UNL     1     -11.070  11.044  68.122  1.00  0.00    -0.329 A  
HETATM   12  C   UNL     1     -10.248   9.983  68.473  1.00  0.00    -0.175 A  
ENDROOT
BRANCH   9  13
HETATM   13  C   UNL     1      -9.380   6.595  69.041  1.00  0.00    -0.133 A  
HETATM   14  C   UNL     1      -9.337   5.816  67.873  1.00  0.00    -0.107 A  
HETATM   15  C   UNL     1      -9.297   4.425  67.944  1.00  0.00    -0.149 A  
HETATM   16 CL   UNL     1      -9.235   3.500  66.494  1.00  0.00    -0.173 Cl 
HETATM   17  C   UNL     1      -9.302   3.783  69.176  1.00  0.00    -0.243 A  
HETATM   18  C   UNL     1      -9.353   4.547  70.340  1.00  0.00    -0.146 A  
HETATM   19 CL   UNL     1      -9.357   3.759  71.869  1.00  0.00    -0.181 Cl 
HETATM   20  C   UNL     1      -9.393   5.944  70.281  1.00  0.00    -0.181 A  
ENDBRANCH   9  13
TORSDOF 1
ENDMDL
MODEL      183
REMARK 921   NORMALIZED FREE ENERGY PREDICTED BY IDOCK:   -3.27 KCAL/MOL
REMARK 922        TOTAL FREE ENERGY PREDICTED BY IDOCK:   -3.65 KCAL/MOL
REMARK 923 INTER-LIGAND FREE ENERGY PREDICTED BY IDOCK:   -3.45 KCAL/MOL
REMARK 924 INTRA-LIGAND FREE ENERGY PREDICTED BY IDOCK:   -0.20 KCAL/MOL
REMARK 927      BINDING AFFINITY PREDICTED BY RF-SCORE:    0.00 PKD
ROOT
HETATM    1  O   UNL     1     -10.857   7.226  73.784  1.00  0.00    -0.300 OA 
HETATM    2  C   UNL     1     -11.351   7.465  72.551  1.00  0.00    -0.313 C  
HETATM    3  C   UNL     1     -10.430   7.110  71.444  1.00  0.00    -0.220 A  
HETATM    4  O   UNL     1     -12.469   7.907  72.357  1.00  0.00    -0.263 OA 
HETATM    5  C   UNL     1      -9.035   7.237  71.590  1.00  0.00    -0.131 A  
HETATM    6  C   UNL     1      -8.168   6.911  70.538  1.00  0.00    -0.120 A  
HETATM    7  C   UNL     1      -8.728   6.477  69.330  1.00  0.00    -0.134 A  
HETATM    8  N   UNL     1      -8.131   6.109  68.159  1.00  0.00    -0.110 NA 
HETATM    9  C   UNL     1      -9.144   5.805  67.367  1.00  0.00    -0.110 A  
HETATM   10  O   UNL     1     -10.383   5.950  67.943  1.00  0.00    -0.170 OA 
HETATM   11  C   UNL     1     -11.003   6.687  70.227  1.00  0.00    -0.355 A  
HETATM   12  C   UNL     1     -10.106   6.386  69.212  1.00  0.00    -0.172 A  
ENDROOT
BRANCH   9  13
HETATM   13  C   UNL     1      -9.082   5.326  65.989  1.00  0.00    -0.154 A  
HETATM   14  C   UNL     1      -8.387   6.099  65.044  1.00  0.00    -0.112 A  
HETATM   15  C   UNL     1      -8.273   5.675  63.721  1.00  0.00    -0.091 A  
HETATM   16 CL   UNL     1      -7.406   6.638  62.590  1.00  0.00    -0.063 Cl 
HETATM   17  C   UNL     1      -8.850   4.478  63.313  1.00  0.00    -0.132 A  
HETATM   18  C   UNL     1      -9.549   3.711  64.243  1.00  0.00    -0.163 A  
HETATM   19 CL   UNL     1     -10.265   2.226  63.746  1.00  0.00    -0.139 Cl 
HETATM   20  C   UNL     1      -9.670   4.125  65.573  1.00  0.00    -0.202 A  
ENDBRANCH   9  13
TORSDOF 1
ENDMDL
MODEL      184
REMARK 921   NORMALIZED FREE ENERGY PREDICTED BY IDOCK:   -3.24 KCAL/MOL
REMARK 922        TOTAL FREE ENERGY PREDICTED BY IDOCK:   -3.62 KCAL/MOL
REMARK 923 INTER-LIGAND FREE ENERGY PREDICTED BY IDOCK:   -3.42 KCAL/MOL
REMARK 924 INTRA-LIGAND FREE ENERGY PREDICTED BY IDOCK:   -0.20 KCAL/MOL
REMARK 927      BINDING AFFINITY PREDICTED BY RF-SCORE:    0.00 PKD
ROOT
HETATM    1  O   UNL     1     -10.130  14.120  68.120  1.00  0.00    -0.226 OA 
HETATM    2  C   UNL     1     -10.295  13.231  67.120  1.00  0.00    -0.248 C  
HETATM    3  C   UNL     1      -9.622  11.927  67.344  1.00  0.00    -0.176 A  
HETATM    4  O   UNL     1     -10.963  13.461  66.127  1.00  0.00    -0.276 OA 
HETATM    5  C   UNL     1      -8.407  11.849  68.051  1.00  0.00    -0.160 A  
HETATM    6  C   UNL     1      -7.769  10.617  68.252  1.00  0.00    -0.107 A  
HETATM    7  C   UNL     1      -8.360   9.470  67.710  1.00  0.00    -0.118 A  
HETATM    8  N   UNL     1      -7.958   8.166  67.743  1.00  0.00    -0.124 NA 
HETATM    9  C   UNL     1      -8.892   7.527  67.063  1.00  0.00    -0.128 A  
HETATM   10  O   UNL     1      -9.895   8.330  66.576  1.00  0.00    -0.240 OA 
HETATM   11  C   UNL     1     -10.218  10.779  66.782  1.00  0.00    -0.279 A  
HETATM   12  C   UNL     1      -9.544   9.585  66.997  1.00  0.00    -0.164 A  
ENDROOT
BRANCH   9  13
HETATM   13  C   UNL     1      -8.976   6.094  66.799  1.00  0.00    -0.125 A  
HETATM   14  C   UNL     1      -8.850   5.649  65.472  1.00  0.00    -0.135 A  
HETATM   15  C   UNL     1      -8.895   4.290  65.169  1.00  0.00    -0.134 A  
HETATM   16 CL   UNL     1      -8.727   3.777  63.535  1.00  0.00    -0.096 Cl 
HETATM   17  C   UNL     1      -9.068   3.348  66.176  1.00  0.00    -0.155 A  
HETATM   18  C   UNL     1      -9.202   3.781  67.493  1.00  0.00    -0.182 A  
HETATM   19 CL   UNL     1      -9.414   2.621  68.747  1.00  0.00    -0.231 Cl 
HETATM   20  C   UNL     1      -9.159   5.142  67.811  1.00  0.00    -0.119 A  
ENDBRANCH   9  13
TORSDOF 1
ENDMDL
MODEL      185
REMARK 921   NORMALIZED FREE ENERGY PREDICTED BY IDOCK:   -3.24 KCAL/MOL
REMARK 922        TOTAL FREE ENERGY PREDICTED BY IDOCK:   -3.62 KCAL/MOL
REMARK 923 INTER-LIGAND FREE ENERGY PREDICTED BY IDOCK:   -3.43 KCAL/MOL
REMARK 924 INTRA-LIGAND FREE ENERGY PREDICTED BY IDOCK:   -0.18 KCAL/MOL
REMARK 927      BINDING AFFINITY PREDICTED BY RF-SCORE:    0.00 PKD
ROOT
HETATM    1  O   UNL     1      -5.130  10.462  65.209  1.00  0.00    -0.064 OA 
HETATM    2  C   UNL     1      -5.480   9.287  65.771  1.00  0.00    -0.040 C  
HETATM    3  C   UNL     1      -6.331   9.418  66.980  1.00  0.00    -0.066 A  
HETATM    4  O   UNL     1      -5.155   8.206  65.313  1.00  0.00    -0.031 OA 
HETATM    5  C   UNL     1      -6.181  10.507  67.859  1.00  0.00    -0.058 A  
HETATM    6  C   UNL     1      -6.980  10.622  69.006  1.00  0.00    -0.080 A  
HETATM    7  C   UNL     1      -7.913   9.612  69.265  1.00  0.00    -0.104 A  
HETATM    8  N   UNL     1      -8.797   9.467  70.295  1.00  0.00    -0.219 NA 
HETATM    9  C   UNL     1      -9.412   8.328  70.029  1.00  0.00    -0.167 A  
HETATM   10  O   UNL     1      -8.988   7.705  68.880  1.00  0.00    -0.138 OA 
HETATM   11  C   UNL     1      -7.259   8.389  67.241  1.00  0.00    -0.084 A  
HETATM   12  C   UNL     1      -8.018   8.541  68.393  1.00  0.00    -0.118 A  
ENDROOT
BRANCH   9  13
HETATM   13  C   UNL     1     -10.478   7.693  70.798  1.00  0.00    -0.211 A  
HETATM   14  C   UNL     1     -11.754   8.282  70.784  1.00  0.00    -0.213 A  
HETATM   15  C   UNL     1     -12.815   7.702  71.478  1.00  0.00    -0.344 A  
HETATM   16 CL   UNL     1     -14.367   8.442  71.432  1.00  0.00    -0.460 Cl 
HETATM   17  C   UNL     1     -12.626   6.530  72.200  1.00  0.00    -0.157 A  
HETATM   18  C   UNL     1     -11.362   5.944  72.226  1.00  0.00    -0.298 A  
HETATM   19 CL   UNL     1     -11.122   4.491  73.116  1.00  0.00    -0.344 Cl 
HETATM   20  C   UNL     1     -10.290   6.516  71.534  1.00  0.00    -0.238 A  
ENDBRANCH   9  13
TORSDOF 1
ENDMDL
MODEL      186
REMARK 921   NORMALIZED FREE ENERGY PREDICTED BY IDOCK:   -3.17 KCAL/MOL
REMARK 922        TOTAL FREE ENERGY PREDICTED BY IDOCK:   -3.55 KCAL/MOL
REMARK 923 INTER-LIGAND FREE ENERGY PREDICTED BY IDOCK:   -3.34 KCAL/MOL
REMARK 924 INTRA-LIGAND FREE ENERGY PREDICTED BY IDOCK:   -0.21 KCAL/MOL
REMARK 927      BINDING AFFINITY PREDICTED BY RF-SCORE:    0.00 PKD
ROOT
HETATM    1  O   UNL     1      -6.322   2.250  63.332  1.00  0.00    -0.013 OA 
HETATM    2  C   UNL     1      -7.455   2.892  63.686  1.00  0.00    -0.062 C  
HETATM    3  C   UNL     1      -7.792   2.789  65.128  1.00  0.00    -0.081 A  
HETATM    4  O   UNL     1      -8.133   3.529  62.899  1.00  0.00    -0.071 OA 
HETATM    5  C   UNL     1      -7.477   1.632  65.866  1.00  0.00    -0.061 A  
HETATM    6  C   UNL     1      -7.805   1.534  67.225  1.00  0.00    -0.060 A  
HETATM    7  C   UNL     1      -8.476   2.607  67.822  1.00  0.00    -0.086 A  
HETATM    8  N   UNL     1      -8.918   2.773  69.103  1.00  0.00    -0.100 NA 
HETATM    9  C   UNL     1      -9.485   3.966  69.093  1.00  0.00    -0.176 A  
HETATM   10  O   UNL     1      -9.446   4.607  67.877  1.00  0.00    -0.137 OA 
HETATM   11  C   UNL     1      -8.480   3.869  65.717  1.00  0.00    -0.110 A  
HETATM   12  C   UNL     1      -8.794   3.721  67.061  1.00  0.00    -0.126 A  
ENDROOT
BRANCH   9  13
HETATM   13  C   UNL     1     -10.111   4.662  70.212  1.00  0.00    -0.276 A  
HETATM   14  C   UNL     1      -9.902   4.165  71.510  1.00  0.00    -0.255 A  
HETATM   15  C   UNL     1     -10.454   4.807  72.617  1.00  0.00    -0.203 A  
HETATM   16 CL   UNL     1     -10.171   4.179  74.193  1.00  0.00    -0.215 Cl 
HETATM   17  C   UNL     1     -11.225   5.951  72.455  1.00  0.00    -0.341 A  
HETATM   18  C   UNL     1     -11.445   6.446  71.171  1.00  0.00    -0.323 A  
HETATM   19 CL   UNL     1     -12.396   7.865  70.963  1.00  0.00    -0.236 Cl 
HETATM   20  C   UNL     1     -10.896   5.812  70.053  1.00  0.00    -0.403 A  
ENDBRANCH   9  13
TORSDOF 1
ENDMDL
MODEL      187
REMARK 921   NORMALIZED FREE ENERGY PREDICTED BY IDOCK:   -3.16 KCAL/MOL
REMARK 922        TOTAL FREE ENERGY PREDICTED BY IDOCK:   -3.54 KCAL/MOL
REMARK 923 INTER-LIGAND FREE ENERGY PREDICTED BY IDOCK:   -3.35 KCAL/MOL
REMARK 924 INTRA-LIGAND FREE ENERGY PREDICTED BY IDOCK:   -0.20 KCAL/MOL
REMARK 927      BINDING AFFINITY PREDICTED BY RF-SCORE:    0.00 PKD
ROOT
HETATM    1  O   UNL     1      -5.324  10.825  65.543  1.00  0.00    -0.117 OA 
HETATM    2  C   UNL     1      -5.617   9.601  66.030  1.00  0.00    -0.048 C  
HETATM    3  C   UNL     1      -6.467   9.615  67.247  1.00  0.00    -0.069 A  
HETATM    4  O   UNL     1      -5.244   8.568  65.504  1.00  0.00    -0.034 OA 
HETATM    5  C   UNL     1      -6.364  10.652  68.193  1.00  0.00    -0.058 A  
HETATM    6  C   UNL     1      -7.161  10.657  69.346  1.00  0.00    -0.120 A  
HETATM    7  C   UNL     1      -8.045   9.590  69.542  1.00  0.00    -0.117 A  
HETATM    8  N   UNL     1      -8.917   9.338  70.563  1.00  0.00    -0.234 NA 
HETATM    9  C   UNL     1      -9.479   8.191  70.226  1.00  0.00    -0.170 A  
HETATM   10  O   UNL     1      -9.033   7.663  69.038  1.00  0.00    -0.138 OA 
HETATM   11  C   UNL     1      -7.345   8.529  67.443  1.00  0.00    -0.089 A  
HETATM   12  C   UNL     1      -8.105   8.572  68.603  1.00  0.00    -0.121 A  
ENDROOT
BRANCH   9  13
HETATM   13  C   UNL     1     -10.511   7.460  70.954  1.00  0.00    -0.225 A  
HETATM   14  C   UNL     1     -10.173   6.225  71.534  1.00  0.00    -0.233 A  
HETATM   15  C   UNL     1     -11.111   5.499  72.264  1.00  0.00    -0.237 A  
HETATM   16 CL   UNL     1     -10.662   3.996  72.970  1.00  0.00    -0.256 Cl 
HETATM   17  C   UNL     1     -12.403   5.983  72.428  1.00  0.00    -0.024 A  
HETATM   18  C   UNL     1     -12.750   7.202  71.850  1.00  0.00    -0.277 A  
HETATM   19 CL   UNL     1     -14.347   7.810  72.052  1.00  0.00    -0.471 Cl 
HETATM   20  C   UNL     1     -11.817   7.941  71.115  1.00  0.00    -0.307 A  
ENDBRANCH   9  13
TORSDOF 1
ENDMDL
MODEL      188
REMARK 921   NORMALIZED FREE ENERGY PREDICTED BY IDOCK:   -3.13 KCAL/MOL
REMARK 922        TOTAL FREE ENERGY PREDICTED BY IDOCK:   -3.51 KCAL/MOL
REMARK 923 INTER-LIGAND FREE ENERGY PREDICTED BY IDOCK:   -3.30 KCAL/MOL
REMARK 924 INTRA-LIGAND FREE ENERGY PREDICTED BY IDOCK:   -0.21 KCAL/MOL
REMARK 927      BINDING AFFINITY PREDICTED BY RF-SCORE:    0.00 PKD
ROOT
HETATM    1  O   UNL     1      -8.066   3.697  68.907  1.00  0.00    -0.061 OA 
HETATM    2  C   UNL     1      -8.907   4.563  69.509  1.00  0.00    -0.088 C  
HETATM    3  C   UNL     1      -8.603   5.992  69.250  1.00  0.00    -0.118 A  
HETATM    4  O   UNL     1      -9.857   4.208  70.185  1.00  0.00    -0.209 OA 
HETATM    5  C   UNL     1      -7.277   6.432  69.079  1.00  0.00    -0.084 A  
HETATM    6  C   UNL     1      -6.992   7.785  68.845  1.00  0.00    -0.066 A  
HETATM    7  C   UNL     1      -8.059   8.689  68.810  1.00  0.00    -0.116 A  
HETATM    8  N   UNL     1      -8.070  10.040  68.615  1.00  0.00    -0.098 NA 
HETATM    9  C   UNL     1      -9.348  10.364  68.695  1.00  0.00    -0.167 A  
HETATM   10  O   UNL     1     -10.192   9.305  68.933  1.00  0.00    -0.190 OA 
HETATM   11  C   UNL     1      -9.683   6.897  69.231  1.00  0.00    -0.156 A  
HETATM   12  C   UNL     1      -9.351   8.226  69.008  1.00  0.00    -0.147 A  
ENDROOT
BRANCH   9  13
HETATM   13  C   UNL     1      -9.941  11.689  68.540  1.00  0.00    -0.198 A  
HETATM   14  C   UNL     1      -9.443  12.530  67.531  1.00  0.00    -0.185 A  
HETATM   15  C   UNL     1      -9.991  13.794  67.322  1.00  0.00    -0.239 A  
HETATM   16 CL   UNL     1      -9.366  14.796  66.071  1.00  0.00    -0.294 Cl 
HETATM   17  C   UNL     1     -11.040  14.247  68.114  1.00  0.00    -0.275 A  
HETATM   18  C   UNL     1     -11.533  13.422  69.123  1.00  0.00    -0.300 A  
HETATM   19 CL   UNL     1     -12.834  13.974  70.105  1.00  0.00    -0.201 Cl 
HETATM   20  C   UNL     1     -10.992  12.151  69.342  1.00  0.00    -0.109 A  
ENDBRANCH   9  13
TORSDOF 1
ENDMDL
MODEL      189
REMARK 921   NORMALIZED FREE ENERGY PREDICTED BY IDOCK:   -3.12 KCAL/MOL
REMARK 922        TOTAL FREE ENERGY PREDICTED BY IDOCK:   -3.49 KCAL/MOL
REMARK 923 INTER-LIGAND FREE ENERGY PREDICTED BY IDOCK:   -3.31 KCAL/MOL
REMARK 924 INTRA-LIGAND FREE ENERGY PREDICTED BY IDOCK:   -0.18 KCAL/MOL
REMARK 927      BINDING AFFINITY PREDICTED BY RF-SCORE:    0.00 PKD
ROOT
HETATM    1  O   UNL     1     -11.363   7.747  73.257  1.00  0.00    -0.321 OA 
HETATM    2  C   UNL     1     -11.732   8.091  72.005  1.00  0.00    -0.323 C  
HETATM    3  C   UNL     1     -10.622   8.093  71.020  1.00  0.00    -0.242 A  
HETATM    4  O   UNL     1     -12.882   8.349  71.697  1.00  0.00    -0.319 OA 
HETATM    5  C   UNL     1      -9.314   8.445  71.401  1.00  0.00    -0.247 A  
HETATM    6  C   UNL     1      -8.270   8.456  70.465  1.00  0.00    -0.113 A  
HETATM    7  C   UNL     1      -8.569   8.130  69.137  1.00  0.00    -0.136 A  
HETATM    8  N   UNL     1      -7.763   8.072  68.037  1.00  0.00    -0.115 NA 
HETATM    9  C   UNL     1      -8.582   7.723  67.061  1.00  0.00    -0.129 A  
HETATM   10  O   UNL     1      -9.889   7.546  67.447  1.00  0.00    -0.147 OA 
HETATM   11  C   UNL     1     -10.936   7.777  69.682  1.00  0.00    -0.128 A  
HETATM   12  C   UNL     1      -9.873   7.812  68.791  1.00  0.00    -0.169 A  
ENDROOT
BRANCH   9  13
HETATM   13  C   UNL     1      -8.247   7.494  65.659  1.00  0.00    -0.133 A  
HETATM   14  C   UNL     1      -8.215   8.598  64.790  1.00  0.00    -0.161 A  
HETATM   15  C   UNL     1      -7.874   8.440  63.448  1.00  0.00    -0.152 A  
HETATM   16 CL   UNL     1      -7.835   9.813  62.412  1.00  0.00    -0.123 Cl 
HETATM   17  C   UNL     1      -7.561   7.183  62.944  1.00  0.00    -0.107 A  
HETATM   18  C   UNL     1      -7.598   6.082  63.797  1.00  0.00    -0.087 A  
HETATM   19 CL   UNL     1      -7.209   4.523  63.181  1.00  0.00    -0.044 Cl 
HETATM   20  C   UNL     1      -7.939   6.228  65.145  1.00  0.00    -0.115 A  
ENDBRANCH   9  13
TORSDOF 1
ENDMDL
MODEL      190
REMARK 921   NORMALIZED FREE ENERGY PREDICTED BY IDOCK:   -3.10 KCAL/MOL
REMARK 922        TOTAL FREE ENERGY PREDICTED BY IDOCK:   -3.47 KCAL/MOL
REMARK 923 INTER-LIGAND FREE ENERGY PREDICTED BY IDOCK:   -3.26 KCAL/MOL
REMARK 924 INTRA-LIGAND FREE ENERGY PREDICTED BY IDOCK:   -0.21 KCAL/MOL
REMARK 927      BINDING AFFINITY PREDICTED BY RF-SCORE:    0.00 PKD
ROOT
HETATM    1  O   UNL     1      -5.203  14.987  68.178  1.00  0.00    -0.105 OA 
HETATM    2  C   UNL     1      -6.489  14.582  68.235  1.00  0.00    -0.118 C  
HETATM    3  C   UNL     1      -6.673  13.114  68.113  1.00  0.00    -0.111 A  
HETATM    4  O   UNL     1      -7.422  15.347  68.402  1.00  0.00    -0.110 OA 
HETATM    5  C   UNL     1      -5.812  12.338  67.316  1.00  0.00    -0.143 A  
HETATM    6  C   UNL     1      -5.995  10.953  67.195  1.00  0.00    -0.066 A  
HETATM    7  C   UNL     1      -7.072  10.368  67.870  1.00  0.00    -0.083 A  
HETATM    8  N   UNL     1      -7.485   9.067  67.920  1.00  0.00    -0.084 NA 
HETATM    9  C   UNL     1      -8.553   9.101  68.696  1.00  0.00    -0.128 A  
HETATM   10  O   UNL     1      -8.878  10.351  69.167  1.00  0.00    -0.162 OA 
HETATM   11  C   UNL     1      -7.769  12.535  68.786  1.00  0.00     0.003 A  
HETATM   12  C   UNL     1      -7.916  11.164  68.628  1.00  0.00    -0.145 A  
ENDROOT
BRANCH   9  13
HETATM   13  C   UNL     1      -9.388   7.978  69.109  1.00  0.00    -0.151 A  
HETATM   14  C   UNL     1      -9.066   6.695  68.634  1.00  0.00    -0.126 A  
HETATM   15  C   UNL     1      -9.813   5.583  69.018  1.00  0.00    -0.162 A  
HETATM   16 CL   UNL     1      -9.386   4.025  68.427  1.00  0.00    -0.205 Cl 
HETATM   17  C   UNL     1     -10.895   5.726  69.879  1.00  0.00    -0.417 A  
HETATM   18  C   UNL     1     -11.227   6.995  70.347  1.00  0.00    -0.299 A  
HETATM   19 CL   UNL     1     -12.564   7.179  71.415  1.00  0.00    -0.414 Cl 
HETATM   20  C   UNL     1     -10.485   8.118  69.969  1.00  0.00    -0.231 A  
ENDBRANCH   9  13
TORSDOF 1
ENDMDL
MODEL      191
REMARK 921   NORMALIZED FREE ENERGY PREDICTED BY IDOCK:   -3.09 KCAL/MOL
REMARK 922        TOTAL FREE ENERGY PREDICTED BY IDOCK:   -3.46 KCAL/MOL
REMARK 923 INTER-LIGAND FREE ENERGY PREDICTED BY IDOCK:   -3.25 KCAL/MOL
REMARK 924 INTRA-LIGAND FREE ENERGY PREDICTED BY IDOCK:   -0.21 KCAL/MOL
REMARK 927      BINDING AFFINITY PREDICTED BY RF-SCORE:    0.00 PKD
ROOT
HETATM    1  O   UNL     1     -11.445   3.977  73.479  1.00  0.00    -0.244 OA 
HETATM    2  C   UNL     1     -10.886   5.063  72.907  1.00  0.00    -0.261 C  
HETATM    3  C   UNL     1     -10.263   4.805  71.585  1.00  0.00    -0.249 A  
HETATM    4  O   UNL     1     -10.913   6.171  73.412  1.00  0.00    -0.246 OA 
HETATM    5  C   UNL     1      -9.654   3.568  71.299  1.00  0.00    -0.242 A  
HETATM    6  C   UNL     1      -9.057   3.331  70.053  1.00  0.00    -0.197 A  
HETATM    7  C   UNL     1      -9.062   4.365  69.110  1.00  0.00    -0.125 A  
HETATM    8  N   UNL     1      -8.554   4.412  67.844  1.00  0.00    -0.101 NA 
HETATM    9  C   UNL     1      -8.839   5.634  67.430  1.00  0.00    -0.105 A  
HETATM   10  O   UNL     1      -9.509   6.405  68.349  1.00  0.00    -0.121 OA 
HETATM   11  C   UNL     1     -10.261   5.857  70.646  1.00  0.00    -0.268 A  
HETATM   12  C   UNL     1      -9.649   5.579  69.432  1.00  0.00    -0.147 A  
ENDROOT
BRANCH   9  13
HETATM   13  C   UNL     1      -8.542   6.223  66.129  1.00  0.00    -0.143 A  
HETATM   14  C   UNL     1      -8.411   5.369  65.021  1.00  0.00    -0.150 A  
HETATM   15  C   UNL     1      -8.155   5.881  63.751  1.00  0.00    -0.095 A  
HETATM   16 CL   UNL     1      -8.011   4.808  62.413  1.00  0.00    -0.066 Cl 
HETATM   17  C   UNL     1      -8.022   7.251  63.558  1.00  0.00    -0.066 A  
HETATM   18  C   UNL     1      -8.141   8.105  64.652  1.00  0.00    -0.148 A  
HETATM   19 CL   UNL     1      -7.980   9.803  64.421  1.00  0.00    -0.137 Cl 
HETATM   20  C   UNL     1      -8.398   7.603  65.932  1.00  0.00    -0.140 A  
ENDBRANCH   9  13
TORSDOF 1
ENDMDL
MODEL      192
REMARK 921   NORMALIZED FREE ENERGY PREDICTED BY IDOCK:   -3.07 KCAL/MOL
REMARK 922        TOTAL FREE ENERGY PREDICTED BY IDOCK:   -3.44 KCAL/MOL
REMARK 923 INTER-LIGAND FREE ENERGY PREDICTED BY IDOCK:   -3.23 KCAL/MOL
REMARK 924 INTRA-LIGAND FREE ENERGY PREDICTED BY IDOCK:   -0.21 KCAL/MOL
REMARK 927      BINDING AFFINITY PREDICTED BY RF-SCORE:    0.00 PKD
ROOT
HETATM    1  O   UNL     1      -6.701   8.913  62.402  1.00  0.00    -0.096 OA 
HETATM    2  C   UNL     1      -6.512   8.057  63.428  1.00  0.00    -0.072 C  
HETATM    3  C   UNL     1      -7.311   8.369  64.640  1.00  0.00    -0.093 A  
HETATM    4  O   UNL     1      -5.774   7.091  63.362  1.00  0.00    -0.035 OA 
HETATM    5  C   UNL     1      -7.612   9.700  64.988  1.00  0.00    -0.116 A  
HETATM    6  C   UNL     1      -8.357   9.992  66.138  1.00  0.00    -0.121 A  
HETATM    7  C   UNL     1      -8.773   8.926  66.944  1.00  0.00    -0.119 A  
HETATM    8  N   UNL     1      -9.490   8.922  68.106  1.00  0.00    -0.142 NA 
HETATM    9  C   UNL     1      -9.576   7.642  68.423  1.00  0.00    -0.151 A  
HETATM   10  O   UNL     1      -8.956   6.792  67.539  1.00  0.00    -0.117 OA 
HETATM   11  C   UNL     1      -7.714   7.290  65.453  1.00  0.00    -0.111 A  
HETATM   12  C   UNL     1      -8.439   7.630  66.586  1.00  0.00    -0.130 A  
ENDROOT
BRANCH   9  13
HETATM   13  C   UNL     1     -10.258   7.055  69.572  1.00  0.00    -0.208 A  
HETATM   14  C   UNL     1     -11.358   7.738  70.118  1.00  0.00    -0.121 A  
HETATM   15  C   UNL     1     -12.062   7.209  71.197  1.00  0.00    -0.358 A  
HETATM   16 CL   UNL     1     -13.411   8.065  71.836  1.00  0.00    -0.351 Cl 
HETATM   17  C   UNL     1     -11.685   5.994  71.757  1.00  0.00    -0.249 A  
HETATM   18  C   UNL     1     -10.590   5.314  71.227  1.00  0.00    -0.172 A  
HETATM   19 CL   UNL     1     -10.119   3.807  71.913  1.00  0.00    -0.231 Cl 
HETATM   20  C   UNL     1      -9.875   5.834  70.144  1.00  0.00    -0.240 A  
ENDBRANCH   9  13
TORSDOF 1
ENDMDL
MODEL      193
REMARK 921   NORMALIZED FREE ENERGY PREDICTED BY IDOCK:   -2.86 KCAL/MOL
REMARK 922        TOTAL FREE ENERGY PREDICTED BY IDOCK:   -3.22 KCAL/MOL
REMARK 923 INTER-LIGAND FREE ENERGY PREDICTED BY IDOCK:   -3.01 KCAL/MOL
REMARK 924 INTRA-LIGAND FREE ENERGY PREDICTED BY IDOCK:   -0.22 KCAL/MOL
REMARK 927      BINDING AFFINITY PREDICTED BY RF-SCORE:    0.00 PKD
ROOT
HETATM    1  O   UNL     1      -7.671   6.565  64.101  1.00  0.00    -0.094 OA 
HETATM    2  C   UNL     1      -6.936   7.677  64.309  1.00  0.00    -0.060 C  
HETATM    3  C   UNL     1      -7.720   8.850  64.772  1.00  0.00    -0.111 A  
HETATM    4  O   UNL     1      -5.728   7.714  64.162  1.00  0.00    -0.043 OA 
HETATM    5  C   UNL     1      -9.045   9.053  64.343  1.00  0.00     0.072 A  
HETATM    6  C   UNL     1      -9.779  10.167  64.773  1.00  0.00    -0.389 A  
HETATM    7  C   UNL     1      -9.149  11.085  65.623  1.00  0.00    -0.206 A  
HETATM    8  N   UNL     1      -9.615  12.242  66.177  1.00  0.00    -0.245 NA 
HETATM    9  C   UNL     1      -8.590  12.696  66.876  1.00  0.00    -0.151 A  
HETATM   10  O   UNL     1      -7.466  11.907  66.820  1.00  0.00    -0.113 OA 
HETATM   11  C   UNL     1      -7.073   9.776  65.616  1.00  0.00    -0.105 A  
HETATM   12  C   UNL     1      -7.835  10.868  66.006  1.00  0.00    -0.121 A  
ENDROOT
BRANCH   9  13
HETATM   13  C   UNL     1      -8.538  13.903  67.694  1.00  0.00    -0.190 A  
HETATM   14  C   UNL     1      -7.551  13.994  68.690  1.00  0.00    -0.130 A  
HETATM   15  C   UNL     1      -7.439  15.135  69.481  1.00  0.00    -0.213 A  
HETATM   16 CL   UNL     1      -6.213  15.219  70.686  1.00  0.00     0.024 Cl 
HETATM   17  C   UNL     1      -8.305  16.206  69.300  1.00  0.00    -0.178 A  
HETATM   18  C   UNL     1      -9.293  16.121  68.320  1.00  0.00    -0.205 A  
HETATM   19 CL   UNL     1     -10.368  17.444  68.087  1.00  0.00    -0.347 Cl 
HETATM   20  C   UNL     1      -9.415  14.981  67.520  1.00  0.00    -0.203 A  
ENDBRANCH   9  13
TORSDOF 1
ENDMDL
MODEL      194
REMARK 921   NORMALIZED FREE ENERGY PREDICTED BY IDOCK:   -2.83 KCAL/MOL
REMARK 922        TOTAL FREE ENERGY PREDICTED BY IDOCK:   -3.19 KCAL/MOL
REMARK 923 INTER-LIGAND FREE ENERGY PREDICTED BY IDOCK:   -2.99 KCAL/MOL
REMARK 924 INTRA-LIGAND FREE ENERGY PREDICTED BY IDOCK:   -0.20 KCAL/MOL
REMARK 927      BINDING AFFINITY PREDICTED BY RF-SCORE:    0.00 PKD
ROOT
HETATM    1  O   UNL     1      -8.681   9.228  62.779  1.00  0.00    -0.217 OA 
HETATM    2  C   UNL     1      -8.038   8.309  63.529  1.00  0.00    -0.130 C  
HETATM    3  C   UNL     1      -8.377   8.353  64.973  1.00  0.00    -0.169 A  
HETATM    4  O   UNL     1      -7.267   7.490  63.062  1.00  0.00    -0.074 OA 
HETATM    5  C   UNL     1      -8.683   9.570  65.610  1.00  0.00    -0.173 A  
HETATM    6  C   UNL     1      -8.992   9.609  66.977  1.00  0.00    -0.150 A  
HETATM    7  C   UNL     1      -8.965   8.409  67.696  1.00  0.00    -0.135 A  
HETATM    8  N   UNL     1      -9.209   8.161  69.016  1.00  0.00    -0.148 NA 
HETATM    9  C   UNL     1      -9.027   6.858  69.134  1.00  0.00    -0.133 A  
HETATM   10  O   UNL     1      -8.675   6.221  67.968  1.00  0.00    -0.116 OA 
HETATM   11  C   UNL     1      -8.333   7.141  65.691  1.00  0.00    -0.138 A  
HETATM   12  C   UNL     1      -8.635   7.231  67.043  1.00  0.00    -0.122 A  
ENDROOT
BRANCH   9  13
HETATM   13  C   UNL     1      -9.177   6.045  70.338  1.00  0.00    -0.167 A  
HETATM   14  C   UNL     1      -8.083   5.274  70.765  1.00  0.00    -0.106 A  
HETATM   15  C   UNL     1      -8.163   4.502  71.922  1.00  0.00    -0.104 A  
HETATM   16 CL   UNL     1      -6.802   3.578  72.424  1.00  0.00    -0.032 Cl 
HETATM   17  C   UNL     1      -9.332   4.480  72.674  1.00  0.00    -0.154 A  
HETATM   18  C   UNL     1     -10.425   5.234  72.253  1.00  0.00    -0.218 A  
HETATM   19 CL   UNL     1     -11.874   5.213  73.180  1.00  0.00    -0.239 Cl 
HETATM   20  C   UNL     1     -10.357   6.013  71.094  1.00  0.00    -0.267 A  
ENDBRANCH   9  13
TORSDOF 1
ENDMDL
MODEL      195
REMARK 921   NORMALIZED FREE ENERGY PREDICTED BY IDOCK:   -2.74 KCAL/MOL
REMARK 922        TOTAL FREE ENERGY PREDICTED BY IDOCK:   -3.10 KCAL/MOL
REMARK 923 INTER-LIGAND FREE ENERGY PREDICTED BY IDOCK:   -2.88 KCAL/MOL
REMARK 924 INTRA-LIGAND FREE ENERGY PREDICTED BY IDOCK:   -0.21 KCAL/MOL
REMARK 927      BINDING AFFINITY PREDICTED BY RF-SCORE:    0.00 PKD
ROOT
HETATM    1  O   UNL     1     -11.975  13.931  62.389  1.00  0.00     1.111 OA 
HETATM    2  C   UNL     1     -12.107  13.126  63.463  1.00  0.00    -0.514 C  
HETATM    3  C   UNL     1     -11.788  13.779  64.758  1.00  0.00    -0.413 A  
HETATM    4  O   UNL     1     -12.484  11.971  63.388  1.00  0.00    -0.577 OA 
HETATM    5  C   UNL     1     -10.797  14.774  64.845  1.00  0.00    -0.433 A  
HETATM    6  C   UNL     1     -10.491  15.381  66.071  1.00  0.00    -0.333 A  
HETATM    7  C   UNL     1     -11.182  14.953  67.211  1.00  0.00    -0.345 A  
HETATM    8  N   UNL     1     -11.081  15.356  68.511  1.00  0.00    -0.279 NA 
HETATM    9  C   UNL     1     -11.963  14.605  69.147  1.00  0.00    -0.294 A  
HETATM   10  O   UNL     1     -12.646  13.723  68.345  1.00  0.00     0.108 OA 
HETATM   11  C   UNL     1     -12.480  13.331  65.902  1.00  0.00    -0.433 A  
HETATM   12  C   UNL     1     -12.135  13.953  67.094  1.00  0.00    -0.387 A  
ENDROOT
BRANCH   9  13
HETATM   13  C   UNL     1     -12.290  14.629  70.569  1.00  0.00    -0.400 A  
HETATM   14  C   UNL     1     -11.841  15.715  71.340  1.00  0.00    -0.482 A  
HETATM   15  C   UNL     1     -12.148  15.802  72.696  1.00  0.00    -0.486 A  
HETATM   16 CL   UNL     1     -11.592  17.150  73.610  1.00  0.00     0.200 Cl 
HETATM   17  C   UNL     1     -12.903  14.811  73.312  1.00  0.00    -0.621 A  
HETATM   18  C   UNL     1     -13.345  13.727  72.557  1.00  0.00    -0.552 A  
HETATM   19 CL   UNL     1     -14.283  12.498  73.312  1.00  0.00     2.552 Cl 
HETATM   20  C   UNL     1     -13.044  13.628  71.196  1.00  0.00    -0.306 A  
ENDBRANCH   9  13
TORSDOF 1
ENDMDL
MODEL      196
REMARK 921   NORMALIZED FREE ENERGY PREDICTED BY IDOCK:   -2.70 KCAL/MOL
REMARK 922        TOTAL FREE ENERGY PREDICTED BY IDOCK:   -3.05 KCAL/MOL
REMARK 923 INTER-LIGAND FREE ENERGY PREDICTED BY IDOCK:   -2.84 KCAL/MOL
REMARK 924 INTRA-LIGAND FREE ENERGY PREDICTED BY IDOCK:   -0.21 KCAL/MOL
REMARK 927      BINDING AFFINITY PREDICTED BY RF-SCORE:    0.00 PKD
ROOT
HETATM    1  O   UNL     1     -11.829   4.514  73.200  1.00  0.00    -0.184 OA 
HETATM    2  C   UNL     1     -11.412   5.559  72.455  1.00  0.00    -0.204 C  
HETATM    3  C   UNL     1     -10.522   5.188  71.327  1.00  0.00    -0.245 A  
HETATM    4  O   UNL     1     -11.758   6.707  72.666  1.00  0.00    -0.204 OA 
HETATM    5  C   UNL     1      -9.630   4.104  71.432  1.00  0.00    -0.238 A  
HETATM    6  C   UNL     1      -8.782   3.763  70.369  1.00  0.00    -0.129 A  
HETATM    7  C   UNL     1      -8.831   4.544  69.209  1.00  0.00    -0.090 A  
HETATM    8  N   UNL     1      -8.123   4.447  68.045  1.00  0.00    -0.090 NA 
HETATM    9  C   UNL     1      -8.575   5.448  67.312  1.00  0.00    -0.108 A  
HETATM   10  O   UNL     1      -9.544   6.210  67.920  1.00  0.00    -0.118 OA 
HETATM   11  C   UNL     1     -10.568   5.989  70.168  1.00  0.00    -0.341 A  
HETATM   12  C   UNL     1      -9.703   5.619  69.147  1.00  0.00    -0.145 A  
ENDROOT
BRANCH   9  13
HETATM   13  C   UNL     1      -8.176   5.807  65.955  1.00  0.00    -0.121 A  
HETATM   14  C   UNL     1      -8.157   7.166  65.600  1.00  0.00    -0.133 A  
HETATM   15  C   UNL     1      -7.758   7.566  64.326  1.00  0.00    -0.128 A  
HETATM   16 CL   UNL     1      -7.735   9.239  63.927  1.00  0.00    -0.112 Cl 
HETATM   17  C   UNL     1      -7.374   6.622  63.381  1.00  0.00    -0.072 A  
HETATM   18  C   UNL     1      -7.399   5.271  63.721  1.00  0.00    -0.052 A  
HETATM   19 CL   UNL     1      -6.922   4.098  62.556  1.00  0.00    -0.034 Cl 
HETATM   20  C   UNL     1      -7.797   4.858  64.996  1.00  0.00    -0.092 A  
ENDBRANCH   9  13
TORSDOF 1
ENDMDL
MODEL      197
REMARK 921   NORMALIZED FREE ENERGY PREDICTED BY IDOCK:   -2.68 KCAL/MOL
REMARK 922        TOTAL FREE ENERGY PREDICTED BY IDOCK:   -3.03 KCAL/MOL
REMARK 923 INTER-LIGAND FREE ENERGY PREDICTED BY IDOCK:   -2.81 KCAL/MOL
REMARK 924 INTRA-LIGAND FREE ENERGY PREDICTED BY IDOCK:   -0.22 KCAL/MOL
REMARK 927      BINDING AFFINITY PREDICTED BY RF-SCORE:    0.00 PKD
ROOT
HETATM    1  O   UNL     1     -11.848   3.901  73.215  1.00  0.00    -0.030 OA 
HETATM    2  C   UNL     1     -11.223   5.090  73.087  1.00  0.00    -0.335 C  
HETATM    3  C   UNL     1     -10.557   5.293  71.776  1.00  0.00    -0.268 A  
HETATM    4  O   UNL     1     -11.227   5.942  73.959  1.00  0.00     0.194 OA 
HETATM    5  C   UNL     1      -9.987   4.213  71.077  1.00  0.00    -0.206 A  
HETATM    6  C   UNL     1      -9.350   4.410  69.844  1.00  0.00    -0.225 A  
HETATM    7  C   UNL     1      -9.276   5.713  69.339  1.00  0.00    -0.121 A  
HETATM    8  N   UNL     1      -8.715   6.186  68.188  1.00  0.00    -0.115 NA 
HETATM    9  C   UNL     1      -8.934   7.488  68.238  1.00  0.00    -0.130 A  
HETATM   10  O   UNL     1      -9.610   7.911  69.357  1.00  0.00    -0.160 OA 
HETATM   11  C   UNL     1     -10.476   6.611  71.282  1.00  0.00    -0.244 A  
HETATM   12  C   UNL     1      -9.826   6.758  70.065  1.00  0.00    -0.169 A  
ENDROOT
BRANCH   9  13
HETATM   13  C   UNL     1      -8.561   8.491  67.245  1.00  0.00    -0.123 A  
HETATM   14  C   UNL     1      -8.051   8.053  66.011  1.00  0.00    -0.110 A  
HETATM   15  C   UNL     1      -7.705   8.967  65.018  1.00  0.00    -0.103 A  
HETATM   16 CL   UNL     1      -7.092   8.398  63.514  1.00  0.00    -0.088 Cl 
HETATM   17  C   UNL     1      -7.857  10.331  65.232  1.00  0.00    -0.145 A  
HETATM   18  C   UNL     1      -8.354  10.775  66.456  1.00  0.00    -0.146 A  
HETATM   19 CL   UNL     1      -8.547  12.463  66.728  1.00  0.00    -0.168 Cl 
HETATM   20  C   UNL     1      -8.705   9.868  67.461  1.00  0.00    -0.121 A  
ENDBRANCH   9  13
TORSDOF 1
ENDMDL
MODEL      198
REMARK 921   NORMALIZED FREE ENERGY PREDICTED BY IDOCK:   -2.50 KCAL/MOL
REMARK 922        TOTAL FREE ENERGY PREDICTED BY IDOCK:   -2.84 KCAL/MOL
REMARK 923 INTER-LIGAND FREE ENERGY PREDICTED BY IDOCK:   -2.63 KCAL/MOL
REMARK 924 INTRA-LIGAND FREE ENERGY PREDICTED BY IDOCK:   -0.21 KCAL/MOL
REMARK 927      BINDING AFFINITY PREDICTED BY RF-SCORE:    0.00 PKD
ROOT
HETATM    1  O   UNL     1      -6.026  12.766  69.390  1.00  0.00    -0.088 OA 
HETATM    2  C   UNL     1      -6.361  11.569  69.915  1.00  0.00    -0.136 C  
HETATM    3  C   UNL     1      -7.081  10.670  68.979  1.00  0.00    -0.086 A  
HETATM    4  O   UNL     1      -6.073  11.236  71.051  1.00  0.00    -0.362 OA 
HETATM    5  C   UNL     1      -7.954  11.187  68.003  1.00  0.00    -0.117 A  
HETATM    6  C   UNL     1      -8.640  10.334  67.127  1.00  0.00    -0.126 A  
HETATM    7  C   UNL     1      -8.451   8.954  67.264  1.00  0.00    -0.114 A  
HETATM    8  N   UNL     1      -8.991   7.913  66.566  1.00  0.00    -0.152 NA 
HETATM    9  C   UNL     1      -8.465   6.842  67.134  1.00  0.00    -0.120 A  
HETATM   10  O   UNL     1      -7.606   7.109  68.172  1.00  0.00    -0.109 OA 
HETATM   11  C   UNL     1      -6.894   9.281  69.133  1.00  0.00    -0.050 A  
HETATM   12  C   UNL     1      -7.603   8.477  68.251  1.00  0.00    -0.097 A  
ENDROOT
BRANCH   9  13
HETATM   13  C   UNL     1      -8.682   5.445  66.769  1.00  0.00    -0.113 A  
HETATM   14  C   UNL     1      -9.486   5.163  65.652  1.00  0.00    -0.129 A  
HETATM   15  C   UNL     1      -9.704   3.849  65.243  1.00  0.00    -0.187 A  
HETATM   16 CL   UNL     1     -10.685   3.538  63.864  1.00  0.00    -0.273 Cl 
HETATM   17  C   UNL     1      -9.130   2.792  65.938  1.00  0.00    -0.121 A  
HETATM   18  C   UNL     1      -8.338   3.062  67.052  1.00  0.00    -0.091 A  
HETATM   19 CL   UNL     1      -7.622   1.757  67.916  1.00  0.00    -0.054 Cl 
HETATM   20  C   UNL     1      -8.112   4.376  67.472  1.00  0.00    -0.099 A  
ENDBRANCH   9  13
TORSDOF 1
ENDMDL
MODEL      199
REMARK 921   NORMALIZED FREE ENERGY PREDICTED BY IDOCK:   -2.48 KCAL/MOL
REMARK 922        TOTAL FREE ENERGY PREDICTED BY IDOCK:   -2.82 KCAL/MOL
REMARK 923 INTER-LIGAND FREE ENERGY PREDICTED BY IDOCK:   -2.60 KCAL/MOL
REMARK 924 INTRA-LIGAND FREE ENERGY PREDICTED BY IDOCK:   -0.21 KCAL/MOL
REMARK 927      BINDING AFFINITY PREDICTED BY RF-SCORE:    0.00 PKD
ROOT
HETATM    1  O   UNL     1      -7.397  12.615  68.927  1.00  0.00    -0.094 OA 
HETATM    2  C   UNL     1      -7.239  11.333  69.314  1.00  0.00    -0.094 C  
HETATM    3  C   UNL     1      -8.033  10.355  68.530  1.00  0.00    -0.114 A  
HETATM    4  O   UNL     1      -6.486  10.996  70.210  1.00  0.00    -0.182 OA 
HETATM    5  C   UNL     1      -9.296  10.696  68.011  1.00  0.00    -0.151 A  
HETATM    6  C   UNL     1     -10.049   9.766  67.279  1.00  0.00    -0.261 A  
HETATM    7  C   UNL     1      -9.520   8.483  67.100  1.00  0.00    -0.162 A  
HETATM    8  N   UNL     1     -10.033   7.397  66.450  1.00  0.00    -0.105 NA 
HETATM    9  C   UNL     1      -9.111   6.465  66.611  1.00  0.00    -0.146 A  
HETATM   10  O   UNL     1      -8.012   6.867  67.332  1.00  0.00    -0.109 OA 
HETATM   11  C   UNL     1      -7.499   9.061  68.366  1.00  0.00    -0.082 A  
HETATM   12  C   UNL     1      -8.284   8.172  67.645  1.00  0.00    -0.127 A  
ENDROOT
BRANCH   9  13
HETATM   13  C   UNL     1      -9.130   5.098  66.100  1.00  0.00    -0.144 A  
HETATM   14  C   UNL     1      -8.373   4.122  66.771  1.00  0.00    -0.101 A  
HETATM   15  C   UNL     1      -8.378   2.796  66.342  1.00  0.00    -0.093 A  
HETATM   16 CL   UNL     1      -7.449   1.624  67.191  1.00  0.00    -0.058 Cl 
HETATM   17  C   UNL     1      -9.132   2.416  65.238  1.00  0.00    -0.123 A  
HETATM   18  C   UNL     1      -9.878   3.379  64.562  1.00  0.00    -0.164 A  
HETATM   19 CL   UNL     1     -10.816   2.916  63.195  1.00  0.00    -0.225 Cl 
HETATM   20  C   UNL     1      -9.882   4.713  64.982  1.00  0.00    -0.067 A  
ENDBRANCH   9  13
TORSDOF 1
ENDMDL
MODEL      200
REMARK 921   NORMALIZED FREE ENERGY PREDICTED BY IDOCK:   -2.46 KCAL/MOL
REMARK 922        TOTAL FREE ENERGY PREDICTED BY IDOCK:   -2.80 KCAL/MOL
REMARK 923 INTER-LIGAND FREE ENERGY PREDICTED BY IDOCK:   -2.57 KCAL/MOL
REMARK 924 INTRA-LIGAND FREE ENERGY PREDICTED BY IDOCK:   -0.22 KCAL/MOL
REMARK 927      BINDING AFFINITY PREDICTED BY RF-SCORE:    0.00 PKD
ROOT
HETATM    1  O   UNL     1      -9.524   2.482  63.022  1.00  0.00    -0.090 OA 
HETATM    2  C   UNL     1     -10.238   3.090  63.991  1.00  0.00    -0.148 C  
HETATM    3  C   UNL     1      -9.478   3.346  65.241  1.00  0.00    -0.145 A  
HETATM    4  O   UNL     1     -11.399   3.431  63.849  1.00  0.00    -0.189 OA 
HETATM    5  C   UNL     1      -8.472   2.461  65.672  1.00  0.00    -0.102 A  
HETATM    6  C   UNL     1      -7.763   2.700  66.858  1.00  0.00    -0.071 A  
HETATM    7  C   UNL     1      -8.101   3.829  67.613  1.00  0.00    -0.089 A  
HETATM    8  N   UNL     1      -7.591   4.290  68.793  1.00  0.00    -0.059 NA 
HETATM    9  C   UNL     1      -8.294   5.381  69.039  1.00  0.00    -0.100 A  
HETATM   10  O   UNL     1      -9.244   5.675  68.091  1.00  0.00    -0.110 OA 
HETATM   11  C   UNL     1      -9.835   4.477  66.002  1.00  0.00    -0.240 A  
HETATM   12  C   UNL     1      -9.114   4.666  67.173  1.00  0.00    -0.122 A  
ENDROOT
BRANCH   9  13
HETATM   13  C   UNL     1      -8.154   6.291  70.172  1.00  0.00    -0.116 A  
HETATM   14  C   UNL     1      -9.159   7.249  70.388  1.00  0.00    -0.155 A  
HETATM   15  C   UNL     1      -9.090   8.124  71.470  1.00  0.00    -0.158 A  
HETATM   16 CL   UNL     1     -10.342   9.279  71.712  1.00  0.00    -0.331 Cl 
HETATM   17  C   UNL     1      -8.020   8.066  72.355  1.00  0.00    -0.168 A  
HETATM   18  C   UNL     1      -7.015   7.124  72.143  1.00  0.00    -0.067 A  
HETATM   19 CL   UNL     1      -5.688   7.044  73.237  1.00  0.00    -0.046 Cl 
HETATM   20  C   UNL     1      -7.073   6.241  71.061  1.00  0.00    -0.070 A  
ENDBRANCH   9  13
TORSDOF 1
ENDMDL
MODEL      201
REMARK 921   NORMALIZED FREE ENERGY PREDICTED BY IDOCK:   -2.43 KCAL/MOL
REMARK 922        TOTAL FREE ENERGY PREDICTED BY IDOCK:   -2.76 KCAL/MOL
REMARK 923 INTER-LIGAND FREE ENERGY PREDICTED BY IDOCK:   -2.58 KCAL/MOL
REMARK 924 INTRA-LIGAND FREE ENERGY PREDICTED BY IDOCK:   -0.18 KCAL/MOL
REMARK 927      BINDING AFFINITY PREDICTED BY RF-SCORE:    0.00 PKD
ROOT
HETATM    1  O   UNL     1     -11.271  15.444  70.694  1.00  0.00    -0.293 OA 
HETATM    2  C   UNL     1     -11.636  14.146  70.755  1.00  0.00    -0.063 C  
HETATM    3  C   UNL     1     -11.077  13.302  69.670  1.00  0.00    -0.001 A  
HETATM    4  O   UNL     1     -12.340  13.694  71.641  1.00  0.00    -0.238 OA 
HETATM    5  C   UNL     1     -10.859  13.825  68.382  1.00  0.00    -0.268 A  
HETATM    6  C   UNL     1     -10.341  13.022  67.357  1.00  0.00    -0.234 A  
HETATM    7  C   UNL     1     -10.068  11.679  67.643  1.00  0.00    -0.188 A  
HETATM    8  N   UNL     1      -9.578  10.686  66.845  1.00  0.00    -0.168 NA 
HETATM    9  C   UNL     1      -9.538   9.630  67.639  1.00  0.00    -0.142 A  
HETATM   10  O   UNL     1      -9.976   9.863  68.921  1.00  0.00    -0.167 OA 
HETATM   11  C   UNL     1     -10.819  11.947  69.964  1.00  0.00     0.583 A  
HETATM   12  C   UNL     1     -10.318  11.189  68.915  1.00  0.00    -0.201 A  
ENDROOT
BRANCH   9  13
HETATM   13  C   UNL     1      -9.073   8.287  67.308  1.00  0.00    -0.157 A  
HETATM   14  C   UNL     1      -7.692   8.031  67.340  1.00  0.00    -0.102 A  
HETATM   15  C   UNL     1      -7.195   6.760  67.060  1.00  0.00    -0.081 A  
HETATM   16 CL   UNL     1      -5.499   6.476  67.118  1.00  0.00    -0.012 Cl 
HETATM   17  C   UNL     1      -8.061   5.721  66.741  1.00  0.00    -0.102 A  
HETATM   18  C   UNL     1      -9.431   5.968  66.698  1.00  0.00    -0.149 A  
HETATM   19 CL   UNL     1     -10.510   4.685  66.306  1.00  0.00    -0.303 Cl 
HETATM   20  C   UNL     1      -9.942   7.239  66.977  1.00  0.00    -0.293 A  
ENDBRANCH   9  13
TORSDOF 1
ENDMDL
MODEL      202
REMARK 921   NORMALIZED FREE ENERGY PREDICTED BY IDOCK:   -2.41 KCAL/MOL
REMARK 922        TOTAL FREE ENERGY PREDICTED BY IDOCK:   -2.75 KCAL/MOL
REMARK 923 INTER-LIGAND FREE ENERGY PREDICTED BY IDOCK:   -2.53 KCAL/MOL
REMARK 924 INTRA-LIGAND FREE ENERGY PREDICTED BY IDOCK:   -0.21 KCAL/MOL
REMARK 927      BINDING AFFINITY PREDICTED BY RF-SCORE:    0.00 PKD
ROOT
HETATM    1  O   UNL     1     -11.859   3.908  73.220  1.00  0.00    -0.030 OA 
HETATM    2  C   UNL     1     -11.250   5.111  73.160  1.00  0.00    -0.330 C  
HETATM    3  C   UNL     1     -10.535   5.370  71.885  1.00  0.00    -0.283 A  
HETATM    4  O   UNL     1     -11.304   5.931  74.059  1.00  0.00     0.352 OA 
HETATM    5  C   UNL     1      -9.918   4.324  71.173  1.00  0.00    -0.226 A  
HETATM    6  C   UNL     1      -9.234   4.574  69.975  1.00  0.00    -0.195 A  
HETATM    7  C   UNL     1      -9.162   5.895  69.519  1.00  0.00    -0.135 A  
HETATM    8  N   UNL     1      -8.563   6.417  68.409  1.00  0.00    -0.115 NA 
HETATM    9  C   UNL     1      -8.807   7.713  68.494  1.00  0.00    -0.130 A  
HETATM   10  O   UNL     1      -9.535   8.086  69.599  1.00  0.00    -0.162 OA 
HETATM   11  C   UNL     1     -10.456   6.706  71.441  1.00  0.00    -0.241 A  
HETATM   12  C   UNL     1      -9.760   6.905  70.257  1.00  0.00    -0.172 A  
ENDROOT
BRANCH   9  13
HETATM   13  C   UNL     1      -8.411   8.756  67.553  1.00  0.00    -0.109 A  
HETATM   14  C   UNL     1      -8.290  10.073  68.026  1.00  0.00    -0.117 A  
HETATM   15  C   UNL     1      -7.888  11.102  67.177  1.00  0.00    -0.139 A  
HETATM   16 CL   UNL     1      -7.739  12.703  67.790  1.00  0.00    -0.131 Cl 
HETATM   17  C   UNL     1      -7.603  10.842  65.842  1.00  0.00    -0.057 A  
HETATM   18  C   UNL     1      -7.729   9.540  65.362  1.00  0.00    -0.109 A  
HETATM   19 CL   UNL     1      -7.375   9.210  63.711  1.00  0.00    -0.099 Cl 
HETATM   20  C   UNL     1      -8.131   8.499  66.204  1.00  0.00    -0.105 A  
ENDBRANCH   9  13
TORSDOF 1
ENDMDL
MODEL      203
REMARK 921   NORMALIZED FREE ENERGY PREDICTED BY IDOCK:   -2.40 KCAL/MOL
REMARK 922        TOTAL FREE ENERGY PREDICTED BY IDOCK:   -2.74 KCAL/MOL
REMARK 923 INTER-LIGAND FREE ENERGY PREDICTED BY IDOCK:   -2.55 KCAL/MOL
REMARK 924 INTRA-LIGAND FREE ENERGY PREDICTED BY IDOCK:   -0.19 KCAL/MOL
REMARK 927      BINDING AFFINITY PREDICTED BY RF-SCORE:    0.00 PKD
ROOT
HETATM    1  O   UNL     1     -12.194  15.792  64.946  1.00  0.00     0.229 OA 
HETATM    2  C   UNL     1     -11.083  15.030  65.018  1.00  0.00    -0.413 C  
HETATM    3  C   UNL     1     -10.942  14.274  66.287  1.00  0.00    -0.317 A  
HETATM    4  O   UNL     1     -10.276  14.942  64.110  1.00  0.00     0.510 OA 
HETATM    5  C   UNL     1     -11.413  14.802  67.504  1.00  0.00    -0.369 A  
HETATM    6  C   UNL     1     -11.268  14.090  68.703  1.00  0.00    -0.294 A  
HETATM    7  C   UNL     1     -10.623  12.849  68.660  1.00  0.00    -0.234 A  
HETATM    8  N   UNL     1     -10.341  11.962  69.659  1.00  0.00     0.462 NA 
HETATM    9  C   UNL     1      -9.714  10.976  69.043  1.00  0.00    -0.134 A  
HETATM   10  O   UNL     1      -9.560  11.155  67.689  1.00  0.00    -0.167 OA 
HETATM   11  C   UNL     1     -10.278  13.031  66.237  1.00  0.00    -0.291 A  
HETATM   12  C   UNL     1     -10.149  12.368  67.449  1.00  0.00    -0.201 A  
ENDROOT
BRANCH   9  13
HETATM   13  C   UNL     1      -9.200   9.744  69.633  1.00  0.00    -0.239 A  
HETATM   14  C   UNL     1     -10.007   8.594  69.588  1.00  0.00    -0.191 A  
HETATM   15  C   UNL     1      -9.554   7.385  70.112  1.00  0.00    -0.165 A  
HETATM   16 CL   UNL     1     -10.562   5.993  70.032  1.00  0.00    -0.309 Cl 
HETATM   17  C   UNL     1      -8.295   7.296  70.692  1.00  0.00    -0.128 A  
HETATM   18  C   UNL     1      -7.492   8.433  70.748  1.00  0.00    -0.065 A  
HETATM   19 CL   UNL     1      -5.930   8.330  71.462  1.00  0.00    -0.036 Cl 
HETATM   20  C   UNL     1      -7.934   9.653  70.226  1.00  0.00    -0.198 A  
ENDBRANCH   9  13
TORSDOF 1
ENDMDL
MODEL      204
REMARK 921   NORMALIZED FREE ENERGY PREDICTED BY IDOCK:   -2.34 KCAL/MOL
REMARK 922        TOTAL FREE ENERGY PREDICTED BY IDOCK:   -2.67 KCAL/MOL
REMARK 923 INTER-LIGAND FREE ENERGY PREDICTED BY IDOCK:   -2.46 KCAL/MOL
REMARK 924 INTRA-LIGAND FREE ENERGY PREDICTED BY IDOCK:   -0.21 KCAL/MOL
REMARK 927      BINDING AFFINITY PREDICTED BY RF-SCORE:    0.00 PKD
ROOT
HETATM    1  O   UNL     1     -11.081   1.541  74.549  1.00  0.00    -0.110 OA 
HETATM    2  C   UNL     1     -11.570   2.347  73.584  1.00  0.00    -0.115 C  
HETATM    3  C   UNL     1     -10.852   3.638  73.443  1.00  0.00    -0.314 A  
HETATM    4  O   UNL     1     -12.502   2.034  72.864  1.00  0.00     0.487 OA 
HETATM    5  C   UNL     1     -10.287   4.280  74.561  1.00  0.00    -0.291 A  
HETATM    6  C   UNL     1      -9.619   5.505  74.427  1.00  0.00    -0.169 A  
HETATM    7  C   UNL     1      -9.549   6.084  73.155  1.00  0.00    -0.143 A  
HETATM    8  N   UNL     1      -8.979   7.254  72.744  1.00  0.00    -0.132 NA 
HETATM    9  C   UNL     1      -9.227   7.292  71.447  1.00  0.00    -0.142 A  
HETATM   10  O   UNL     1      -9.932   6.213  70.969  1.00  0.00    -0.180 OA 
HETATM   11  C   UNL     1     -10.799   4.220  72.160  1.00  0.00     0.134 A  
HETATM   12  C   UNL     1     -10.137   5.437  72.079  1.00  0.00    -0.190 A  
ENDROOT
BRANCH   9  13
HETATM   13  C   UNL     1      -8.824   8.322  70.495  1.00  0.00    -0.148 A  
HETATM   14  C   UNL     1      -9.580   8.480  69.321  1.00  0.00    -0.170 A  
HETATM   15  C   UNL     1      -9.256   9.466  68.392  1.00  0.00    -0.127 A  
HETATM   16 CL   UNL     1     -10.208   9.641  66.969  1.00  0.00    -0.290 Cl 
HETATM   17  C   UNL     1      -8.175  10.312  68.609  1.00  0.00    -0.116 A  
HETATM   18  C   UNL     1      -7.415  10.156  69.767  1.00  0.00    -0.163 A  
HETATM   19 CL   UNL     1      -6.076  11.201  70.045  1.00  0.00    -0.119 Cl 
HETATM   20  C   UNL     1      -7.730   9.171  70.707  1.00  0.00    -0.162 A  
ENDBRANCH   9  13
TORSDOF 1
ENDMDL
MODEL      205
REMARK 921   NORMALIZED FREE ENERGY PREDICTED BY IDOCK:   -2.25 KCAL/MOL
REMARK 922        TOTAL FREE ENERGY PREDICTED BY IDOCK:   -2.58 KCAL/MOL
REMARK 923 INTER-LIGAND FREE ENERGY PREDICTED BY IDOCK:   -2.37 KCAL/MOL
REMARK 924 INTRA-LIGAND FREE ENERGY PREDICTED BY IDOCK:   -0.21 KCAL/MOL
REMARK 927      BINDING AFFINITY PREDICTED BY RF-SCORE:    0.00 PKD
ROOT
HETATM    1  O   UNL     1      -6.686   5.101  74.141  1.00  0.00    -0.072 OA 
HETATM    2  C   UNL     1      -7.213   6.273  73.732  1.00  0.00    -0.083 C  
HETATM    3  C   UNL     1      -6.962   6.590  72.304  1.00  0.00    -0.073 A  
HETATM    4  O   UNL     1      -7.865   7.001  74.459  1.00  0.00    -0.121 OA 
HETATM    5  C   UNL     1      -5.772   6.188  71.669  1.00  0.00    -0.027 A  
HETATM    6  C   UNL     1      -5.533   6.498  70.323  1.00  0.00    -0.018 A  
HETATM    7  C   UNL     1      -6.501   7.239  69.634  1.00  0.00    -0.036 A  
HETATM    8  N   UNL     1      -6.524   7.681  68.343  1.00  0.00    -0.051 NA 
HETATM    9  C   UNL     1      -7.670   8.331  68.249  1.00  0.00    -0.106 A  
HETATM   10  O   UNL     1      -8.414   8.348  69.404  1.00  0.00    -0.122 OA 
HETATM   11  C   UNL     1      -7.936   7.349  71.622  1.00  0.00    -0.098 A  
HETATM   12  C   UNL     1      -7.650   7.640  70.296  1.00  0.00    -0.089 A  
ENDROOT
BRANCH   9  13
HETATM   13  C   UNL     1      -8.220   8.997  67.072  1.00  0.00    -0.109 A  
HETATM   14  C   UNL     1      -7.746   8.616  65.805  1.00  0.00    -0.090 A  
HETATM   15  C   UNL     1      -8.257   9.199  64.648  1.00  0.00    -0.152 A  
HETATM   16 CL   UNL     1      -7.662   8.704  63.111  1.00  0.00    -0.120 Cl 
HETATM   17  C   UNL     1      -9.245  10.173  64.727  1.00  0.00    -0.291 A  
HETATM   18  C   UNL     1      -9.715  10.563  65.979  1.00  0.00    -0.205 A  
HETATM   19 CL   UNL     1     -10.941  11.765  66.085  1.00  0.00    -0.343 Cl 
HETATM   20  C   UNL     1      -9.211   9.985  67.148  1.00  0.00    -0.161 A  
ENDBRANCH   9  13
TORSDOF 1
ENDMDL
MODEL      206
REMARK 921   NORMALIZED FREE ENERGY PREDICTED BY IDOCK:   -2.19 KCAL/MOL
REMARK 922        TOTAL FREE ENERGY PREDICTED BY IDOCK:   -2.51 KCAL/MOL
REMARK 923 INTER-LIGAND FREE ENERGY PREDICTED BY IDOCK:   -2.32 KCAL/MOL
REMARK 924 INTRA-LIGAND FREE ENERGY PREDICTED BY IDOCK:   -0.19 KCAL/MOL
REMARK 927      BINDING AFFINITY PREDICTED BY RF-SCORE:    0.00 PKD
ROOT
HETATM    1  O   UNL     1      -8.016   7.093  74.380  1.00  0.00    -0.124 OA 
HETATM    2  C   UNL     1      -8.253   7.730  73.214  1.00  0.00    -0.158 C  
HETATM    3  C   UNL     1      -7.809   6.985  72.010  1.00  0.00    -0.093 A  
HETATM    4  O   UNL     1      -8.810   8.811  73.147  1.00  0.00    -0.310 OA 
HETATM    5  C   UNL     1      -6.671   6.158  72.046  1.00  0.00    -0.064 A  
HETATM    6  C   UNL     1      -6.248   5.464  70.903  1.00  0.00    -0.030 A  
HETATM    7  C   UNL     1      -6.976   5.635  69.720  1.00  0.00    -0.062 A  
HETATM    8  N   UNL     1      -6.786   5.099  68.479  1.00  0.00    -0.054 NA 
HETATM    9  C   UNL     1      -7.763   5.617  67.755  1.00  0.00    -0.096 A  
HETATM   10  O   UNL     1      -8.593   6.469  68.443  1.00  0.00    -0.119 OA 
HETATM   11  C   UNL     1      -8.540   7.175  70.819  1.00  0.00    -0.146 A  
HETATM   12  C   UNL     1      -8.077   6.476  69.712  1.00  0.00    -0.125 A  
ENDROOT
BRANCH   9  13
HETATM   13  C   UNL     1      -8.053   5.369  66.347  1.00  0.00    -0.105 A  
HETATM   14  C   UNL     1      -7.130   5.814  65.385  1.00  0.00    -0.069 A  
HETATM   15  C   UNL     1      -7.344   5.579  64.028  1.00  0.00    -0.058 A  
HETATM   16 CL   UNL     1      -6.190   6.128  62.877  1.00  0.00    -0.026 Cl 
HETATM   17  C   UNL     1      -8.479   4.901  63.602  1.00  0.00    -0.132 A  
HETATM   18  C   UNL     1      -9.404   4.463  64.548  1.00  0.00    -0.143 A  
HETATM   19 CL   UNL     1     -10.811   3.619  64.028  1.00  0.00    -0.262 Cl 
HETATM   20  C   UNL     1      -9.200   4.692  65.912  1.00  0.00    -0.144 A  
ENDBRANCH   9  13
TORSDOF 1
ENDMDL
MODEL      207
REMARK 921   NORMALIZED FREE ENERGY PREDICTED BY IDOCK:   -2.05 KCAL/MOL
REMARK 922        TOTAL FREE ENERGY PREDICTED BY IDOCK:   -2.36 KCAL/MOL
REMARK 923 INTER-LIGAND FREE ENERGY PREDICTED BY IDOCK:   -2.18 KCAL/MOL
REMARK 924 INTRA-LIGAND FREE ENERGY PREDICTED BY IDOCK:   -0.19 KCAL/MOL
REMARK 927      BINDING AFFINITY PREDICTED BY RF-SCORE:    0.00 PKD
ROOT
HETATM    1  O   UNL     1      -7.081  10.565  63.254  1.00  0.00    -0.085 OA 
HETATM    2  C   UNL     1      -6.539   9.656  64.091  1.00  0.00    -0.112 C  
HETATM    3  C   UNL     1      -6.939   9.818  65.511  1.00  0.00    -0.099 A  
HETATM    4  O   UNL     1      -5.806   8.759  63.715  1.00  0.00    -0.070 OA 
HETATM    5  C   UNL     1      -7.189  11.092  66.054  1.00  0.00    -0.014 A  
HETATM    6  C   UNL     1      -7.557  11.242  67.398  1.00  0.00    -0.120 A  
HETATM    7  C   UNL     1      -7.646  10.092  68.191  1.00  0.00    -0.084 A  
HETATM    8  N   UNL     1      -7.967   9.949  69.510  1.00  0.00    -0.132 NA 
HETATM    9  C   UNL     1      -7.881   8.647  69.720  1.00  0.00    -0.093 A  
HETATM   10  O   UNL     1      -7.520   7.913  68.615  1.00  0.00    -0.094 OA 
HETATM   11  C   UNL     1      -7.012   8.655  66.305  1.00  0.00    -0.077 A  
HETATM   12  C   UNL     1      -7.369   8.855  67.631  1.00  0.00    -0.085 A  
ENDROOT
BRANCH   9  13
HETATM   13  C   UNL     1      -8.142   7.928  70.963  1.00  0.00    -0.098 A  
HETATM   14  C   UNL     1      -7.259   8.112  72.040  1.00  0.00    -0.099 A  
HETATM   15  C   UNL     1      -7.476   7.471  73.258  1.00  0.00    -0.096 A  
HETATM   16 CL   UNL     1      -6.382   7.726  74.561  1.00  0.00    -0.096 Cl 
HETATM   17  C   UNL     1      -8.572   6.634  73.427  1.00  0.00    -0.134 A  
HETATM   18  C   UNL     1      -9.448   6.439  72.362  1.00  0.00    -0.143 A  
HETATM   19 CL   UNL     1     -10.810   5.406  72.565  1.00  0.00    -0.289 Cl 
HETATM   20  C   UNL     1      -9.241   7.076  71.134  1.00  0.00    -0.157 A  
ENDBRANCH   9  13
TORSDOF 1
ENDMDL
MODEL      208
REMARK 921   NORMALIZED FREE ENERGY PREDICTED BY IDOCK:   -2.02 KCAL/MOL
REMARK 922        TOTAL FREE ENERGY PREDICTED BY IDOCK:   -2.33 KCAL/MOL
REMARK 923 INTER-LIGAND FREE ENERGY PREDICTED BY IDOCK:   -2.14 KCAL/MOL
REMARK 924 INTRA-LIGAND FREE ENERGY PREDICTED BY IDOCK:   -0.20 KCAL/MOL
REMARK 927      BINDING AFFINITY PREDICTED BY RF-SCORE:    0.00 PKD
ROOT
HETATM    1  O   UNL     1      -7.255   8.533  63.294  1.00  0.00    -0.089 OA 
HETATM    2  C   UNL     1      -6.702   7.593  64.088  1.00  0.00    -0.053 C  
HETATM    3  C   UNL     1      -7.094   7.691  65.516  1.00  0.00    -0.063 A  
HETATM    4  O   UNL     1      -5.967   6.716  63.670  1.00  0.00    -0.030 OA 
HETATM    5  C   UNL     1      -7.348   8.940  66.115  1.00  0.00    -0.090 A  
HETATM    6  C   UNL     1      -7.707   9.030  67.467  1.00  0.00    -0.096 A  
HETATM    7  C   UNL     1      -7.785   7.847  68.211  1.00  0.00    -0.121 A  
HETATM    8  N   UNL     1      -8.096   7.646  69.524  1.00  0.00    -0.125 NA 
HETATM    9  C   UNL     1      -8.003   6.337  69.677  1.00  0.00    -0.112 A  
HETATM   10  O   UNL     1      -7.645   5.653  68.540  1.00  0.00    -0.082 OA 
HETATM   11  C   UNL     1      -7.156   6.496  66.260  1.00  0.00    -0.067 A  
HETATM   12  C   UNL     1      -7.505   6.636  67.596  1.00  0.00    -0.097 A  
ENDROOT
BRANCH   9  13
HETATM   13  C   UNL     1      -8.251   5.564  70.890  1.00  0.00    -0.118 A  
HETATM   14  C   UNL     1      -9.517   5.655  71.493  1.00  0.00    -0.177 A  
HETATM   15  C   UNL     1      -9.817   4.917  72.637  1.00  0.00    -0.160 A  
HETATM   16 CL   UNL     1     -11.380   5.043  73.345  1.00  0.00    -0.393 Cl 
HETATM   17  C   UNL     1      -8.865   4.078  73.203  1.00  0.00    -0.101 A  
HETATM   18  C   UNL     1      -7.605   3.988  72.616  1.00  0.00    -0.073 A  
HETATM   19 CL   UNL     1      -6.421   2.949  73.310  1.00  0.00    -0.020 Cl 
HETATM   20  C   UNL     1      -7.291   4.723  71.469  1.00  0.00    -0.069 A  
ENDBRANCH   9  13
TORSDOF 1
ENDMDL
MODEL      209
REMARK 921   NORMALIZED FREE ENERGY PREDICTED BY IDOCK:   -1.98 KCAL/MOL
REMARK 922        TOTAL FREE ENERGY PREDICTED BY IDOCK:   -2.29 KCAL/MOL
REMARK 923 INTER-LIGAND FREE ENERGY PREDICTED BY IDOCK:   -2.09 KCAL/MOL
REMARK 924 INTRA-LIGAND FREE ENERGY PREDICTED BY IDOCK:   -0.20 KCAL/MOL
REMARK 927      BINDING AFFINITY PREDICTED BY RF-SCORE:    0.00 PKD
ROOT
HETATM    1  O   UNL     1      -7.967   5.805  73.259  1.00  0.00    -0.109 OA 
HETATM    2  C   UNL     1      -8.326   7.104  73.320  1.00  0.00    -0.116 C  
HETATM    3  C   UNL     1      -8.068   7.869  72.075  1.00  0.00    -0.141 A  
HETATM    4  O   UNL     1      -8.846   7.606  74.300  1.00  0.00    -0.238 OA 
HETATM    5  C   UNL     1      -6.966   7.567  71.252  1.00  0.00    -0.050 A  
HETATM    6  C   UNL     1      -6.719   8.298  70.082  1.00  0.00    -0.036 A  
HETATM    7  C   UNL     1      -7.584   9.352  69.766  1.00  0.00    -0.095 A  
HETATM    8  N   UNL     1      -7.575  10.220  68.713  1.00  0.00    -0.087 NA 
HETATM    9  C   UNL     1      -8.615  11.003  68.935  1.00  0.00    -0.119 A  
HETATM   10  O   UNL     1      -9.319  10.706  70.078  1.00  0.00     0.231 OA 
HETATM   11  C   UNL     1      -8.937   8.937  71.772  1.00  0.00    -0.203 A  
HETATM   12  C   UNL     1      -8.645   9.639  70.610  1.00  0.00     0.005 A  
ENDROOT
BRANCH   9  13
HETATM   13  C   UNL     1      -9.092  12.105  68.106  1.00  0.00    -0.196 A  
HETATM   14  C   UNL     1     -10.455  12.147  67.767  1.00  0.00    -0.222 A  
HETATM   15  C   UNL     1     -10.968  13.191  67.001  1.00  0.00    -0.269 A  
HETATM   16 CL   UNL     1     -12.644  13.219  66.613  1.00  0.00    -0.117 Cl 
HETATM   17  C   UNL     1     -10.136  14.211  66.554  1.00  0.00    -0.283 A  
HETATM   18  C   UNL     1      -8.782  14.173  66.877  1.00  0.00    -0.166 A  
HETATM   19 CL   UNL     1      -7.746  15.433  66.330  1.00  0.00     0.299 Cl 
HETATM   20  C   UNL     1      -8.255  13.130  67.646  1.00  0.00    -0.175 A  
ENDBRANCH   9  13
TORSDOF 1
ENDMDL
MODEL      210
REMARK 921   NORMALIZED FREE ENERGY PREDICTED BY IDOCK:   -1.90 KCAL/MOL
REMARK 922        TOTAL FREE ENERGY PREDICTED BY IDOCK:   -2.20 KCAL/MOL
REMARK 923 INTER-LIGAND FREE ENERGY PREDICTED BY IDOCK:   -2.00 KCAL/MOL
REMARK 924 INTRA-LIGAND FREE ENERGY PREDICTED BY IDOCK:   -0.20 KCAL/MOL
REMARK 927      BINDING AFFINITY PREDICTED BY RF-SCORE:    0.00 PKD
ROOT
HETATM    1  O   UNL     1      -7.665   6.593  74.320  1.00  0.00    -0.100 OA 
HETATM    2  C   UNL     1      -7.926   7.526  73.381  1.00  0.00    -0.118 C  
HETATM    3  C   UNL     1      -7.409   7.196  72.030  1.00  0.00    -0.081 A  
HETATM    4  O   UNL     1      -8.559   8.542  73.610  1.00  0.00    -0.325 OA 
HETATM    5  C   UNL     1      -6.215   6.469  71.868  1.00  0.00    -0.042 A  
HETATM    6  C   UNL     1      -5.723   6.168  70.590  1.00  0.00    -0.018 A  
HETATM    7  C   UNL     1      -6.440   6.630  69.480  1.00  0.00    -0.044 A  
HETATM    8  N   UNL     1      -6.190   6.493  68.145  1.00  0.00    -0.031 NA 
HETATM    9  C   UNL     1      -7.188   7.137  67.567  1.00  0.00    -0.090 A  
HETATM   10  O   UNL     1      -8.090   7.696  68.440  1.00  0.00    -0.121 OA 
HETATM   11  C   UNL     1      -8.130   7.678  70.919  1.00  0.00    -0.103 A  
HETATM   12  C   UNL     1      -7.599   7.365  69.675  1.00  0.00    -0.095 A  
ENDROOT
BRANCH   9  13
HETATM   13  C   UNL     1      -7.435   7.293  66.137  1.00  0.00    -0.083 A  
HETATM   14  C   UNL     1      -7.569   6.136  65.351  1.00  0.00    -0.087 A  
HETATM   15  C   UNL     1      -7.833   6.228  63.986  1.00  0.00    -0.116 A  
HETATM   16 CL   UNL     1      -8.002   4.792  63.053  1.00  0.00    -0.075 Cl 
HETATM   17  C   UNL     1      -7.964   7.469  63.376  1.00  0.00    -0.085 A  
HETATM   18  C   UNL     1      -7.823   8.622  64.146  1.00  0.00    -0.141 A  
HETATM   19 CL   UNL     1      -7.988  10.163  63.398  1.00  0.00    -0.157 Cl 
HETATM   20  C   UNL     1      -7.559   8.543  65.517  1.00  0.00    -0.090 A  
ENDBRANCH   9  13
TORSDOF 1
ENDMDL
MODEL      211
REMARK 921   NORMALIZED FREE ENERGY PREDICTED BY IDOCK:   -1.56 KCAL/MOL
REMARK 922        TOTAL FREE ENERGY PREDICTED BY IDOCK:   -1.84 KCAL/MOL
REMARK 923 INTER-LIGAND FREE ENERGY PREDICTED BY IDOCK:   -1.64 KCAL/MOL
REMARK 924 INTRA-LIGAND FREE ENERGY PREDICTED BY IDOCK:   -0.21 KCAL/MOL
REMARK 927      BINDING AFFINITY PREDICTED BY RF-SCORE:    0.00 PKD
ROOT
HETATM    1  O   UNL     1      -8.635   7.978  62.800  1.00  0.00    -0.035 OA 
HETATM    2  C   UNL     1      -8.066   7.054  63.602  1.00  0.00     0.006 C  
HETATM    3  C   UNL     1      -7.850   7.506  64.999  1.00  0.00    -0.127 A  
HETATM    4  O   UNL     1      -7.780   5.931  63.225  1.00  0.00    -0.080 OA 
HETATM    5  C   UNL     1      -7.548   8.850  65.288  1.00  0.00    -0.098 A  
HETATM    6  C   UNL     1      -7.335   9.271  66.608  1.00  0.00    -0.086 A  
HETATM    7  C   UNL     1      -7.407   8.315  67.627  1.00  0.00    -0.093 A  
HETATM    8  N   UNL     1      -7.235   8.443  68.976  1.00  0.00    -0.068 NA 
HETATM    9  C   UNL     1      -7.408   7.217  69.437  1.00  0.00    -0.090 A  
HETATM   10  O   UNL     1      -7.685   6.278  68.473  1.00  0.00    -0.097 OA 
HETATM   11  C   UNL     1      -7.911   6.532  66.017  1.00  0.00    -0.103 A  
HETATM   12  C   UNL     1      -7.681   6.995  67.305  1.00  0.00    -0.109 A  
ENDROOT
BRANCH   9  13
HETATM   13  C   UNL     1      -7.356   6.775  70.827  1.00  0.00    -0.078 A  
HETATM   14  C   UNL     1      -6.649   5.598  71.128  1.00  0.00    -0.044 A  
HETATM   15  C   UNL     1      -6.544   5.146  72.442  1.00  0.00    -0.052 A  
HETATM   16 CL   UNL     1      -5.663   3.708  72.780  1.00  0.00    -0.004 Cl 
HETATM   17  C   UNL     1      -7.142   5.852  73.479  1.00  0.00    -0.085 A  
HETATM   18  C   UNL     1      -7.853   7.014  73.188  1.00  0.00    -0.097 A  
HETATM   19 CL   UNL     1      -8.594   7.895  74.467  1.00  0.00    -0.195 Cl 
HETATM   20  C   UNL     1      -7.965   7.479  71.874  1.00  0.00    -0.100 A  
ENDBRANCH   9  13
TORSDOF 1
ENDMDL
MODEL      212
REMARK 921   NORMALIZED FREE ENERGY PREDICTED BY IDOCK:   -1.41 KCAL/MOL
REMARK 922        TOTAL FREE ENERGY PREDICTED BY IDOCK:   -1.69 KCAL/MOL
REMARK 923 INTER-LIGAND FREE ENERGY PREDICTED BY IDOCK:   -1.47 KCAL/MOL
REMARK 924 INTRA-LIGAND FREE ENERGY PREDICTED BY IDOCK:   -0.21 KCAL/MOL
REMARK 927      BINDING AFFINITY PREDICTED BY RF-SCORE:    0.00 PKD
ROOT
HETATM    1  O   UNL     1      -6.513   6.379  73.346  1.00  0.00    -0.064 OA 
HETATM    2  C   UNL     1      -7.459   6.470  72.389  1.00  0.00    -0.094 C  
HETATM    3  C   UNL     1      -7.000   6.068  71.036  1.00  0.00    -0.068 A  
HETATM    4  O   UNL     1      -8.603   6.823  72.614  1.00  0.00    -0.122 OA 
HETATM    5  C   UNL     1      -5.674   6.293  70.622  1.00  0.00    -0.019 A  
HETATM    6  C   UNL     1      -5.246   5.922  69.340  1.00  0.00    -0.004 A  
HETATM    7  C   UNL     1      -6.180   5.341  68.474  1.00  0.00    -0.031 A  
HETATM    8  N   UNL     1      -6.043   4.901  67.189  1.00  0.00    -0.030 NA 
HETATM    9  C   UNL     1      -7.248   4.462  66.872  1.00  0.00    -0.072 A  
HETATM   10  O   UNL     1      -8.183   4.586  67.872  1.00  0.00    -0.095 OA 
HETATM   11  C   UNL     1      -7.952   5.497  70.166  1.00  0.00    -0.090 A  
HETATM   12  C   UNL     1      -7.485   5.156  68.904  1.00  0.00    -0.069 A  
ENDROOT
BRANCH   9  13
HETATM   13  C   UNL     1      -7.671   3.860  65.612  1.00  0.00    -0.089 A  
HETATM   14  C   UNL     1      -6.697   3.253  64.801  1.00  0.00    -0.040 A  
HETATM   15  C   UNL     1      -7.051   2.639  63.601  1.00  0.00    -0.041 A  
HETATM   16 CL   UNL     1      -5.836   1.895  62.636  1.00  0.00    -0.008 Cl 
HETATM   17  C   UNL     1      -8.376   2.619  63.183  1.00  0.00    -0.081 A  
HETATM   18  C   UNL     1      -9.347   3.226  63.977  1.00  0.00    -0.128 A  
HETATM   19 CL   UNL     1     -10.990   3.203  63.468  1.00  0.00    -0.198 Cl 
HETATM   20  C   UNL     1      -9.005   3.846  65.183  1.00  0.00    -0.132 A  
ENDBRANCH   9  13
TORSDOF 1
ENDMDL
MODEL      213
REMARK 921   NORMALIZED FREE ENERGY PREDICTED BY IDOCK:   -1.08 KCAL/MOL
REMARK 922        TOTAL FREE ENERGY PREDICTED BY IDOCK:   -1.33 KCAL/MOL
REMARK 923 INTER-LIGAND FREE ENERGY PREDICTED BY IDOCK:   -1.12 KCAL/MOL
REMARK 924 INTRA-LIGAND FREE ENERGY PREDICTED BY IDOCK:   -0.22 KCAL/MOL
REMARK 927      BINDING AFFINITY PREDICTED BY RF-SCORE:    0.00 PKD
ROOT
HETATM    1  O   UNL     1      -6.470   6.382  73.376  1.00  0.00    -0.064 OA 
HETATM    2  C   UNL     1      -7.391   6.583  72.410  1.00  0.00    -0.090 C  
HETATM    3  C   UNL     1      -6.973   6.127  71.062  1.00  0.00    -0.068 A  
HETATM    4  O   UNL     1      -8.487   7.070  72.626  1.00  0.00    -0.112 OA 
HETATM    5  C   UNL     1      -5.626   6.192  70.659  1.00  0.00    -0.018 A  
HETATM    6  C   UNL     1      -5.235   5.769  69.380  1.00  0.00    -0.004 A  
HETATM    7  C   UNL     1      -6.225   5.303  68.508  1.00  0.00    -0.031 A  
HETATM    8  N   UNL     1      -6.131   4.847  67.224  1.00  0.00    -0.030 NA 
HETATM    9  C   UNL     1      -7.377   4.554  66.898  1.00  0.00    -0.081 A  
HETATM   10  O   UNL     1      -8.298   4.790  67.890  1.00  0.00    -0.102 OA 
HETATM   11  C   UNL     1      -7.979   5.671  70.185  1.00  0.00    -0.099 A  
HETATM   12  C   UNL     1      -7.546   5.275  68.927  1.00  0.00    -0.081 A  
ENDROOT
BRANCH   9  13
HETATM   13  C   UNL     1      -7.859   4.004  65.635  1.00  0.00    -0.090 A  
HETATM   14  C   UNL     1      -9.220   4.148  65.318  1.00  0.00    -0.152 A  
HETATM   15  C   UNL     1      -9.727   3.666  64.113  1.00  0.00    -0.172 A  
HETATM   16 CL   UNL     1     -11.397   3.868  63.751  1.00  0.00     0.296 Cl 
HETATM   17  C   UNL     1      -8.893   3.029  63.203  1.00  0.00    -0.092 A  
HETATM   18  C   UNL     1      -7.543   2.874  63.512  1.00  0.00    -0.063 A  
HETATM   19 CL   UNL     1      -6.503   2.089  62.388  1.00  0.00    -0.009 Cl 
HETATM   20  C   UNL     1      -7.022   3.354  64.718  1.00  0.00    -0.056 A  
ENDBRANCH   9  13
TORSDOF 1
ENDMDL
MODEL      214
REMARK 921   NORMALIZED FREE ENERGY PREDICTED BY IDOCK:   -0.35 KCAL/MOL
REMARK 922        TOTAL FREE ENERGY PREDICTED BY IDOCK:   -0.57 KCAL/MOL
REMARK 923 INTER-LIGAND FREE ENERGY PREDICTED BY IDOCK:   -0.36 KCAL/MOL
REMARK 924 INTRA-LIGAND FREE ENERGY PREDICTED BY IDOCK:   -0.21 KCAL/MOL
REMARK 927      BINDING AFFINITY PREDICTED BY RF-SCORE:    0.00 PKD
ROOT
HETATM    1  O   UNL     1     -13.804  15.345  70.808  1.00  0.00    -0.386 OA 
HETATM    2  C   UNL     1     -13.080  15.318  69.670  1.00  0.00     0.524 C  
HETATM    3  C   UNL     1     -12.263  14.092  69.493  1.00  0.00    -0.355 A  
HETATM    4  O   UNL     1     -13.112  16.209  68.839  1.00  0.00     1.200 OA 
HETATM    5  C   UNL     1     -11.705  13.425  70.600  1.00  0.00    -0.003 A  
HETATM    6  C   UNL     1     -10.926  12.273  70.429  1.00  0.00     1.377 A  
HETATM    7  C   UNL     1     -10.698  11.817  69.125  1.00  0.00    -0.124 A  
HETATM    8  N   UNL     1      -9.982  10.746  68.674  1.00  0.00    -0.174 NA 
HETATM    9  C   UNL     1     -10.105  10.810  67.360  1.00  0.00    -0.193 A  
HETATM   10  O   UNL     1     -10.863  11.864  66.909  1.00  0.00    -0.239 OA 
HETATM   11  C   UNL     1     -12.028  13.648  68.176  1.00  0.00    -0.390 A  
HETATM   12  C   UNL     1     -11.242  12.510  68.056  1.00  0.00    -0.270 A  
ENDROOT
BRANCH   9  13
HETATM   13  C   UNL     1      -9.552   9.892  66.370  1.00  0.00    -0.255 A  
HETATM   14  C   UNL     1      -9.244   8.581  66.771  1.00  0.00    -0.215 A  
HETATM   15  C   UNL     1      -8.739   7.656  65.860  1.00  0.00    -0.152 A  
HETATM   16 CL   UNL     1      -8.382   6.056  66.380  1.00  0.00    -0.115 Cl 
HETATM   17  C   UNL     1      -8.528   8.017  64.534  1.00  0.00     0.025 A  
HETATM   18  C   UNL     1      -8.823   9.317  64.130  1.00  0.00    -0.141 A  
HETATM   19 CL   UNL     1      -8.567   9.770  62.489  1.00  0.00    -0.177 Cl 
HETATM   20  C   UNL     1      -9.330  10.254  65.035  1.00  0.00    -0.290 A  
ENDBRANCH   9  13
TORSDOF 1
ENDMDL
MODEL      215
REMARK 921   NORMALIZED FREE ENERGY PREDICTED BY IDOCK:    2.47 KCAL/MOL
REMARK 922        TOTAL FREE ENERGY PREDICTED BY IDOCK:    2.42 KCAL/MOL
REMARK 923 INTER-LIGAND FREE ENERGY PREDICTED BY IDOCK:    2.62 KCAL/MOL
REMARK 924 INTRA-LIGAND FREE ENERGY PREDICTED BY IDOCK:   -0.20 KCAL/MOL
REMARK 927      BINDING AFFINITY PREDICTED BY RF-SCORE:    0.00 PKD
ROOT
HETATM    1  O   UNL     1     -11.201  18.696  72.202  1.00  0.00     2.559 OA 
HETATM    2  C   UNL     1     -11.768  17.611  72.769  1.00  0.00     1.856 C  
HETATM    3  C   UNL     1     -11.852  16.428  71.875  1.00  0.00    -0.433 A  
HETATM    4  O   UNL     1     -12.153  17.587  73.924  1.00  0.00     0.120 OA 
HETATM    5  C   UNL     1     -12.045  16.578  70.489  1.00  0.00     0.758 A  
HETATM    6  C   UNL     1     -12.134  15.459  69.649  1.00  0.00    -0.354 A  
HETATM    7  C   UNL     1     -12.049  14.189  70.231  1.00  0.00    -0.342 A  
HETATM    8  N   UNL     1     -12.114  12.949  69.662  1.00  0.00    -0.266 NA 
HETATM    9  C   UNL     1     -11.986  12.123  70.685  1.00  0.00    -0.137 A  
HETATM   10  O   UNL     1     -11.841  12.740  71.904  1.00  0.00     1.270 OA 
HETATM   11  C   UNL     1     -11.780  15.153  72.471  1.00  0.00    -0.475 A  
HETATM   12  C   UNL     1     -11.884  14.076  71.602  1.00  0.00     0.337 A  
ENDROOT
BRANCH   9  13
HETATM   13  C   UNL     1     -11.965  10.664  70.652  1.00  0.00    -0.466 A  
HETATM   14  C   UNL     1     -13.006   9.964  71.285  1.00  0.00    -0.488 A  
HETATM   15  C   UNL     1     -13.049   8.572  71.259  1.00  0.00    -0.143 A  
HETATM   16 CL   UNL     1     -14.344   7.746  72.035  1.00  0.00    -0.471 Cl 
HETATM   17  C   UNL     1     -12.058   7.849  70.607  1.00  0.00    -0.003 A  
HETATM   18  C   UNL     1     -11.017   8.534  69.984  1.00  0.00    -0.196 A  
HETATM   19 CL   UNL     1      -9.787   7.645  69.172  1.00  0.00    -0.168 Cl 
HETATM   20  C   UNL     1     -10.962   9.931  70.003  1.00  0.00    -0.338 A  
ENDBRANCH   9  13
TORSDOF 1
ENDMDL
MODEL      216
REMARK 921   NORMALIZED FREE ENERGY PREDICTED BY IDOCK:    4.99 KCAL/MOL
REMARK 922        TOTAL FREE ENERGY PREDICTED BY IDOCK:    5.09 KCAL/MOL
REMARK 923 INTER-LIGAND FREE ENERGY PREDICTED BY IDOCK:    5.28 KCAL/MOL
REMARK 924 INTRA-LIGAND FREE ENERGY PREDICTED BY IDOCK:   -0.19 KCAL/MOL
REMARK 927      BINDING AFFINITY PREDICTED BY RF-SCORE:    0.00 PKD
ROOT
HETATM    1  O   UNL     1     -11.248  18.833  72.178  1.00  0.00     2.797 OA 
HETATM    2  C   UNL     1     -11.712  17.776  72.876  1.00  0.00     2.005 C  
HETATM    3  C   UNL     1     -11.935  16.556  72.061  1.00  0.00    -0.270 A  
HETATM    4  O   UNL     1     -11.905  17.804  74.079  1.00  0.00     0.153 OA 
HETATM    5  C   UNL     1     -12.350  16.645  70.719  1.00  0.00     1.670 A  
HETATM    6  C   UNL     1     -12.570  15.490  69.955  1.00  0.00    -0.232 A  
HETATM    7  C   UNL     1     -12.388  14.246  70.571  1.00  0.00    -0.360 A  
HETATM    8  N   UNL     1     -12.539  12.983  70.076  1.00  0.00    -0.006 NA 
HETATM    9  C   UNL     1     -12.245  12.202  71.100  1.00  0.00    -0.014 A  
HETATM   10  O   UNL     1     -11.907  12.872  72.251  1.00  0.00     1.745 OA 
HETATM   11  C   UNL     1     -11.763  15.307  72.694  1.00  0.00    -0.518 A  
HETATM   12  C   UNL     1     -12.003  14.194  71.901  1.00  0.00     0.172 A  
ENDROOT
BRANCH   9  13
HETATM   13  C   UNL     1     -12.225  10.743  71.128  1.00  0.00    -0.457 A  
HETATM   14  C   UNL     1     -11.269  10.072  70.346  1.00  0.00    -0.393 A  
HETATM   15  C   UNL     1     -11.187   8.682  70.356  1.00  0.00    -0.218 A  
HETATM   16 CL   UNL     1      -9.998   7.892  69.395  1.00  0.00    -0.185 Cl 
HETATM   17  C   UNL     1     -12.054   7.931  71.141  1.00  0.00    -0.294 A  
HETATM   18  C   UNL     1     -13.011   8.587  71.913  1.00  0.00    -0.362 A  
HETATM   19 CL   UNL     1     -14.087   7.665  72.889  1.00  0.00     0.613 Cl 
HETATM   20  C   UNL     1     -13.103   9.983  71.911  1.00  0.00    -0.563 A  
ENDBRANCH   9  13
TORSDOF 1
ENDMDL
MODEL      217
REMARK 921   NORMALIZED FREE ENERGY PREDICTED BY IDOCK:    5.17 KCAL/MOL
REMARK 922        TOTAL FREE ENERGY PREDICTED BY IDOCK:    5.28 KCAL/MOL
REMARK 923 INTER-LIGAND FREE ENERGY PREDICTED BY IDOCK:    5.50 KCAL/MOL
REMARK 924 INTRA-LIGAND FREE ENERGY PREDICTED BY IDOCK:   -0.22 KCAL/MOL
REMARK 927      BINDING AFFINITY PREDICTED BY RF-SCORE:    0.00 PKD
ROOT
HETATM    1  O   UNL     1     -12.237  11.366  62.974  1.00  0.00    -0.066 OA 
HETATM    2  C   UNL     1     -12.535  12.625  63.353  1.00  0.00    -0.372 C  
HETATM    3  C   UNL     1     -12.432  12.866  64.814  1.00  0.00    -0.517 A  
HETATM    4  O   UNL     1     -12.836  13.504  62.564  1.00  0.00     0.176 OA 
HETATM    5  C   UNL     1     -12.736  11.850  65.740  1.00  0.00     1.936 A  
HETATM    6  C   UNL     1     -12.648  12.083  67.119  1.00  0.00     1.852 A  
HETATM    7  C   UNL     1     -12.272  13.361  67.551  1.00  0.00    -0.185 A  
HETATM    8  N   UNL     1     -12.118  13.860  68.812  1.00  0.00    -0.351 NA 
HETATM    9  C   UNL     1     -11.762  15.117  68.616  1.00  0.00    -0.341 A  
HETATM   10  O   UNL     1     -11.671  15.486  67.295  1.00  0.00    -0.110 OA 
HETATM   11  C   UNL     1     -12.066  14.159  65.239  1.00  0.00    -0.407 A  
HETATM   12  C   UNL     1     -12.003  14.345  66.613  1.00  0.00    -0.392 A  
ENDROOT
BRANCH   9  13
HETATM   13  C   UNL     1     -11.447  16.119  69.629  1.00  0.00    -0.290 A  
HETATM   14  C   UNL     1     -10.908  17.347  69.210  1.00  0.00     0.180 A  
HETATM   15  C   UNL     1     -10.614  18.349  70.132  1.00  0.00     1.679 A  
HETATM   16 CL   UNL     1      -9.964  19.846  69.586  1.00  0.00    -0.178 Cl 
HETATM   17  C   UNL     1     -10.848  18.150  71.487  1.00  0.00     2.932 A  
HETATM   18  C   UNL     1     -11.375  16.932  71.913  1.00  0.00     0.627 A  
HETATM   19 CL   UNL     1     -11.670  16.678  73.589  1.00  0.00    -0.194 Cl 
HETATM   20  C   UNL     1     -11.674  15.918  70.997  1.00  0.00    -0.473 A  
ENDBRANCH   9  13
TORSDOF 1
ENDMDL
MODEL      218
REMARK 921   NORMALIZED FREE ENERGY PREDICTED BY IDOCK:    8.40 KCAL/MOL
REMARK 922        TOTAL FREE ENERGY PREDICTED BY IDOCK:    8.69 KCAL/MOL
REMARK 923 INTER-LIGAND FREE ENERGY PREDICTED BY IDOCK:    8.90 KCAL/MOL
REMARK 924 INTRA-LIGAND FREE ENERGY PREDICTED BY IDOCK:   -0.21 KCAL/MOL
REMARK 927      BINDING AFFINITY PREDICTED BY RF-SCORE:    0.00 PKD
ROOT
HETATM    1  O   UNL     1     -12.125  18.271  73.222  1.00  0.00     2.512 OA 
HETATM    2  C   UNL     1     -12.276  16.932  73.298  1.00  0.00     0.091 C  
HETATM    3  C   UNL     1     -11.816  16.196  72.094  1.00  0.00    -0.626 A  
HETATM    4  O   UNL     1     -12.722  16.367  74.281  1.00  0.00    -0.718 OA 
HETATM    5  C   UNL     1     -11.928  16.762  70.810  1.00  0.00     1.174 A  
HETATM    6  C   UNL     1     -11.503  16.059  69.674  1.00  0.00    -0.326 A  
HETATM    7  C   UNL     1     -10.985  14.771  69.849  1.00  0.00    -0.199 A  
HETATM    8  N   UNL     1     -10.514  13.874  68.935  1.00  0.00    -0.221 NA 
HETATM    9  C   UNL     1     -10.168  12.828  69.663  1.00  0.00     1.095 A  
HETATM   10  O   UNL     1     -10.381  12.975  71.013  1.00  0.00     4.557 OA 
HETATM   11  C   UNL     1     -11.309  14.894  72.279  1.00  0.00    -0.003 A  
HETATM   12  C   UNL     1     -10.911  14.234  71.125  1.00  0.00     1.119 A  
ENDROOT
BRANCH   9  13
HETATM   13  C   UNL     1      -9.580  11.575  69.197  1.00  0.00     0.153 A  
HETATM   14  C   UNL     1      -8.579  10.975  69.978  1.00  0.00     1.290 A  
HETATM   15  C   UNL     1      -8.004   9.765  69.594  1.00  0.00    -0.150 A  
HETATM   16 CL   UNL     1      -6.787   9.050  70.578  1.00  0.00    -0.053 Cl 
HETATM   17  C   UNL     1      -8.411   9.132  68.426  1.00  0.00    -0.120 A  
HETATM   18  C   UNL     1      -9.397   9.725  67.640  1.00  0.00    -0.140 A  
HETATM   19 CL   UNL     1      -9.908   8.945  66.194  1.00  0.00    -0.347 Cl 
HETATM   20  C   UNL     1      -9.982  10.938  68.015  1.00  0.00    -0.188 A  
ENDBRANCH   9  13
TORSDOF 1
ENDMDL
MODEL      219
REMARK 921   NORMALIZED FREE ENERGY PREDICTED BY IDOCK:   11.17 KCAL/MOL
REMARK 922        TOTAL FREE ENERGY PREDICTED BY IDOCK:   11.63 KCAL/MOL
REMARK 923 INTER-LIGAND FREE ENERGY PREDICTED BY IDOCK:   11.83 KCAL/MOL
REMARK 924 INTRA-LIGAND FREE ENERGY PREDICTED BY IDOCK:   -0.20 KCAL/MOL
REMARK 927      BINDING AFFINITY PREDICTED BY RF-SCORE:    0.00 PKD
ROOT
HETATM    1  O   UNL     1      -8.574  21.030  63.798  1.00  0.00     1.969 OA 
HETATM    2  C   UNL     1      -7.659  20.228  64.380  1.00  0.00     1.392 C  
HETATM    3  C   UNL     1      -8.238  19.097  65.148  1.00  0.00     1.628 A  
HETATM    4  O   UNL     1      -6.458  20.394  64.265  1.00  0.00    -0.277 OA 
HETATM    5  C   UNL     1      -9.466  19.231  65.822  1.00  0.00     0.158 A  
HETATM    6  C   UNL     1     -10.005  18.164  66.556  1.00  0.00    -0.374 A  
HETATM    7  C   UNL     1      -9.276  16.971  66.618  1.00  0.00    -0.256 A  
HETATM    8  N   UNL     1      -9.554  15.796  67.256  1.00  0.00    -0.216 NA 
HETATM    9  C   UNL     1      -8.515  15.029  66.978  1.00  0.00    -0.229 A  
HETATM   10  O   UNL     1      -7.559  15.625  66.190  1.00  0.00     0.338 OA 
HETATM   11  C   UNL     1      -7.490  17.904  65.217  1.00  0.00     1.112 A  
HETATM   12  C   UNL     1      -8.058  16.881  65.963  1.00  0.00    -0.129 A  
ENDROOT
BRANCH   9  13
HETATM   13  C   UNL     1      -8.294  13.648  67.393  1.00  0.00    -0.198 A  
HETATM   14  C   UNL     1      -8.435  13.327  68.754  1.00  0.00     0.123 A  
HETATM   15  C   UNL     1      -8.262  12.019  69.200  1.00  0.00     0.395 A  
HETATM   16 CL   UNL     1      -8.452  11.658  70.872  1.00  0.00     6.377 Cl 
HETATM   17  C   UNL     1      -7.944  11.005  68.305  1.00  0.00    -0.124 A  
HETATM   18  C   UNL     1      -7.794  11.316  66.954  1.00  0.00    -0.156 A  
HETATM   19 CL   UNL     1      -7.402  10.065  65.839  1.00  0.00    -0.109 Cl 
HETATM   20  C   UNL     1      -7.964  12.625  66.494  1.00  0.00     0.406 A  
ENDBRANCH   9  13
TORSDOF 1
ENDMDL
MODEL      220
REMARK 921   NORMALIZED FREE ENERGY PREDICTED BY IDOCK:   18.54 KCAL/MOL
REMARK 922        TOTAL FREE ENERGY PREDICTED BY IDOCK:   19.43 KCAL/MOL
REMARK 923 INTER-LIGAND FREE ENERGY PREDICTED BY IDOCK:   19.64 KCAL/MOL
REMARK 924 INTRA-LIGAND FREE ENERGY PREDICTED BY IDOCK:   -0.21 KCAL/MOL
REMARK 927      BINDING AFFINITY PREDICTED BY RF-SCORE:    0.00 PKD
ROOT
HETATM    1  O   UNL     1     -13.569  16.552  74.062  1.00  0.00    -0.302 OA 
HETATM    2  C   UNL     1     -13.467  17.104  72.836  1.00  0.00     3.470 C  
HETATM    3  C   UNL     1     -12.692  16.294  71.863  1.00  0.00     0.037 A  
HETATM    4  O   UNL     1     -13.990  18.163  72.536  1.00  0.00    10.863 OA 
HETATM    5  C   UNL     1     -11.606  15.502  72.280  1.00  0.00    -0.554 A  
HETATM    6  C   UNL     1     -10.870  14.746  71.358  1.00  0.00     0.519 A  
HETATM    7  C   UNL     1     -11.230  14.819  70.007  1.00  0.00    -0.235 A  
HETATM    8  N   UNL     1     -10.690  14.207  68.913  1.00  0.00    -0.255 NA 
HETATM    9  C   UNL     1     -11.422  14.649  67.906  1.00  0.00    -0.329 A  
HETATM   10  O   UNL     1     -12.421  15.522  68.267  1.00  0.00     0.296 OA 
HETATM   11  C   UNL     1     -13.054  16.384  70.503  1.00  0.00     2.467 A  
HETATM   12  C   UNL     1     -12.289  15.627  69.627  1.00  0.00    -0.151 A  
ENDROOT
BRANCH   9  13
HETATM   13  C   UNL     1     -11.296  14.301  66.495  1.00  0.00    -0.351 A  
HETATM   14  C   UNL     1     -11.322  15.336  65.545  1.00  0.00    -0.220 A  
HETATM   15  C   UNL     1     -11.178  15.062  64.187  1.00  0.00     0.199 A  
HETATM   16 CL   UNL     1     -11.204  16.353  63.050  1.00  0.00     4.840 Cl 
HETATM   17  C   UNL     1     -11.009  13.755  63.746  1.00  0.00     0.416 A  
HETATM   18  C   UNL     1     -10.991  12.721  64.680  1.00  0.00    -0.327 A  
HETATM   19 CL   UNL     1     -10.778  11.100  64.143  1.00  0.00    -0.441 Cl 
HETATM   20  C   UNL     1     -11.134  12.983  66.046  1.00  0.00    -0.301 A  
ENDBRANCH   9  13
TORSDOF 1
ENDMDL
MODEL      221
REMARK 921   NORMALIZED FREE ENERGY PREDICTED BY IDOCK:   28.47 KCAL/MOL
REMARK 922        TOTAL FREE ENERGY PREDICTED BY IDOCK:   29.94 KCAL/MOL
REMARK 923 INTER-LIGAND FREE ENERGY PREDICTED BY IDOCK:   30.14 KCAL/MOL
REMARK 924 INTRA-LIGAND FREE ENERGY PREDICTED BY IDOCK:   -0.20 KCAL/MOL
REMARK 927      BINDING AFFINITY PREDICTED BY RF-SCORE:    0.00 PKD
ROOT
HETATM    1  O   UNL     1     -13.378  16.742  74.119  1.00  0.00    -0.185 OA 
HETATM    2  C   UNL     1     -13.079  16.498  72.827  1.00  0.00     0.486 C  
HETATM    3  C   UNL     1     -12.296  15.257  72.604  1.00  0.00    -0.482 A  
HETATM    4  O   UNL     1     -13.444  17.215  71.912  1.00  0.00     4.248 OA 
HETATM    5  C   UNL     1     -11.358  14.811  73.554  1.00  0.00     0.708 A  
HETATM    6  C   UNL     1     -10.612  13.644  73.336  1.00  0.00     8.339 A  
HETATM    7  C   UNL     1     -10.808  12.948  72.138  1.00  0.00     8.485 A  
HETATM    8  N   UNL     1     -10.220  11.809  71.669  1.00  0.00     8.251 NA 
HETATM    9  C   UNL     1     -10.783  11.623  70.488  1.00  0.00     1.875 A  
HETATM   10  O   UNL     1     -11.712  12.575  70.141  1.00  0.00    -0.280 OA 
HETATM   11  C   UNL     1     -12.490  14.571  71.388  1.00  0.00    -0.423 A  
HETATM   12  C   UNL     1     -11.722  13.429  71.213  1.00  0.00     0.898 A  
ENDROOT
BRANCH   9  13
HETATM   13  C   UNL     1     -10.539  10.532  69.549  1.00  0.00    -0.278 A  
HETATM   14  C   UNL     1      -9.961  10.837  68.305  1.00  0.00    -0.182 A  
HETATM   15  C   UNL     1      -9.681   9.830  67.383  1.00  0.00    -0.163 A  
HETATM   16 CL   UNL     1      -8.963  10.235  65.873  1.00  0.00    -0.171 Cl 
HETATM   17  C   UNL     1      -9.973   8.504  67.678  1.00  0.00    -0.253 A  
HETATM   18  C   UNL     1     -10.555   8.194  68.906  1.00  0.00    -0.140 A  
HETATM   19 CL   UNL     1     -10.917   6.554  69.280  1.00  0.00    -0.357 Cl 
HETATM   20  C   UNL     1     -10.840   9.195  69.840  1.00  0.00    -0.242 A  
ENDBRANCH   9  13
TORSDOF 1
ENDMDL
MODEL      222
REMARK 921   NORMALIZED FREE ENERGY PREDICTED BY IDOCK:   34.76 KCAL/MOL
REMARK 922        TOTAL FREE ENERGY PREDICTED BY IDOCK:   36.60 KCAL/MOL
REMARK 923 INTER-LIGAND FREE ENERGY PREDICTED BY IDOCK:   36.80 KCAL/MOL
REMARK 924 INTRA-LIGAND FREE ENERGY PREDICTED BY IDOCK:   -0.20 KCAL/MOL
REMARK 927      BINDING AFFINITY PREDICTED BY RF-SCORE:    0.00 PKD
ROOT
HETATM    1  O   UNL     1     -12.709  16.457  73.887  1.00  0.00    -0.610 OA 
HETATM    2  C   UNL     1     -12.623  15.877  72.672  1.00  0.00    -0.470 C  
HETATM    3  C   UNL     1     -12.218  14.450  72.704  1.00  0.00    -0.120 A  
HETATM    4  O   UNL     1     -12.884  16.461  71.636  1.00  0.00     0.058 OA 
HETATM    5  C   UNL     1     -11.333  13.968  73.687  1.00  0.00     2.840 A  
HETATM    6  C   UNL     1     -10.944  12.621  73.707  1.00  0.00    15.108 A  
HETATM    7  C   UNL     1     -11.442  11.774  72.710  1.00  0.00     8.501 A  
HETATM    8  N   UNL     1     -11.224  10.445  72.487  1.00  0.00     3.518 NA 
HETATM    9  C   UNL     1     -11.937  10.182  71.406  1.00  0.00    -0.358 A  
HETATM   10  O   UNL     1     -12.618  11.261  70.895  1.00  0.00    -0.363 OA 
HETATM   11  C   UNL     1     -12.713  13.608  71.687  1.00  0.00    -0.396 A  
HETATM   12  C   UNL     1     -12.291  12.287  71.742  1.00  0.00     0.418 A  
ENDROOT
BRANCH   9  13
HETATM   13  C   UNL     1     -12.087   8.896  70.732  1.00  0.00    -0.143 A  
HETATM   14  C   UNL     1     -11.768   8.816  69.366  1.00  0.00     0.823 A  
HETATM   15  C   UNL     1     -11.866   7.608  68.680  1.00  0.00     1.830 A  
HETATM   16 CL   UNL     1     -11.458   7.541  67.010  1.00  0.00     0.706 Cl 
HETATM   17  C   UNL     1     -12.287   6.458  69.337  1.00  0.00     1.860 A  
HETATM   18  C   UNL     1     -12.614   6.530  70.689  1.00  0.00     0.329 A  
HETATM   19 CL   UNL     1     -13.133   5.109  71.510  1.00  0.00     3.605 Cl 
HETATM   20  C   UNL     1     -12.519   7.737  71.389  1.00  0.00    -0.342 A  
ENDBRANCH   9  13
TORSDOF 1
ENDMDL
MODEL      223
REMARK 921   NORMALIZED FREE ENERGY PREDICTED BY IDOCK:   36.39 KCAL/MOL
REMARK 922        TOTAL FREE ENERGY PREDICTED BY IDOCK:   38.33 KCAL/MOL
REMARK 923 INTER-LIGAND FREE ENERGY PREDICTED BY IDOCK:   38.53 KCAL/MOL
REMARK 924 INTRA-LIGAND FREE ENERGY PREDICTED BY IDOCK:   -0.20 KCAL/MOL
REMARK 927      BINDING AFFINITY PREDICTED BY RF-SCORE:    0.00 PKD
ROOT
HETATM    1  O   UNL     1      -6.571   7.025  72.655  1.00  0.00    -0.060 OA 
HETATM    2  C   UNL     1      -7.639   7.567  72.036  1.00  0.00    -0.081 C  
HETATM    3  C   UNL     1      -7.845   7.093  70.645  1.00  0.00    -0.096 A  
HETATM    4  O   UNL     1      -8.393   8.357  72.576  1.00  0.00    -0.200 OA 
HETATM    5  C   UNL     1      -6.752   6.760  69.822  1.00  0.00    -0.050 A  
HETATM    6  C   UNL     1      -6.950   6.322  68.505  1.00  0.00    -0.080 A  
HETATM    7  C   UNL     1      -8.262   6.247  68.023  1.00  0.00    -0.115 A  
HETATM    8  N   UNL     1      -8.735   5.870  66.800  1.00  0.00    -0.116 NA 
HETATM    9  C   UNL     1     -10.045   6.004  66.910  1.00  0.00    -0.185 A  
HETATM   10  O   UNL     1     -10.472   6.450  68.137  1.00  0.00    -0.170 OA 
HETATM   11  C   UNL     1      -9.169   7.034  70.164  1.00  0.00    -0.152 A  
HETATM   12  C   UNL     1      -9.314   6.606  68.851  1.00  0.00    -0.128 A  
ENDROOT
BRANCH   9  13
HETATM   13  C   UNL     1     -11.056   5.716  65.897  1.00  0.00     0.628 A  
HETATM   14  C   UNL     1     -10.963   4.510  65.183  1.00  0.00    -0.017 A  
HETATM   15  C   UNL     1     -11.917   4.173  64.224  1.00  0.00     2.523 A  
HETATM   16 CL   UNL     1     -11.780   2.684  63.374  1.00  0.00     0.921 Cl 
HETATM   17  C   UNL     1     -12.978   5.029  63.956  1.00  0.00     7.893 A  
HETATM   18  C   UNL     1     -13.073   6.232  64.654  1.00  0.00    10.341 A  
HETATM   19 CL   UNL     1     -14.386   7.296  64.329  1.00  0.00    11.607 Cl 
HETATM   20  C   UNL     1     -12.123   6.581  65.618  1.00  0.00     6.070 A  
ENDBRANCH   9  13
TORSDOF 1
ENDMDL
MODEL      224
REMARK 921   NORMALIZED FREE ENERGY PREDICTED BY IDOCK:   38.78 KCAL/MOL
REMARK 922        TOTAL FREE ENERGY PREDICTED BY IDOCK:   40.86 KCAL/MOL
REMARK 923 INTER-LIGAND FREE ENERGY PREDICTED BY IDOCK:   41.08 KCAL/MOL
REMARK 924 INTRA-LIGAND FREE ENERGY PREDICTED BY IDOCK:   -0.22 KCAL/MOL
REMARK 927      BINDING AFFINITY PREDICTED BY RF-SCORE:    0.00 PKD
ROOT
HETATM    1  O   UNL     1     -12.592  19.689  72.740  1.00  0.00    14.144 OA 
HETATM    2  C   UNL     1     -12.368  18.359  72.759  1.00  0.00     7.565 C  
HETATM    3  C   UNL     1     -11.475  17.874  71.677  1.00  0.00     3.334 A  
HETATM    4  O   UNL     1     -12.833  17.617  73.606  1.00  0.00     1.529 OA 
HETATM    5  C   UNL     1     -11.469  18.487  70.411  1.00  0.00     5.234 A  
HETATM    6  C   UNL     1     -10.631  18.020  69.388  1.00  0.00     0.459 A  
HETATM    7  C   UNL     1      -9.818  16.913  69.655  1.00  0.00     0.174 A  
HETATM    8  N   UNL     1      -8.929  16.254  68.855  1.00  0.00    -0.238 NA 
HETATM    9  C   UNL     1      -8.462  15.288  69.625  1.00  0.00    -0.101 A  
HETATM   10  O   UNL     1      -8.989  15.264  70.894  1.00  0.00     1.394 OA 
HETATM   11  C   UNL     1     -10.669  16.749  71.951  1.00  0.00     2.190 A  
HETATM   12  C   UNL     1      -9.866  16.317  70.905  1.00  0.00     2.138 A  
ENDROOT
BRANCH   9  13
HETATM   13  C   UNL     1      -7.458  14.285  69.283  1.00  0.00    -0.022 A  
HETATM   14  C   UNL     1      -7.121  13.320  70.247  1.00  0.00     1.173 A  
HETATM   15  C   UNL     1      -6.189  12.324  69.963  1.00  0.00    -0.085 A  
HETATM   16 CL   UNL     1      -5.806  11.150  71.162  1.00  0.00     0.086 Cl 
HETATM   17  C   UNL     1      -5.574  12.269  68.719  1.00  0.00    -0.053 A  
HETATM   18  C   UNL     1      -5.895  13.227  67.760  1.00  0.00    -0.132 A  
HETATM   19 CL   UNL     1      -5.139  13.165  66.215  1.00  0.00     2.444 Cl 
HETATM   20  C   UNL     1      -6.829  14.232  68.032  1.00  0.00    -0.150 A  
ENDBRANCH   9  13
TORSDOF 1
ENDMDL
MODEL      225
REMARK 921   NORMALIZED FREE ENERGY PREDICTED BY IDOCK:   46.99 KCAL/MOL
REMARK 922        TOTAL FREE ENERGY PREDICTED BY IDOCK:   49.55 KCAL/MOL
REMARK 923 INTER-LIGAND FREE ENERGY PREDICTED BY IDOCK:   49.76 KCAL/MOL
REMARK 924 INTRA-LIGAND FREE ENERGY PREDICTED BY IDOCK:   -0.21 KCAL/MOL
REMARK 927      BINDING AFFINITY PREDICTED BY RF-SCORE:    0.00 PKD
ROOT
HETATM    1  O   UNL     1     -11.517  19.970  73.401  1.00  0.00     7.061 OA 
HETATM    2  C   UNL     1     -12.288  19.050  72.787  1.00  0.00    11.884 C  
HETATM    3  C   UNL     1     -11.543  18.117  71.906  1.00  0.00     4.308 A  
HETATM    4  O   UNL     1     -13.491  18.967  72.959  1.00  0.00    14.689 OA 
HETATM    5  C   UNL     1     -10.400  18.540  71.201  1.00  0.00     2.932 A  
HETATM    6  C   UNL     1      -9.704  17.659  70.362  1.00  0.00     2.360 A  
HETATM    7  C   UNL     1     -10.190  16.354  70.226  1.00  0.00     0.393 A  
HETATM    8  N   UNL     1      -9.724  15.309  69.481  1.00  0.00    -0.239 NA 
HETATM    9  C   UNL     1     -10.579  14.333  69.731  1.00  0.00     0.151 A  
HETATM   10  O   UNL     1     -11.590  14.668  70.600  1.00  0.00    -0.278 OA 
HETATM   11  C   UNL     1     -12.048  16.808  71.765  1.00  0.00     0.644 A  
HETATM   12  C   UNL     1     -11.332  15.976  70.915  1.00  0.00    -0.385 A  
ENDROOT
BRANCH   9  13
HETATM   13  C   UNL     1     -10.550  12.970  69.209  1.00  0.00     0.107 A  
HETATM   14  C   UNL     1      -9.302  12.350  69.030  1.00  0.00     0.402 A  
HETATM   15  C   UNL     1      -9.218  11.040  68.561  1.00  0.00    -0.177 A  
HETATM   16 CL   UNL     1      -7.675  10.305  68.362  1.00  0.00    -0.091 Cl 
HETATM   17  C   UNL     1     -10.370  10.325  68.259  1.00  0.00    -0.209 A  
HETATM   18  C   UNL     1     -11.612  10.936  68.426  1.00  0.00    -0.276 A  
HETATM   19 CL   UNL     1     -13.043  10.055  68.057  1.00  0.00     6.862 Cl 
HETATM   20  C   UNL     1     -11.710  12.249  68.896  1.00  0.00    -0.380 A  
ENDBRANCH   9  13
TORSDOF 1
ENDMDL
MODEL      226
REMARK 921   NORMALIZED FREE ENERGY PREDICTED BY IDOCK:   52.66 KCAL/MOL
REMARK 922        TOTAL FREE ENERGY PREDICTED BY IDOCK:   55.55 KCAL/MOL
REMARK 923 INTER-LIGAND FREE ENERGY PREDICTED BY IDOCK:   55.75 KCAL/MOL
REMARK 924 INTRA-LIGAND FREE ENERGY PREDICTED BY IDOCK:   -0.20 KCAL/MOL
REMARK 927      BINDING AFFINITY PREDICTED BY RF-SCORE:    0.00 PKD
ROOT
HETATM    1  O   UNL     1     -12.887  19.971  72.734  1.00  0.00    17.368 OA 
HETATM    2  C   UNL     1     -12.862  18.623  72.781  1.00  0.00    12.993 C  
HETATM    3  C   UNL     1     -12.121  17.986  71.664  1.00  0.00     7.045 A  
HETATM    4  O   UNL     1     -13.376  17.979  73.678  1.00  0.00     3.951 OA 
HETATM    5  C   UNL     1     -12.106  18.563  70.380  1.00  0.00    10.785 A  
HETATM    6  C   UNL     1     -11.414  17.953  69.325  1.00  0.00     2.360 A  
HETATM    7  C   UNL     1     -10.757  16.743  69.577  1.00  0.00    -0.273 A  
HETATM    8  N   UNL     1     -10.029  15.941  68.747  1.00  0.00    -0.211 NA 
HETATM    9  C   UNL     1      -9.661  14.933  69.518  1.00  0.00    -0.016 A  
HETATM   10  O   UNL     1     -10.103  15.017  70.817  1.00  0.00     0.242 OA 
HETATM   11  C   UNL     1     -11.475  16.760  71.924  1.00  0.00     0.230 A  
HETATM   12  C   UNL     1     -10.812  16.189  70.847  1.00  0.00     0.094 A  
ENDROOT
BRANCH   9  13
HETATM   13  C   UNL     1      -8.840  13.785  69.149  1.00  0.00     0.425 A  
HETATM   14  C   UNL     1      -7.579  14.020  68.577  1.00  0.00    -0.130 A  
HETATM   15  C   UNL     1      -6.743  12.960  68.231  1.00  0.00    -0.093 A  
HETATM   16 CL   UNL     1      -5.200  13.282  67.542  1.00  0.00    -0.012 Cl 
HETATM   17  C   UNL     1      -7.146  11.647  68.443  1.00  0.00    -0.083 A  
HETATM   18  C   UNL     1      -8.400  11.404  69.002  1.00  0.00     0.043 A  
HETATM   19 CL   UNL     1      -8.905   9.782  69.271  1.00  0.00    -0.156 Cl 
HETATM   20  C   UNL     1      -9.247  12.460  69.354  1.00  0.00     1.183 A  
ENDBRANCH   9  13
TORSDOF 1
ENDMDL
