MODEL        1
REMARK 921   NORMALIZED FREE ENERGY PREDICTED BY IDOCK:   -7.98 KCAL/MOL
REMARK 922        TOTAL FREE ENERGY PREDICTED BY IDOCK:  -13.14 KCAL/MOL
REMARK 923 INTER-LIGAND FREE ENERGY PREDICTED BY IDOCK:  -12.17 KCAL/MOL
REMARK 924 INTRA-LIGAND FREE ENERGY PREDICTED BY IDOCK:   -0.97 KCAL/MOL
REMARK 927      BINDING AFFINITY PREDICTED BY RF-SCORE:    0.00 PKD
ROOT
HETATM    1  C   UNL     1     -12.174  11.746  63.201  1.00  0.00    -0.156 C  
HETATM    2  O   UNL     1     -13.073  12.132  64.236  1.00  0.00    -0.723 OA 
ENDROOT
BRANCH   2   3
HETATM    3  C   UNL     1     -12.473  12.905  65.206  1.00  0.00    -0.493 A  
HETATM    4  C   UNL     1     -11.914  14.091  64.797  1.00  0.00    -0.432 A  
HETATM    5  C   UNL     1     -11.367  14.938  65.767  1.00  0.00    -0.314 A  
HETATM    6  C   UNL     1     -11.545  14.630  67.154  1.00  0.00    -0.394 A  
HETATM    7  C   UNL     1     -10.494  16.064  65.278  1.00  0.00    -0.384 C  
HETATM    8  C   UNL     1     -11.385  15.499  68.288  1.00  0.00    -0.357 A  
HETATM    9  C   UNL     1     -11.242  14.958  69.579  1.00  0.00    -0.277 A  
HETATM   10  C   UNL     1     -11.929  13.293  67.423  1.00  0.00    -0.335 A  
HETATM   11  C   UNL     1     -11.800  12.760  68.722  1.00  0.00    -0.307 A  
HETATM   12  N   UNL     1     -12.403  12.464  66.471  1.00  0.00    -0.396 NA 
HETATM   13  C   UNL     1     -11.418  13.591  69.774  1.00  0.00    -0.246 A  
BRANCH   8  14
HETATM   14  O   UNL     1     -11.403  16.879  68.227  1.00  0.00    -0.223 OA 
BRANCH  14  15
HETATM   15  C   UNL     1     -10.277  17.652  68.025  1.00  0.00    -0.362 A  
HETATM   16  C   UNL     1     -10.569  19.007  67.818  1.00  0.00    -0.488 A  
HETATM   17  C   UNL     1      -9.565  19.970  67.892  1.00  0.00    -0.488 A  
HETATM   18  F   UNL     1      -6.596  16.974  69.860  1.00  0.00    -0.227 F  
HETATM   19  F   UNL     1      -5.783  18.863  69.178  1.00  0.00    -0.196 F  
HETATM   20  C   UNL     1      -8.261  19.583  68.189  1.00  0.00    -0.352 A  
HETATM   21  C   UNL     1      -8.944  17.253  68.150  1.00  0.00    -0.254 A  
HETATM   22  C   UNL     1      -6.557  17.811  68.785  1.00  0.00    -0.227 C  
HETATM   23  F   UNL     1      -5.847  17.161  67.825  1.00  0.00    -0.112 F  
HETATM   24  C   UNL     1      -7.937  18.224  68.329  1.00  0.00    -0.312 A  
ENDBRANCH  14  15
ENDBRANCH   8  14
BRANCH   9  25
HETATM   25  O   UNL     1     -11.004  15.629  70.752  1.00  0.00    -0.324 OA 
HETATM   26  C   UNL     1     -12.079  15.756  71.674  1.00  0.00    -0.452 C  
ENDBRANCH   9  25
BRANCH  11  27
HETATM   27  N   UNL     1     -12.132  11.405  68.939  1.00  0.00    -0.469 NA 
HETATM   28  H   UNL     1     -13.112  11.125  68.925  1.00  0.00     0.000 HD 
BRANCH  27  29
HETATM   29  C   UNL     1     -11.105  10.391  69.186  1.00  0.00    -0.246 C  
HETATM   30  C   UNL     1      -9.756  10.987  68.774  1.00  0.00    -0.199 C  
BRANCH  29  31
HETATM   31  C   UNL     1     -11.062  10.006  70.676  1.00  0.00    -0.408 C  
BRANCH  31  32
HETATM   32  C   UNL     1     -12.407  10.088  71.407  1.00  0.00    -0.512 C  
BRANCH  32  33
HETATM   33  C   UNL     1     -12.853   8.809  72.121  1.00  0.00    -0.400 C  
HETATM   34  N   UNL     1     -14.054   9.017  72.932  1.00  0.00    -1.110 NA 
HETATM   35  H1  UNL     1     -14.352   8.165  73.407  1.00  0.00     0.000 HD 
HETATM   36  H2  UNL     1     -14.812   9.411  72.374  1.00  0.00     0.000 HD 
ENDBRANCH  32  33
ENDBRANCH  31  32
ENDBRANCH  29  31
ENDBRANCH  27  29
ENDBRANCH  11  27
ENDBRANCH   2   3
TORSDOF 9
ENDMDL
MODEL        2
REMARK 921   NORMALIZED FREE ENERGY PREDICTED BY IDOCK:   -7.96 KCAL/MOL
REMARK 922        TOTAL FREE ENERGY PREDICTED BY IDOCK:  -13.12 KCAL/MOL
REMARK 923 INTER-LIGAND FREE ENERGY PREDICTED BY IDOCK:  -12.22 KCAL/MOL
REMARK 924 INTRA-LIGAND FREE ENERGY PREDICTED BY IDOCK:   -0.90 KCAL/MOL
REMARK 927      BINDING AFFINITY PREDICTED BY RF-SCORE:    0.00 PKD
ROOT
HETATM    1  C   UNL     1     -13.233   9.548  71.341  1.00  0.00    -0.372 C  
HETATM    2  O   UNL     1     -12.249  10.519  71.687  1.00  0.00    -0.331 OA 
ENDROOT
BRANCH   2   3
HETATM    3  C   UNL     1     -12.304  11.644  70.893  1.00  0.00    -0.336 A  
HETATM    4  C   UNL     1     -12.767  12.795  71.481  1.00  0.00    -0.330 A  
HETATM    5  C   UNL     1     -12.760  13.975  70.727  1.00  0.00    -0.396 A  
HETATM    6  C   UNL     1     -12.131  13.987  69.441  1.00  0.00    -0.386 A  
HETATM    7  C   UNL     1     -13.549  15.138  71.271  1.00  0.00    -0.559 C  
HETATM    8  C   UNL     1     -11.707  15.122  68.666  1.00  0.00    -0.341 A  
HETATM    9  C   UNL     1     -11.447  14.981  67.291  1.00  0.00    -0.304 A  
HETATM   10  C   UNL     1     -11.906  12.707  68.875  1.00  0.00    -0.302 A  
HETATM   11  C   UNL     1     -11.629  12.572  67.500  1.00  0.00    -0.361 A  
HETATM   12  N   UNL     1     -11.970  11.569  69.596  1.00  0.00    -0.332 NA 
HETATM   13  C   UNL     1     -11.444  13.712  66.719  1.00  0.00    -0.370 A  
BRANCH   8  14
HETATM   14  O   UNL     1     -11.481  16.382  69.183  1.00  0.00    -0.288 OA 
BRANCH  14  15
HETATM   15  C   UNL     1     -10.364  17.140  68.893  1.00  0.00    -0.348 A  
HETATM   16  C   UNL     1      -9.161  16.481  69.178  1.00  0.00    -0.184 A  
HETATM   17  C   UNL     1      -7.951  16.963  68.684  1.00  0.00    -0.256 A  
HETATM   18  F   UNL     1     -10.107  19.839  65.726  1.00  0.00    -0.471 F  
HETATM   19  F   UNL     1      -7.973  20.108  65.983  1.00  0.00    -0.309 F  
HETATM   20  C   UNL     1      -7.940  18.104  67.887  1.00  0.00    -0.249 A  
HETATM   21  C   UNL     1     -10.327  18.376  68.242  1.00  0.00    -0.384 A  
HETATM   22  C   UNL     1      -9.140  19.974  66.676  1.00  0.00    -0.363 C  
HETATM   23  F   UNL     1      -9.362  21.175  67.273  1.00  0.00    -0.521 F  
HETATM   24  C   UNL     1      -9.125  18.818  67.650  1.00  0.00    -0.304 A  
ENDBRANCH  14  15
ENDBRANCH   8  14
BRANCH   9  25
HETATM   25  O   UNL     1     -11.112  15.962  66.393  1.00  0.00    -0.182 OA 
HETATM   26  C   UNL     1     -10.015  15.720  65.522  1.00  0.00    -0.306 C  
ENDBRANCH   9  25
BRANCH  11  27
HETATM   27  N   UNL     1     -11.474  11.277  66.959  1.00  0.00    -0.470 NA 
HETATM   28  H   UNL     1     -12.206  10.584  67.112  1.00  0.00     0.000 HD 
BRANCH  27  29
HETATM   29  C   UNL     1     -10.290  10.905  66.184  1.00  0.00    -0.248 C  
HETATM   30  C   UNL     1      -9.761   9.584  66.750  1.00  0.00    -0.254 C  
BRANCH  29  31
HETATM   31  C   UNL     1     -10.644  10.720  64.696  1.00  0.00    -0.269 C  
BRANCH  31  32
HETATM   32  C   UNL     1     -10.775  12.020  63.894  1.00  0.00    -0.450 C  
BRANCH  32  33
HETATM   33  C   UNL     1     -12.188  12.361  63.411  1.00  0.00    -0.523 C  
HETATM   34  N   UNL     1     -12.405  13.806  63.310  1.00  0.00    -1.124 NA 
HETATM   35  H1  UNL     1     -13.346  14.033  62.988  1.00  0.00     0.000 HD 
HETATM   36  H2  UNL     1     -11.698  14.244  62.720  1.00  0.00     0.000 HD 
ENDBRANCH  32  33
ENDBRANCH  31  32
ENDBRANCH  29  31
ENDBRANCH  27  29
ENDBRANCH  11  27
ENDBRANCH   2   3
TORSDOF 9
ENDMDL
MODEL        3
REMARK 921   NORMALIZED FREE ENERGY PREDICTED BY IDOCK:   -7.95 KCAL/MOL
REMARK 922        TOTAL FREE ENERGY PREDICTED BY IDOCK:  -13.10 KCAL/MOL
REMARK 923 INTER-LIGAND FREE ENERGY PREDICTED BY IDOCK:  -11.31 KCAL/MOL
REMARK 924 INTRA-LIGAND FREE ENERGY PREDICTED BY IDOCK:   -1.79 KCAL/MOL
REMARK 927      BINDING AFFINITY PREDICTED BY RF-SCORE:    0.00 PKD
ROOT
HETATM    1  C   UNL     1     -12.285  11.910  63.238  1.00  0.00    -0.374 C  
HETATM    2  O   UNL     1     -13.106  12.189  64.368  1.00  0.00    -0.740 OA 
ENDROOT
BRANCH   2   3
HETATM    3  C   UNL     1     -12.493  13.015  65.284  1.00  0.00    -0.499 A  
HETATM    4  C   UNL     1     -11.964  14.188  64.805  1.00  0.00    -0.441 A  
HETATM    5  C   UNL     1     -11.406  15.089  65.719  1.00  0.00    -0.279 A  
HETATM    6  C   UNL     1     -11.543  14.845  67.124  1.00  0.00    -0.327 A  
HETATM    7  C   UNL     1     -10.564  16.203  65.155  1.00  0.00    -0.366 C  
HETATM    8  C   UNL     1     -11.367  15.769  68.211  1.00  0.00    -0.354 A  
HETATM    9  C   UNL     1     -11.183  15.292  69.521  1.00  0.00    -0.281 A  
HETATM   10  C   UNL     1     -11.899  13.516  67.465  1.00  0.00    -0.368 A  
HETATM   11  C   UNL     1     -11.727  13.047  68.783  1.00  0.00    -0.324 A  
HETATM   12  N   UNL     1     -12.383  12.636  66.566  1.00  0.00    -0.428 NA 
HETATM   13  C   UNL     1     -11.332  13.933  69.785  1.00  0.00    -0.219 A  
BRANCH   8  14
HETATM   14  O   UNL     1     -11.409  17.144  68.085  1.00  0.00    -0.121 OA 
BRANCH  14  15
HETATM   15  C   UNL     1     -10.316  17.916  67.750  1.00  0.00    -0.387 A  
HETATM   16  C   UNL     1     -10.664  19.183  67.262  1.00  0.00    -0.585 A  
HETATM   17  C   UNL     1      -9.709  20.191  67.156  1.00  0.00    -0.576 A  
HETATM   18  F   UNL     1      -6.661  17.818  69.753  1.00  0.00    -0.238 F  
HETATM   19  F   UNL     1      -5.918  19.568  68.713  1.00  0.00    -0.229 F  
HETATM   20  C   UNL     1      -8.397  19.941  67.550  1.00  0.00    -0.366 A  
HETATM   21  C   UNL     1      -8.969  17.620  67.979  1.00  0.00    -0.264 A  
HETATM   22  C   UNL     1      -6.630  18.419  68.530  1.00  0.00    -0.236 C  
HETATM   23  F   UNL     1      -5.863  17.624  67.738  1.00  0.00    -0.132 F  
HETATM   24  C   UNL     1      -8.014  18.658  67.973  1.00  0.00    -0.294 A  
ENDBRANCH  14  15
ENDBRANCH   8  14
BRANCH   9  25
HETATM   25  O   UNL     1     -10.925  16.021  70.654  1.00  0.00    -0.321 OA 
HETATM   26  C   UNL     1     -11.922  16.048  71.667  1.00  0.00    -0.499 C  
ENDBRANCH   9  25
BRANCH  11  27
HETATM   27  N   UNL     1     -12.032  11.699  69.074  1.00  0.00    -0.326 NA 
HETATM   28  H   UNL     1     -12.596  11.164  68.414  1.00  0.00     0.000 HD 
BRANCH  27  29
HETATM   29  C   UNL     1     -11.558  11.050  70.297  1.00  0.00    -0.322 C  
HETATM   30  C   UNL     1     -12.787  10.581  71.079  1.00  0.00    -0.502 C  
BRANCH  29  31
HETATM   31  C   UNL     1     -10.668   9.838  69.964  1.00  0.00    -0.326 C  
BRANCH  31  32
HETATM   32  C   UNL     1      -9.327  10.178  69.305  1.00  0.00    -0.227 C  
BRANCH  32  33
HETATM   33  C   UNL     1      -9.164   9.712  67.855  1.00  0.00    -0.124 C  
HETATM   34  N   UNL     1     -10.359   9.976  67.051  1.00  0.00    -0.236 NA 
HETATM   35  H1  UNL     1     -10.251   9.665  66.085  1.00  0.00     0.000 HD 
HETATM   36  H2  UNL     1     -10.623  10.960  67.094  1.00  0.00     0.000 HD 
ENDBRANCH  32  33
ENDBRANCH  31  32
ENDBRANCH  29  31
ENDBRANCH  27  29
ENDBRANCH  11  27
ENDBRANCH   2   3
TORSDOF 9
ENDMDL
MODEL        4
REMARK 921   NORMALIZED FREE ENERGY PREDICTED BY IDOCK:   -7.80 KCAL/MOL
REMARK 922        TOTAL FREE ENERGY PREDICTED BY IDOCK:  -12.87 KCAL/MOL
REMARK 923 INTER-LIGAND FREE ENERGY PREDICTED BY IDOCK:  -10.62 KCAL/MOL
REMARK 924 INTRA-LIGAND FREE ENERGY PREDICTED BY IDOCK:   -2.25 KCAL/MOL
REMARK 927      BINDING AFFINITY PREDICTED BY RF-SCORE:    0.00 PKD
ROOT
HETATM    1  C   UNL     1      -5.368  15.742  70.292  1.00  0.00    -0.146 C  
HETATM    2  O   UNL     1      -6.183  16.473  69.379  1.00  0.00    -0.172 OA 
ENDROOT
BRANCH   2   3
HETATM    3  C   UNL     1      -7.109  15.680  68.737  1.00  0.00    -0.127 A  
HETATM    4  C   UNL     1      -7.066  14.334  69.004  1.00  0.00    -0.116 A  
HETATM    5  C   UNL     1      -8.042  13.510  68.432  1.00  0.00    -0.145 A  
HETATM    6  C   UNL     1      -9.139  14.102  67.727  1.00  0.00    -0.190 A  
HETATM    7  C   UNL     1      -7.797  12.025  68.480  1.00  0.00    -0.129 C  
HETATM    8  C   UNL     1     -10.397  13.503  67.371  1.00  0.00    -0.237 A  
HETATM    9  C   UNL     1     -11.203  14.089  66.379  1.00  0.00    -0.319 A  
HETATM   10  C   UNL     1      -8.940  15.450  67.338  1.00  0.00    -0.191 A  
HETATM   11  C   UNL     1      -9.761  16.039  66.355  1.00  0.00    -0.284 A  
HETATM   12  N   UNL     1      -7.961  16.221  67.853  1.00  0.00    -0.144 NA 
HETATM   13  C   UNL     1     -10.857  15.334  65.859  1.00  0.00    -0.345 A  
BRANCH   8  14
HETATM   14  O   UNL     1     -10.928  12.380  67.974  1.00  0.00    -0.207 OA 
BRANCH  14  15
HETATM   15  C   UNL     1     -11.764  12.421  69.072  1.00  0.00    -0.323 A  
HETATM   16  C   UNL     1     -12.137  11.151  69.529  1.00  0.00    -0.396 A  
HETATM   17  C   UNL     1     -12.724  10.989  70.782  1.00  0.00    -0.414 A  
HETATM   18  F   UNL     1     -11.568  15.311  72.071  1.00  0.00    -0.391 F  
HETATM   19  F   UNL     1     -12.951  14.237  73.349  1.00  0.00    -0.587 F  
HETATM   20  C   UNL     1     -12.929  12.102  71.594  1.00  0.00    -0.427 A  
HETATM   21  C   UNL     1     -12.129  13.548  69.813  1.00  0.00    -0.381 A  
HETATM   22  C   UNL     1     -12.720  14.582  72.049  1.00  0.00    -0.338 C  
HETATM   23  F   UNL     1     -13.709  15.449  71.709  1.00  0.00    -0.436 F  
HETATM   24  C   UNL     1     -12.628  13.390  71.124  1.00  0.00    -0.430 A  
ENDBRANCH  14  15
ENDBRANCH   8  14
BRANCH   9  25
HETATM   25  O   UNL     1     -12.384  13.617  65.864  1.00  0.00    -0.438 OA 
HETATM   26  C   UNL     1     -12.316  12.706  64.775  1.00  0.00    -0.489 C  
ENDBRANCH   9  25
BRANCH  11  27
HETATM   27  N   UNL     1      -9.493  17.363  65.946  1.00  0.00    -0.529 NA 
HETATM   28  H   UNL     1      -8.654  17.555  65.400  1.00  0.00     0.000 HD 
BRANCH  27  29
HETATM   29  C   UNL     1     -10.389  18.469  66.287  1.00  0.00    -0.427 C  
HETATM   30  C   UNL     1     -10.736  18.345  67.773  1.00  0.00    -0.371 C  
BRANCH  29  31
HETATM   31  C   UNL     1      -9.707  19.826  66.031  1.00  0.00    -0.455 C  
BRANCH  31  32
HETATM   32  C   UNL     1      -9.052  20.467  67.261  1.00  0.00    -0.500 C  
BRANCH  32  33
HETATM   33  C   UNL     1      -7.525  20.366  67.327  1.00  0.00    -0.321 C  
HETATM   34  N   UNL     1      -7.071  18.992  67.553  1.00  0.00    -0.209 NA 
HETATM   35  H1  UNL     1      -6.054  18.925  67.597  1.00  0.00     0.000 HD 
HETATM   36  H2  UNL     1      -7.452  18.357  66.853  1.00  0.00     0.000 HD 
ENDBRANCH  32  33
ENDBRANCH  31  32
ENDBRANCH  29  31
ENDBRANCH  27  29
ENDBRANCH  11  27
ENDBRANCH   2   3
TORSDOF 9
ENDMDL
MODEL        5
REMARK 921   NORMALIZED FREE ENERGY PREDICTED BY IDOCK:   -7.75 KCAL/MOL
REMARK 922        TOTAL FREE ENERGY PREDICTED BY IDOCK:  -12.79 KCAL/MOL
REMARK 923 INTER-LIGAND FREE ENERGY PREDICTED BY IDOCK:  -11.58 KCAL/MOL
REMARK 924 INTRA-LIGAND FREE ENERGY PREDICTED BY IDOCK:   -1.21 KCAL/MOL
REMARK 927      BINDING AFFINITY PREDICTED BY RF-SCORE:    0.00 PKD
ROOT
HETATM    1  C   UNL     1     -13.611  15.629  72.964  1.00  0.00    -0.532 C  
HETATM    2  O   UNL     1     -12.350  16.118  72.516  1.00  0.00    -0.460 OA 
ENDROOT
BRANCH   2   3
HETATM    3  C   UNL     1     -12.005  15.646  71.268  1.00  0.00    -0.415 A  
HETATM    4  C   UNL     1     -12.303  14.333  70.998  1.00  0.00    -0.431 A  
HETATM    5  C   UNL     1     -12.041  13.843  69.714  1.00  0.00    -0.404 A  
HETATM    6  C   UNL     1     -11.628  14.748  68.683  1.00  0.00    -0.345 A  
HETATM    7  C   UNL     1     -12.079  12.348  69.531  1.00  0.00    -0.250 C  
HETATM    8  C   UNL     1     -11.639  14.544  67.260  1.00  0.00    -0.385 A  
HETATM    9  C   UNL     1     -10.873  15.373  66.421  1.00  0.00    -0.303 A  
HETATM   10  C   UNL     1     -11.149  15.999  69.146  1.00  0.00    -0.317 A  
HETATM   11  C   UNL     1     -10.395  16.834  68.297  1.00  0.00    -0.319 A  
HETATM   12  N   UNL     1     -11.357  16.440  70.403  1.00  0.00    -0.296 NA 
HETATM   13  C   UNL     1     -10.233  16.488  66.956  1.00  0.00    -0.288 A  
BRANCH   8  14
HETATM   14  O   UNL     1     -12.403  13.594  66.611  1.00  0.00    -0.397 OA 
BRANCH  14  15
HETATM   15  C   UNL     1     -11.874  12.599  65.813  1.00  0.00    -0.444 A  
HETATM   16  C   UNL     1     -12.429  12.570  64.527  1.00  0.00    -0.539 A  
HETATM   17  C   UNL     1     -11.822  11.842  63.506  1.00  0.00    -0.560 A  
HETATM   18  F   UNL     1      -7.914  11.306  65.978  1.00  0.00    -0.157 F  
HETATM   19  F   UNL     1      -8.109  10.123  64.173  1.00  0.00    -0.142 F  
HETATM   20  C   UNL     1     -10.644  11.148  63.764  1.00  0.00    -0.422 A  
HETATM   21  C   UNL     1     -10.794  11.764  66.109  1.00  0.00    -0.336 A  
HETATM   22  C   UNL     1      -8.764  10.470  65.318  1.00  0.00    -0.188 C  
HETATM   23  F   UNL     1      -8.839   9.338  66.066  1.00  0.00    -0.140 F  
HETATM   24  C   UNL     1     -10.112  11.106  65.063  1.00  0.00    -0.338 A  
ENDBRANCH  14  15
ENDBRANCH   8  14
BRANCH   9  25
HETATM   25  O   UNL     1     -10.706  15.274  65.063  1.00  0.00    -0.400 OA 
HETATM   26  C   UNL     1     -11.538  16.072  64.232  1.00  0.00    -0.138 C  
ENDBRANCH   9  25
BRANCH  11  27
HETATM   27  N   UNL     1      -9.880  18.044  68.811  1.00  0.00    -0.361 NA 
HETATM   28  H   UNL     1     -10.075  18.295  69.780  1.00  0.00     0.000 HD 
BRANCH  27  29
HETATM   29  C   UNL     1      -9.074  18.947  67.989  1.00  0.00    -0.304 C  
HETATM   30  C   UNL     1      -9.936  20.169  67.660  1.00  0.00    -0.560 C  
BRANCH  29  31
HETATM   31  C   UNL     1      -7.812  19.399  68.747  1.00  0.00    -0.392 C  
BRANCH  31  32
HETATM   32  C   UNL     1      -6.929  20.404  67.999  1.00  0.00    -0.317 C  
BRANCH  32  33
HETATM   33  C   UNL     1      -6.434  19.954  66.621  1.00  0.00    -0.193 C  
HETATM   34  N   UNL     1      -6.878  20.852  65.553  1.00  0.00    -0.502 NA 
HETATM   35  H1  UNL     1      -6.549  20.553  64.635  1.00  0.00     0.000 HD 
HETATM   36  H2  UNL     1      -6.607  21.816  65.745  1.00  0.00     0.000 HD 
ENDBRANCH  32  33
ENDBRANCH  31  32
ENDBRANCH  29  31
ENDBRANCH  27  29
ENDBRANCH  11  27
ENDBRANCH   2   3
TORSDOF 9
ENDMDL
MODEL        6
REMARK 921   NORMALIZED FREE ENERGY PREDICTED BY IDOCK:   -7.74 KCAL/MOL
REMARK 922        TOTAL FREE ENERGY PREDICTED BY IDOCK:  -12.78 KCAL/MOL
REMARK 923 INTER-LIGAND FREE ENERGY PREDICTED BY IDOCK:  -10.58 KCAL/MOL
REMARK 924 INTRA-LIGAND FREE ENERGY PREDICTED BY IDOCK:   -2.20 KCAL/MOL
REMARK 927      BINDING AFFINITY PREDICTED BY RF-SCORE:    0.00 PKD
ROOT
HETATM    1  C   UNL     1      -8.209   8.346  66.773  1.00  0.00    -0.102 C  
HETATM    2  O   UNL     1      -9.558   8.363  67.233  1.00  0.00    -0.149 OA 
ENDROOT
BRANCH   2   3
HETATM    3  C   UNL     1      -9.887   9.534  67.880  1.00  0.00    -0.156 A  
HETATM    4  C   UNL     1      -9.162  10.652  67.548  1.00  0.00    -0.151 A  
HETATM    5  C   UNL     1      -9.523  11.874  68.126  1.00  0.00    -0.195 A  
HETATM    6  C   UNL     1     -10.719  11.959  68.909  1.00  0.00    -0.236 A  
HETATM    7  C   UNL     1      -8.539  13.009  67.997  1.00  0.00    -0.186 C  
HETATM    8  C   UNL     1     -11.450  13.135  69.295  1.00  0.00    -0.291 A  
HETATM    9  C   UNL     1     -12.378  13.076  70.351  1.00  0.00    -0.277 A  
HETATM   10  C   UNL     1     -11.231  10.714  69.351  1.00  0.00    -0.270 A  
HETATM   11  C   UNL     1     -12.173  10.660  70.398  1.00  0.00    -0.345 A  
HETATM   12  N   UNL     1     -10.837   9.536  68.828  1.00  0.00    -0.184 NA 
HETATM   13  C   UNL     1     -12.702  11.843  70.911  1.00  0.00    -0.301 A  
BRANCH   8  14
HETATM   14  O   UNL     1     -11.351  14.361  68.666  1.00  0.00    -0.246 OA 
BRANCH  14  15
HETATM   15  C   UNL     1     -11.468  14.534  67.302  1.00  0.00    -0.365 A  
HETATM   16  C   UNL     1     -10.859  15.708  66.841  1.00  0.00    -0.282 A  
HETATM   17  C   UNL     1     -10.620  15.900  65.482  1.00  0.00    -0.419 A  
HETATM   18  F   UNL     1     -11.468  11.424  64.526  1.00  0.00    -0.354 F  
HETATM   19  F   UNL     1     -11.310  12.778  62.842  1.00  0.00    -0.414 F  
HETATM   20  C   UNL     1     -10.978  14.907  64.574  1.00  0.00    -0.216 A  
HETATM   21  C   UNL     1     -11.981  13.622  66.375  1.00  0.00    -0.466 A  
HETATM   22  C   UNL     1     -11.921  12.618  64.050  1.00  0.00    -0.451 C  
HETATM   23  F   UNL     1     -13.242  12.441  63.782  1.00  0.00    -0.344 F  
HETATM   24  C   UNL     1     -11.655  13.756  65.009  1.00  0.00    -0.350 A  
ENDBRANCH  14  15
ENDBRANCH   8  14
BRANCH   9  25
HETATM   25  O   UNL     1     -13.099  14.107  70.897  1.00  0.00    -0.334 OA 
HETATM   26  C   UNL     1     -13.741  13.880  72.145  1.00  0.00    -0.525 C  
ENDBRANCH   9  25
BRANCH  11  27
HETATM   27  N   UNL     1     -12.613   9.399  70.856  1.00  0.00    -0.489 NA 
HETATM   28  H   UNL     1     -12.984   8.728  70.183  1.00  0.00     0.000 HD 
BRANCH  27  29
HETATM   29  C   UNL     1     -12.553   9.030  72.271  1.00  0.00    -0.375 C  
HETATM   30  C   UNL     1     -13.962   8.615  72.703  1.00  0.00    -0.289 C  
BRANCH  29  31
HETATM   31  C   UNL     1     -11.581   7.855  72.489  1.00  0.00    -0.443 C  
BRANCH  31  32
HETATM   32  C   UNL     1     -11.947   6.564  71.748  1.00  0.00    -0.394 C  
BRANCH  32  33
HETATM   33  C   UNL     1     -11.049   6.205  70.561  1.00  0.00    -0.337 C  
HETATM   34  N   UNL     1     -11.584   6.701  69.292  1.00  0.00    -0.646 NA 
HETATM   35  H1  UNL     1     -10.987   6.462  68.500  1.00  0.00     0.000 HD 
HETATM   36  H2  UNL     1     -11.758   7.705  69.332  1.00  0.00     0.000 HD 
ENDBRANCH  32  33
ENDBRANCH  31  32
ENDBRANCH  29  31
ENDBRANCH  27  29
ENDBRANCH  11  27
ENDBRANCH   2   3
TORSDOF 9
ENDMDL
MODEL        7
REMARK 921   NORMALIZED FREE ENERGY PREDICTED BY IDOCK:   -7.60 KCAL/MOL
REMARK 922        TOTAL FREE ENERGY PREDICTED BY IDOCK:  -12.56 KCAL/MOL
REMARK 923 INTER-LIGAND FREE ENERGY PREDICTED BY IDOCK:  -11.87 KCAL/MOL
REMARK 924 INTRA-LIGAND FREE ENERGY PREDICTED BY IDOCK:   -0.69 KCAL/MOL
REMARK 927      BINDING AFFINITY PREDICTED BY RF-SCORE:    0.00 PKD
ROOT
HETATM    1  C   UNL     1      -9.967  11.336  63.017  1.00  0.00    -0.311 C  
HETATM    2  O   UNL     1     -11.009  11.103  63.960  1.00  0.00    -0.364 OA 
ENDROOT
BRANCH   2   3
HETATM    3  C   UNL     1     -10.955  11.957  65.040  1.00  0.00    -0.312 A  
HETATM    4  C   UNL     1     -10.450  13.213  64.812  1.00  0.00    -0.390 A  
HETATM    5  C   UNL     1     -10.455  14.133  65.867  1.00  0.00    -0.313 A  
HETATM    6  C   UNL     1     -11.123  13.801  67.090  1.00  0.00    -0.315 A  
HETATM    7  C   UNL     1      -9.626  15.379  65.692  1.00  0.00    -0.323 C  
HETATM    8  C   UNL     1     -11.546  14.684  68.143  1.00  0.00    -0.335 A  
HETATM    9  C   UNL     1     -11.851  14.170  69.416  1.00  0.00    -0.330 A  
HETATM   10  C   UNL     1     -11.391  12.421  67.266  1.00  0.00    -0.323 A  
HETATM   11  C   UNL     1     -11.713  11.912  68.541  1.00  0.00    -0.330 A  
HETATM   12  N   UNL     1     -11.329  11.530  66.255  1.00  0.00    -0.318 NA 
HETATM   13  C   UNL     1     -11.898  12.791  69.607  1.00  0.00    -0.384 A  
BRANCH   8  14
HETATM   14  O   UNL     1     -11.731  16.045  67.997  1.00  0.00    -0.202 OA 
BRANCH  14  15
HETATM   15  C   UNL     1     -10.742  16.981  68.225  1.00  0.00    -0.372 A  
HETATM   16  C   UNL     1      -9.615  16.448  68.865  1.00  0.00    -0.252 A  
HETATM   17  C   UNL     1      -8.419  17.160  68.909  1.00  0.00    -0.187 A  
HETATM   18  F   UNL     1      -9.895  20.175  65.684  1.00  0.00    -0.485 F  
HETATM   19  F   UNL     1      -8.072  20.678  66.742  1.00  0.00    -0.320 F  
HETATM   20  C   UNL     1      -8.339  18.409  68.298  1.00  0.00    -0.321 A  
HETATM   21  C   UNL     1     -10.707  18.301  67.768  1.00  0.00    -0.358 A  
HETATM   22  C   UNL     1      -9.362  20.278  66.934  1.00  0.00    -0.373 C  
HETATM   23  F   UNL     1      -9.994  21.324  67.529  1.00  0.00    -0.568 F  
HETATM   24  C   UNL     1      -9.477  18.989  67.715  1.00  0.00    -0.353 A  
ENDBRANCH  14  15
ENDBRANCH   8  14
BRANCH   9  25
HETATM   25  O   UNL     1     -12.192  14.867  70.547  1.00  0.00    -0.286 OA 
HETATM   26  C   UNL     1     -13.121  14.269  71.442  1.00  0.00    -0.351 C  
ENDBRANCH   9  25
BRANCH  11  27
HETATM   27  N   UNL     1     -11.911  10.522  68.691  1.00  0.00    -0.769 NA 
HETATM   28  H   UNL     1     -12.696  10.078  68.215  1.00  0.00     0.000 HD 
BRANCH  27  29
HETATM   29  C   UNL     1     -11.020   9.703  69.514  1.00  0.00    -0.208 C  
HETATM   30  C   UNL     1      -9.594  10.222  69.313  1.00  0.00    -0.239 C  
BRANCH  29  31
HETATM   31  C   UNL     1     -11.399   9.808  71.003  1.00  0.00    -0.460 C  
BRANCH  31  32
HETATM   32  C   UNL     1     -12.904   9.769  71.295  1.00  0.00    -0.472 C  
BRANCH  32  33
HETATM   33  C   UNL     1     -13.444   8.432  71.812  1.00  0.00    -0.364 C  
HETATM   34  N   UNL     1     -13.184   7.332  70.881  1.00  0.00    -0.583 NA 
HETATM   35  H1  UNL     1     -13.543   6.442  71.225  1.00  0.00     0.000 HD 
HETATM   36  H2  UNL     1     -12.191   7.267  70.656  1.00  0.00     0.000 HD 
ENDBRANCH  32  33
ENDBRANCH  31  32
ENDBRANCH  29  31
ENDBRANCH  27  29
ENDBRANCH  11  27
ENDBRANCH   2   3
TORSDOF 9
ENDMDL
MODEL        8
REMARK 921   NORMALIZED FREE ENERGY PREDICTED BY IDOCK:   -7.58 KCAL/MOL
REMARK 922        TOTAL FREE ENERGY PREDICTED BY IDOCK:  -12.54 KCAL/MOL
REMARK 923 INTER-LIGAND FREE ENERGY PREDICTED BY IDOCK:  -11.02 KCAL/MOL
REMARK 924 INTRA-LIGAND FREE ENERGY PREDICTED BY IDOCK:   -1.52 KCAL/MOL
REMARK 927      BINDING AFFINITY PREDICTED BY RF-SCORE:    0.00 PKD
ROOT
HETATM    1  C   UNL     1      -9.553   9.856  64.897  1.00  0.00    -0.288 C  
HETATM    2  O   UNL     1     -10.708  10.686  64.823  1.00  0.00    -0.225 OA 
ENDROOT
BRANCH   2   3
HETATM    3  C   UNL     1     -10.727  11.665  65.792  1.00  0.00    -0.280 A  
HETATM    4  C   UNL     1     -10.168  12.876  65.463  1.00  0.00    -0.299 A  
HETATM    5  C   UNL     1     -10.242  13.918  66.394  1.00  0.00    -0.292 A  
HETATM    6  C   UNL     1     -11.026  13.750  67.580  1.00  0.00    -0.285 A  
HETATM    7  C   UNL     1      -9.364  15.118  66.148  1.00  0.00    -0.346 C  
HETATM    8  C   UNL     1     -11.517  14.763  68.475  1.00  0.00    -0.308 A  
HETATM    9  C   UNL     1     -11.951  14.414  69.767  1.00  0.00    -0.332 A  
HETATM   10  C   UNL     1     -11.349  12.407  67.896  1.00  0.00    -0.289 A  
HETATM   11  C   UNL     1     -11.799  12.065  69.187  1.00  0.00    -0.311 A  
HETATM   12  N   UNL     1     -11.222  11.398  67.010  1.00  0.00    -0.348 NA 
HETATM   13  C   UNL     1     -12.054  13.071  70.118  1.00  0.00    -0.377 A  
BRANCH   8  14
HETATM   14  O   UNL     1     -11.648  16.098  68.150  1.00  0.00    -0.285 OA 
BRANCH  14  15
HETATM   15  C   UNL     1     -10.651  17.035  68.338  1.00  0.00    -0.375 A  
HETATM   16  C   UNL     1      -9.546  16.530  69.036  1.00  0.00    -0.255 A  
HETATM   17  C   UNL     1      -8.341  17.228  69.060  1.00  0.00    -0.090 A  
HETATM   18  F   UNL     1      -9.706  20.048  65.616  1.00  0.00    -0.441 F  
HETATM   19  F   UNL     1      -7.899  20.594  66.679  1.00  0.00    -0.301 F  
HETATM   20  C   UNL     1      -8.230  18.434  68.372  1.00  0.00    -0.331 A  
HETATM   21  C   UNL     1     -10.588  18.322  67.799  1.00  0.00    -0.415 A  
HETATM   22  C   UNL     1      -9.198  20.224  66.868  1.00  0.00    -0.355 C  
HETATM   23  F   UNL     1      -9.828  21.315  67.381  1.00  0.00    -0.618 F  
HETATM   24  C   UNL     1      -9.348  18.990  67.728  1.00  0.00    -0.347 A  
ENDBRANCH  14  15
ENDBRANCH   8  14
BRANCH   9  25
HETATM   25  O   UNL     1     -12.372  15.252  70.768  1.00  0.00    -0.321 OA 
HETATM   26  C   UNL     1     -11.679  15.205  72.009  1.00  0.00    -0.422 C  
ENDBRANCH   9  25
BRANCH  11  27
HETATM   27  N   UNL     1     -12.050  10.707  69.485  1.00  0.00    -0.501 NA 
HETATM   28  H   UNL     1     -12.345  10.081  68.736  1.00  0.00     0.000 HD 
BRANCH  27  29
HETATM   29  C   UNL     1     -11.900  10.177  70.841  1.00  0.00    -0.374 C  
HETATM   30  C   UNL     1     -13.264   9.644  71.285  1.00  0.00    -0.429 C  
BRANCH  29  31
HETATM   31  C   UNL     1     -10.867   9.034  70.870  1.00  0.00    -0.323 C  
BRANCH  31  32
HETATM   32  C   UNL     1      -9.807   9.088  69.764  1.00  0.00    -0.188 C  
BRANCH  32  33
HETATM   33  C   UNL     1      -9.908   7.995  68.696  1.00  0.00    -0.174 C  
HETATM   34  N   UNL     1     -10.957   8.278  67.713  1.00  0.00    -0.491 NA 
HETATM   35  H1  UNL     1     -11.025   7.551  67.001  1.00  0.00     0.000 HD 
HETATM   36  H2  UNL     1     -10.829   9.197  67.290  1.00  0.00     0.000 HD 
ENDBRANCH  32  33
ENDBRANCH  31  32
ENDBRANCH  29  31
ENDBRANCH  27  29
ENDBRANCH  11  27
ENDBRANCH   2   3
TORSDOF 9
ENDMDL
MODEL        9
REMARK 921   NORMALIZED FREE ENERGY PREDICTED BY IDOCK:   -7.49 KCAL/MOL
REMARK 922        TOTAL FREE ENERGY PREDICTED BY IDOCK:  -12.40 KCAL/MOL
REMARK 923 INTER-LIGAND FREE ENERGY PREDICTED BY IDOCK:  -11.10 KCAL/MOL
REMARK 924 INTRA-LIGAND FREE ENERGY PREDICTED BY IDOCK:   -1.30 KCAL/MOL
REMARK 927      BINDING AFFINITY PREDICTED BY RF-SCORE:    0.00 PKD
ROOT
HETATM    1  C   UNL     1     -13.453   9.941  71.276  1.00  0.00    -0.280 C  
HETATM    2  O   UNL     1     -12.223  10.653  71.374  1.00  0.00    -0.350 OA 
ENDROOT
BRANCH   2   3
HETATM    3  C   UNL     1     -12.214  11.811  70.626  1.00  0.00    -0.349 A  
HETATM    4  C   UNL     1     -12.557  12.971  71.275  1.00  0.00    -0.373 A  
HETATM    5  C   UNL     1     -12.480  14.176  70.568  1.00  0.00    -0.431 A  
HETATM    6  C   UNL     1     -11.900  14.190  69.258  1.00  0.00    -0.381 A  
HETATM    7  C   UNL     1     -13.149  15.376  71.186  1.00  0.00    -0.565 C  
HETATM    8  C   UNL     1     -11.413  15.318  68.511  1.00  0.00    -0.342 A  
HETATM    9  C   UNL     1     -11.216  15.213  67.122  1.00  0.00    -0.320 A  
HETATM   10  C   UNL     1     -11.804  12.921  68.636  1.00  0.00    -0.312 A  
HETATM   11  C   UNL     1     -11.590  12.821  67.246  1.00  0.00    -0.360 A  
HETATM   12  N   UNL     1     -11.935  11.763  69.315  1.00  0.00    -0.307 NA 
HETATM   13  C   UNL     1     -11.340  13.973  66.502  1.00  0.00    -0.343 A  
BRANCH   8  14
HETATM   14  O   UNL     1     -11.063  16.533  69.066  1.00  0.00    -0.319 OA 
BRANCH  14  15
HETATM   15  C   UNL     1      -9.859  17.165  68.831  1.00  0.00    -0.273 A  
HETATM   16  C   UNL     1      -9.989  18.547  68.644  1.00  0.00    -0.419 A  
HETATM   17  C   UNL     1      -8.873  19.380  68.690  1.00  0.00    -0.417 A  
HETATM   18  F   UNL     1      -6.229  16.020  70.532  1.00  0.00    -0.111 F  
HETATM   19  F   UNL     1      -5.214  17.804  69.836  1.00  0.00    -0.166 F  
HETATM   20  C   UNL     1      -7.617  18.833  68.939  1.00  0.00    -0.312 A  
HETATM   21  C   UNL     1      -8.582  16.604  68.906  1.00  0.00    -0.235 A  
HETATM   22  C   UNL     1      -6.123  16.859  69.463  1.00  0.00    -0.224 C  
HETATM   23  F   UNL     1      -5.531  16.138  68.474  1.00  0.00    -0.096 F  
HETATM   24  C   UNL     1      -7.457  17.443  69.057  1.00  0.00    -0.185 A  
ENDBRANCH  14  15
ENDBRANCH   8  14
BRANCH   9  25
HETATM   25  O   UNL     1     -10.834  16.200  66.249  1.00  0.00    -0.257 OA 
HETATM   26  C   UNL     1     -11.015  15.963  64.859  1.00  0.00    -0.411 C  
ENDBRANCH   9  25
BRANCH  11  27
HETATM   27  N   UNL     1     -11.563  11.541  66.650  1.00  0.00    -0.459 NA 
HETATM   28  H   UNL     1     -12.372  10.928  66.752  1.00  0.00     0.000 HD 
BRANCH  27  29
HETATM   29  C   UNL     1     -10.403  11.070  65.891  1.00  0.00    -0.257 C  
HETATM   30  C   UNL     1     -10.002   9.705  66.454  1.00  0.00    -0.323 C  
BRANCH  29  31
HETATM   31  C   UNL     1     -10.748  10.928  64.397  1.00  0.00    -0.250 C  
BRANCH  31  32
HETATM   32  C   UNL     1     -10.840  12.248  63.622  1.00  0.00    -0.522 C  
BRANCH  32  33
HETATM   33  C   UNL     1     -12.254  12.692  63.234  1.00  0.00    -0.417 C  
HETATM   34  N   UNL     1     -13.275  12.119  64.114  1.00  0.00    -0.732 NA 
HETATM   35  H1  UNL     1     -14.216  12.414  63.856  1.00  0.00     0.000 HD 
HETATM   36  H2  UNL     1     -13.078  12.329  65.093  1.00  0.00     0.000 HD 
ENDBRANCH  32  33
ENDBRANCH  31  32
ENDBRANCH  29  31
ENDBRANCH  27  29
ENDBRANCH  11  27
ENDBRANCH   2   3
TORSDOF 9
ENDMDL
MODEL       10
REMARK 921   NORMALIZED FREE ENERGY PREDICTED BY IDOCK:   -7.40 KCAL/MOL
REMARK 922        TOTAL FREE ENERGY PREDICTED BY IDOCK:  -12.26 KCAL/MOL
REMARK 923 INTER-LIGAND FREE ENERGY PREDICTED BY IDOCK:  -10.43 KCAL/MOL
REMARK 924 INTRA-LIGAND FREE ENERGY PREDICTED BY IDOCK:   -1.84 KCAL/MOL
REMARK 927      BINDING AFFINITY PREDICTED BY RF-SCORE:    0.00 PKD
ROOT
HETATM    1  C   UNL     1      -6.003  11.159  66.255  1.00  0.00    -0.130 C  
HETATM    2  O   UNL     1      -6.274  12.414  66.873  1.00  0.00    -0.210 OA 
ENDROOT
BRANCH   2   3
HETATM    3  C   UNL     1      -7.600  12.569  67.210  1.00  0.00    -0.131 A  
HETATM    4  C   UNL     1      -8.463  11.581  66.805  1.00  0.00    -0.168 A  
HETATM    5  C   UNL     1      -9.803  11.665  67.200  1.00  0.00    -0.205 A  
HETATM    6  C   UNL     1     -10.201  12.674  68.136  1.00  0.00    -0.240 A  
HETATM    7  C   UNL     1     -10.782  10.760  66.497  1.00  0.00    -0.245 C  
HETATM    8  C   UNL     1     -11.401  12.733  68.926  1.00  0.00    -0.296 A  
HETATM    9  C   UNL     1     -11.803  13.949  69.509  1.00  0.00    -0.329 A  
HETATM   10  C   UNL     1      -9.282  13.741  68.288  1.00  0.00    -0.204 A  
HETATM   11  C   UNL     1      -9.684  14.951  68.888  1.00  0.00    -0.223 A  
HETATM   12  N   UNL     1      -8.007  13.674  67.854  1.00  0.00    -0.145 NA 
HETATM   13  C   UNL     1     -10.955  15.051  69.454  1.00  0.00    -0.275 A  
BRANCH   8  14
HETATM   14  O   UNL     1     -12.205  11.648  69.212  1.00  0.00    -0.271 OA 
BRANCH  14  15
HETATM   15  C   UNL     1     -11.967  10.770  70.251  1.00  0.00    -0.351 A  
HETATM   16  C   UNL     1     -12.992  10.755  71.206  1.00  0.00    -0.502 A  
HETATM   17  C   UNL     1     -13.067   9.736  72.153  1.00  0.00    -0.513 A  
HETATM   18  F   UNL     1      -9.973   7.131  69.849  1.00  0.00    -0.176 F  
HETATM   19  F   UNL     1     -10.502   6.494  71.851  1.00  0.00    -0.213 F  
HETATM   20  C   UNL     1     -12.122   8.715  72.141  1.00  0.00    -0.451 A  
HETATM   21  C   UNL     1     -10.926   9.844  70.353  1.00  0.00    -0.379 A  
HETATM   22  C   UNL     1     -10.099   7.579  71.130  1.00  0.00    -0.188 C  
HETATM   23  F   UNL     1      -8.840   7.866  71.556  1.00  0.00    -0.124 F  
HETATM   24  C   UNL     1     -11.047   8.752  71.238  1.00  0.00    -0.348 A  
ENDBRANCH  14  15
ENDBRANCH   8  14
BRANCH   9  25
HETATM   25  O   UNL     1     -12.948  14.203  70.222  1.00  0.00    -0.235 OA 
HETATM   26  C   UNL     1     -12.998  15.395  70.994  1.00  0.00    -0.492 C  
ENDBRANCH   9  25
BRANCH  11  27
HETATM   27  N   UNL     1      -8.760  16.016  68.966  1.00  0.00    -0.233 NA 
HETATM   28  H   UNL     1      -7.942  15.921  69.568  1.00  0.00     0.000 HD 
BRANCH  27  29
HETATM   29  C   UNL     1      -8.945  17.252  68.205  1.00  0.00    -0.254 C  
HETATM   30  C   UNL     1      -7.758  18.169  68.513  1.00  0.00    -0.307 C  
BRANCH  29  31
HETATM   31  C   UNL     1      -8.992  16.963  66.693  1.00  0.00    -0.279 C  
BRANCH  31  32
HETATM   32  C   UNL     1     -10.396  16.944  66.078  1.00  0.00    -0.335 C  
BRANCH  32  33
HETATM   33  C   UNL     1     -10.668  15.812  65.083  1.00  0.00    -0.435 C  
HETATM   34  N   UNL     1     -11.454  16.264  63.933  1.00  0.00    -1.539 NA 
HETATM   35  H1  UNL     1     -11.636  15.511  63.269  1.00  0.00     0.000 HD 
HETATM   36  H2  UNL     1     -11.013  17.060  63.474  1.00  0.00     0.000 HD 
ENDBRANCH  32  33
ENDBRANCH  31  32
ENDBRANCH  29  31
ENDBRANCH  27  29
ENDBRANCH  11  27
ENDBRANCH   2   3
TORSDOF 9
ENDMDL
MODEL       11
REMARK 921   NORMALIZED FREE ENERGY PREDICTED BY IDOCK:   -7.24 KCAL/MOL
REMARK 922        TOTAL FREE ENERGY PREDICTED BY IDOCK:  -12.02 KCAL/MOL
REMARK 923 INTER-LIGAND FREE ENERGY PREDICTED BY IDOCK:  -10.13 KCAL/MOL
REMARK 924 INTRA-LIGAND FREE ENERGY PREDICTED BY IDOCK:   -1.89 KCAL/MOL
REMARK 927      BINDING AFFINITY PREDICTED BY RF-SCORE:    0.00 PKD
ROOT
HETATM    1  C   UNL     1      -5.420  15.827  70.364  1.00  0.00    -0.157 C  
HETATM    2  O   UNL     1      -6.305  16.633  69.590  1.00  0.00    -0.216 OA 
ENDROOT
BRANCH   2   3
HETATM    3  C   UNL     1      -7.202  15.888  68.856  1.00  0.00    -0.158 A  
HETATM    4  C   UNL     1      -7.200  14.531  69.066  1.00  0.00    -0.130 A  
HETATM    5  C   UNL     1      -8.153  13.754  68.397  1.00  0.00    -0.148 A  
HETATM    6  C   UNL     1      -9.192  14.398  67.652  1.00  0.00    -0.196 A  
HETATM    7  C   UNL     1      -7.939  12.263  68.394  1.00  0.00    -0.152 C  
HETATM    8  C   UNL     1     -10.436  13.842  67.191  1.00  0.00    -0.269 A  
HETATM    9  C   UNL     1     -11.166  14.488  66.177  1.00  0.00    -0.339 A  
HETATM   10  C   UNL     1      -8.945  15.758  67.337  1.00  0.00    -0.193 A  
HETATM   11  C   UNL     1      -9.690  16.406  66.332  1.00  0.00    -0.287 A  
HETATM   12  N   UNL     1      -7.986  16.485  67.946  1.00  0.00    -0.156 NA 
HETATM   13  C   UNL     1     -10.765  15.746  65.737  1.00  0.00    -0.337 A  
BRANCH   8  14
HETATM   14  O   UNL     1     -11.024  12.705  67.708  1.00  0.00    -0.220 OA 
BRANCH  14  15
HETATM   15  C   UNL     1     -11.426  12.580  69.023  1.00  0.00    -0.304 A  
HETATM   16  C   UNL     1     -11.924  13.773  69.563  1.00  0.00    -0.399 A  
HETATM   17  C   UNL     1     -12.639  13.769  70.759  1.00  0.00    -0.410 A  
HETATM   18  F   UNL     1     -13.138   9.142  70.645  1.00  0.00    -0.106 F  
HETATM   19  F   UNL     1     -13.681  10.147  72.486  1.00  0.00    -0.419 F  
HETATM   20  C   UNL     1     -12.873  12.564  71.416  1.00  0.00    -0.359 A  
HETATM   21  C   UNL     1     -11.513  11.404  69.772  1.00  0.00    -0.376 A  
HETATM   22  C   UNL     1     -12.685  10.045  71.560  1.00  0.00    -0.429 C  
HETATM   23  F   UNL     1     -11.641   9.448  72.195  1.00  0.00    -0.422 F  
HETATM   24  C   UNL     1     -12.320  11.369  70.928  1.00  0.00    -0.483 A  
ENDBRANCH  14  15
ENDBRANCH   8  14
BRANCH   9  25
HETATM   25  O   UNL     1     -12.320  14.063  65.569  1.00  0.00    -0.430 OA 
HETATM   26  C   UNL     1     -12.218  13.025  64.603  1.00  0.00    -0.421 C  
ENDBRANCH   9  25
BRANCH  11  27
HETATM   27  N   UNL     1      -9.373  17.741  66.000  1.00  0.00    -0.523 NA 
HETATM   28  H   UNL     1      -8.460  17.949  65.597  1.00  0.00     0.000 HD 
BRANCH  27  29
HETATM   29  C   UNL     1     -10.321  18.834  66.220  1.00  0.00    -0.448 C  
HETATM   30  C   UNL     1     -10.892  18.676  67.632  1.00  0.00    -0.347 C  
BRANCH  29  31
HETATM   31  C   UNL     1      -9.620  20.200  66.100  1.00  0.00    -0.440 C  
BRANCH  31  32
HETATM   32  C   UNL     1      -8.091  20.156  66.199  1.00  0.00    -0.246 C  
BRANCH  32  33
HETATM   33  C   UNL     1      -7.503  20.551  67.557  1.00  0.00    -0.314 C  
HETATM   34  N   UNL     1      -7.325  19.396  68.440  1.00  0.00    -0.299 NA 
HETATM   35  H1  UNL     1      -6.933  19.659  69.345  1.00  0.00     0.000 HD 
HETATM   36  H2  UNL     1      -6.764  18.672  67.992  1.00  0.00     0.000 HD 
ENDBRANCH  32  33
ENDBRANCH  31  32
ENDBRANCH  29  31
ENDBRANCH  27  29
ENDBRANCH  11  27
ENDBRANCH   2   3
TORSDOF 9
ENDMDL
MODEL       12
REMARK 921   NORMALIZED FREE ENERGY PREDICTED BY IDOCK:   -7.23 KCAL/MOL
REMARK 922        TOTAL FREE ENERGY PREDICTED BY IDOCK:  -12.00 KCAL/MOL
REMARK 923 INTER-LIGAND FREE ENERGY PREDICTED BY IDOCK:  -10.58 KCAL/MOL
REMARK 924 INTRA-LIGAND FREE ENERGY PREDICTED BY IDOCK:   -1.42 KCAL/MOL
REMARK 927      BINDING AFFINITY PREDICTED BY RF-SCORE:    0.00 PKD
ROOT
HETATM    1  C   UNL     1      -9.319   7.880  66.720  1.00  0.00    -0.184 C  
HETATM    2  O   UNL     1     -10.377   8.723  66.272  1.00  0.00    -0.231 OA 
ENDROOT
BRANCH   2   3
HETATM    3  C   UNL     1     -10.428   9.922  66.949  1.00  0.00    -0.215 A  
HETATM    4  C   UNL     1      -9.661  10.947  66.454  1.00  0.00    -0.229 A  
HETATM    5  C   UNL     1      -9.751  12.202  67.068  1.00  0.00    -0.208 A  
HETATM    6  C   UNL     1     -10.744  12.424  68.076  1.00  0.00    -0.247 A  
HETATM    7  C   UNL     1      -8.689  13.212  66.719  1.00  0.00    -0.095 C  
HETATM    8  C   UNL     1     -11.239  13.677  68.578  1.00  0.00    -0.280 A  
HETATM    9  C   UNL     1     -11.932  13.724  69.801  1.00  0.00    -0.344 A  
HETATM   10  C   UNL     1     -11.297  11.247  68.638  1.00  0.00    -0.273 A  
HETATM   11  C   UNL     1     -12.005  11.301  69.855  1.00  0.00    -0.365 A  
HETATM   12  N   UNL     1     -11.158  10.032  68.069  1.00  0.00    -0.245 NA 
HETATM   13  C   UNL     1     -12.277  12.536  70.441  1.00  0.00    -0.368 A  
BRANCH   8  14
HETATM   14  O   UNL     1     -11.128  14.885  67.917  1.00  0.00    -0.276 OA 
BRANCH  14  15
HETATM   15  C   UNL     1     -10.331  15.925  68.350  1.00  0.00    -0.240 A  
HETATM   16  C   UNL     1      -9.036  15.520  68.701  1.00  0.00    -0.202 A  
HETATM   17  C   UNL     1      -8.019  16.456  68.874  1.00  0.00    -0.236 A  
HETATM   18  F   UNL     1     -10.546  19.823  66.887  1.00  0.00    -0.502 F  
HETATM   19  F   UNL     1      -8.729  20.424  67.904  1.00  0.00    -0.338 F  
HETATM   20  C   UNL     1      -8.290  17.808  68.683  1.00  0.00    -0.274 A  
HETATM   21  C   UNL     1     -10.636  17.289  68.331  1.00  0.00    -0.368 A  
HETATM   22  C   UNL     1      -9.866  19.687  68.060  1.00  0.00    -0.415 C  
HETATM   23  F   UNL     1     -10.605  20.331  69.002  1.00  0.00    -0.511 F  
HETATM   24  C   UNL     1      -9.596  18.239  68.403  1.00  0.00    -0.350 A  
ENDBRANCH  14  15
ENDBRANCH   8  14
BRANCH   9  25
HETATM   25  O   UNL     1     -12.401  14.831  70.462  1.00  0.00    -0.297 OA 
HETATM   26  C   UNL     1     -12.607  14.730  71.864  1.00  0.00    -0.334 C  
ENDBRANCH   9  25
BRANCH  11  27
HETATM   27  N   UNL     1     -12.487  10.099  70.418  1.00  0.00    -0.489 NA 
HETATM   28  H   UNL     1     -13.006   9.448  69.829  1.00  0.00     0.000 HD 
BRANCH  27  29
HETATM   29  C   UNL     1     -12.262   9.764  71.825  1.00  0.00    -0.367 C  
HETATM   30  C   UNL     1     -13.587   9.256  72.399  1.00  0.00    -0.527 C  
BRANCH  29  31
HETATM   31  C   UNL     1     -11.189   8.669  71.963  1.00  0.00    -0.434 C  
BRANCH  31  32
HETATM   32  C   UNL     1     -11.729   7.235  72.031  1.00  0.00    -0.329 C  
BRANCH  32  33
HETATM   33  C   UNL     1     -11.833   6.502  70.690  1.00  0.00    -0.335 C  
HETATM   34  N   UNL     1     -11.315   7.304  69.579  1.00  0.00    -0.475 NA 
HETATM   35  H1  UNL     1     -11.384   6.816  68.686  1.00  0.00     0.000 HD 
HETATM   36  H2  UNL     1     -10.359   7.610  69.759  1.00  0.00     0.000 HD 
ENDBRANCH  32  33
ENDBRANCH  31  32
ENDBRANCH  29  31
ENDBRANCH  27  29
ENDBRANCH  11  27
ENDBRANCH   2   3
TORSDOF 9
ENDMDL
MODEL       13
REMARK 921   NORMALIZED FREE ENERGY PREDICTED BY IDOCK:   -7.18 KCAL/MOL
REMARK 922        TOTAL FREE ENERGY PREDICTED BY IDOCK:  -11.93 KCAL/MOL
REMARK 923 INTER-LIGAND FREE ENERGY PREDICTED BY IDOCK:  -11.44 KCAL/MOL
REMARK 924 INTRA-LIGAND FREE ENERGY PREDICTED BY IDOCK:   -0.49 KCAL/MOL
REMARK 927      BINDING AFFINITY PREDICTED BY RF-SCORE:    0.00 PKD
ROOT
HETATM    1  C   UNL     1     -11.163   9.507  71.087  1.00  0.00    -0.376 C  
HETATM    2  O   UNL     1     -12.166  10.421  71.524  1.00  0.00    -0.367 OA 
ENDROOT
BRANCH   2   3
HETATM    3  C   UNL     1     -12.238  11.552  70.740  1.00  0.00    -0.363 A  
HETATM    4  C   UNL     1     -12.749  12.682  71.328  1.00  0.00    -0.354 A  
HETATM    5  C   UNL     1     -12.762  13.869  70.587  1.00  0.00    -0.351 A  
HETATM    6  C   UNL     1     -12.104  13.915  69.316  1.00  0.00    -0.383 A  
HETATM    7  C   UNL     1     -13.599  15.002  71.124  1.00  0.00    -0.493 C  
HETATM    8  C   UNL     1     -11.698  15.070  68.563  1.00  0.00    -0.320 A  
HETATM    9  C   UNL     1     -11.402  14.953  67.193  1.00  0.00    -0.343 A  
HETATM   10  C   UNL     1     -11.827  12.649  68.743  1.00  0.00    -0.300 A  
HETATM   11  C   UNL     1     -11.515  12.537  67.373  1.00  0.00    -0.341 A  
HETATM   12  N   UNL     1     -11.872  11.502  69.451  1.00  0.00    -0.328 NA 
HETATM   13  C   UNL     1     -11.347  13.690  66.608  1.00  0.00    -0.343 A  
BRANCH   8  14
HETATM   14  O   UNL     1     -11.523  16.332  69.097  1.00  0.00    -0.320 OA 
BRANCH  14  15
HETATM   15  C   UNL     1     -10.442  17.141  68.812  1.00  0.00    -0.351 A  
HETATM   16  C   UNL     1      -9.211  16.490  68.959  1.00  0.00    -0.237 A  
HETATM   17  C   UNL     1      -8.045  17.046  68.439  1.00  0.00    -0.245 A  
HETATM   18  F   UNL     1     -10.441  20.128  65.903  1.00  0.00    -0.528 F  
HETATM   19  F   UNL     1      -8.300  20.427  66.052  1.00  0.00    -0.252 F  
HETATM   20  C   UNL     1      -8.106  18.256  67.753  1.00  0.00    -0.256 A  
HETATM   21  C   UNL     1     -10.471  18.433  68.279  1.00  0.00    -0.329 A  
HETATM   22  C   UNL     1      -9.418  20.199  66.800  1.00  0.00    -0.403 C  
HETATM   23  F   UNL     1      -9.625  21.334  67.520  1.00  0.00    -0.557 F  
HETATM   24  C   UNL     1      -9.319  18.959  67.658  1.00  0.00    -0.331 A  
ENDBRANCH  14  15
ENDBRANCH   8  14
BRANCH   9  25
HETATM   25  O   UNL     1     -11.078  15.953  66.312  1.00  0.00    -0.182 OA 
HETATM   26  C   UNL     1      -9.936  15.767  65.487  1.00  0.00    -0.306 C  
ENDBRANCH   9  25
BRANCH  11  27
HETATM   27  N   UNL     1     -11.307  11.253  66.823  1.00  0.00    -0.379 NA 
HETATM   28  H   UNL     1     -12.062  10.568  66.861  1.00  0.00     0.000 HD 
BRANCH  27  29
HETATM   29  C   UNL     1     -10.037  10.881  66.198  1.00  0.00    -0.239 C  
HETATM   30  C   UNL     1      -8.914  11.553  66.993  1.00  0.00    -0.174 C  
BRANCH  29  31
HETATM   31  C   UNL     1      -9.841   9.353  66.225  1.00  0.00    -0.351 C  
BRANCH  31  32
HETATM   32  C   UNL     1     -10.529   8.630  67.388  1.00  0.00    -0.351 C  
BRANCH  32  33
HETATM   33  C   UNL     1     -10.282   7.120  67.469  1.00  0.00    -0.212 C  
HETATM   34  N   UNL     1     -11.354   6.350  66.834  1.00  0.00    -0.774 NA 
HETATM   35  H1  UNL     1     -11.190   5.345  66.888  1.00  0.00     0.000 HD 
HETATM   36  H2  UNL     1     -11.502   6.648  65.871  1.00  0.00     0.000 HD 
ENDBRANCH  32  33
ENDBRANCH  31  32
ENDBRANCH  29  31
ENDBRANCH  27  29
ENDBRANCH  11  27
ENDBRANCH   2   3
TORSDOF 9
ENDMDL
MODEL       14
REMARK 921   NORMALIZED FREE ENERGY PREDICTED BY IDOCK:   -7.16 KCAL/MOL
REMARK 922        TOTAL FREE ENERGY PREDICTED BY IDOCK:  -11.89 KCAL/MOL
REMARK 923 INTER-LIGAND FREE ENERGY PREDICTED BY IDOCK:  -10.28 KCAL/MOL
REMARK 924 INTRA-LIGAND FREE ENERGY PREDICTED BY IDOCK:   -1.62 KCAL/MOL
REMARK 927      BINDING AFFINITY PREDICTED BY RF-SCORE:    0.00 PKD
ROOT
HETATM    1  C   UNL     1     -13.763  15.277  71.621  1.00  0.00    -0.505 C  
HETATM    2  O   UNL     1     -13.409  15.501  70.259  1.00  0.00    -0.204 OA 
ENDROOT
BRANCH   2   3
HETATM    3  C   UNL     1     -12.263  14.832  69.888  1.00  0.00    -0.311 A  
HETATM    4  C   UNL     1     -12.321  13.460  69.878  1.00  0.00    -0.259 A  
HETATM    5  C   UNL     1     -11.201  12.750  69.428  1.00  0.00    -0.198 A  
HETATM    6  C   UNL     1     -10.102  13.461  68.847  1.00  0.00    -0.010 A  
HETATM    7  C   UNL     1     -11.168  11.272  69.716  1.00  0.00    -0.294 C  
HETATM    8  C   UNL     1      -9.039  12.944  68.029  1.00  0.00    -0.211 A  
HETATM    9  C   UNL     1      -7.860  13.689  67.847  1.00  0.00    -0.159 A  
HETATM   10  C   UNL     1     -10.076  14.850  69.126  1.00  0.00    -0.226 A  
HETATM   11  C   UNL     1      -8.898  15.597  68.927  1.00  0.00    -0.222 A  
HETATM   12  N   UNL     1     -11.143  15.517  69.613  1.00  0.00    -0.255 NA 
HETATM   13  C   UNL     1      -7.793  14.995  68.328  1.00  0.00    -0.119 A  
BRANCH   8  14
HETATM   14  O   UNL     1      -9.092  11.748  67.340  1.00  0.00    -0.168 OA 
BRANCH  14  15
HETATM   15  C   UNL     1      -9.493  11.639  66.024  1.00  0.00    -0.229 A  
HETATM   16  C   UNL     1      -8.817  10.631  65.323  1.00  0.00    -0.204 A  
HETATM   17  C   UNL     1      -9.288  10.183  64.091  1.00  0.00    -0.340 A  
HETATM   18  F   UNL     1     -13.382  12.317  64.684  1.00  0.00    -0.425 F  
HETATM   19  F   UNL     1     -12.958  11.528  62.710  1.00  0.00    -0.473 F  
HETATM   20  C   UNL     1     -10.450  10.733  63.557  1.00  0.00    -0.141 A  
HETATM   21  C   UNL     1     -10.554  12.305  65.406  1.00  0.00    -0.309 A  
HETATM   22  C   UNL     1     -12.433  12.298  63.706  1.00  0.00    -0.515 C  
HETATM   23  F   UNL     1     -12.375  13.563  63.211  1.00  0.00    -0.578 F  
HETATM   24  C   UNL     1     -11.100  11.793  64.210  1.00  0.00    -0.420 A  
ENDBRANCH  14  15
ENDBRANCH   8  14
BRANCH   9  25
HETATM   25  O   UNL     1      -6.726  13.320  67.170  1.00  0.00    -0.162 OA 
HETATM   26  C   UNL     1      -5.499  13.306  67.888  1.00  0.00    -0.118 C  
ENDBRANCH   9  25
BRANCH  11  27
HETATM   27  N   UNL     1      -8.889  16.965  69.276  1.00  0.00    -0.050 NA 
HETATM   28  H   UNL     1      -8.484  17.248  70.168  1.00  0.00     0.000 HD 
BRANCH  27  29
HETATM   29  C   UNL     1      -9.448  17.988  68.391  1.00  0.00    -0.308 C  
HETATM   30  C   UNL     1      -8.739  19.309  68.702  1.00  0.00    -0.402 C  
BRANCH  29  31
HETATM   31  C   UNL     1      -9.220  17.618  66.913  1.00  0.00    -0.270 C  
BRANCH  31  32
HETATM   32  C   UNL     1     -10.480  17.624  66.040  1.00  0.00    -0.278 C  
BRANCH  32  33
HETATM   33  C   UNL     1     -10.780  16.316  65.302  1.00  0.00    -0.332 C  
HETATM   34  N   UNL     1     -11.419  16.547  64.004  1.00  0.00    -1.581 NA 
HETATM   35  H1  UNL     1     -11.619  15.676  63.512  1.00  0.00     0.000 HD 
HETATM   36  H2  UNL     1     -10.864  17.177  63.426  1.00  0.00     0.000 HD 
ENDBRANCH  32  33
ENDBRANCH  31  32
ENDBRANCH  29  31
ENDBRANCH  27  29
ENDBRANCH  11  27
ENDBRANCH   2   3
TORSDOF 9
ENDMDL
MODEL       15
REMARK 921   NORMALIZED FREE ENERGY PREDICTED BY IDOCK:   -7.10 KCAL/MOL
REMARK 922        TOTAL FREE ENERGY PREDICTED BY IDOCK:  -11.80 KCAL/MOL
REMARK 923 INTER-LIGAND FREE ENERGY PREDICTED BY IDOCK:  -10.05 KCAL/MOL
REMARK 924 INTRA-LIGAND FREE ENERGY PREDICTED BY IDOCK:   -1.75 KCAL/MOL
REMARK 927      BINDING AFFINITY PREDICTED BY RF-SCORE:    0.00 PKD
ROOT
HETATM    1  C   UNL     1     -10.343   5.354  66.646  1.00  0.00    -0.275 C  
HETATM    2  O   UNL     1      -9.398   6.098  67.409  1.00  0.00    -0.116 OA 
ENDROOT
BRANCH   2   3
HETATM    3  C   UNL     1      -9.727   7.432  67.515  1.00  0.00    -0.148 A  
HETATM    4  C   UNL     1      -9.712   8.168  66.356  1.00  0.00    -0.275 A  
HETATM    5  C   UNL     1     -10.119   9.506  66.413  1.00  0.00    -0.328 A  
HETATM    6  C   UNL     1     -10.686  10.021  67.623  1.00  0.00    -0.340 A  
HETATM    7  C   UNL     1      -9.803  10.369  65.219  1.00  0.00    -0.361 C  
HETATM    8  C   UNL     1     -11.467  11.214  67.806  1.00  0.00    -0.272 A  
HETATM    9  C   UNL     1     -11.633  11.761  69.091  1.00  0.00    -0.310 A  
HETATM   10  C   UNL     1     -10.433   9.240  68.779  1.00  0.00    -0.210 A  
HETATM   11  C   UNL     1     -10.617   9.786  70.065  1.00  0.00    -0.276 A  
HETATM   12  N   UNL     1      -9.986   7.969  68.717  1.00  0.00    -0.183 NA 
HETATM   13  C   UNL     1     -11.176  11.055  70.201  1.00  0.00    -0.264 A  
BRANCH   8  14
HETATM   14  O   UNL     1     -12.134  11.876  66.794  1.00  0.00    -0.593 OA 
BRANCH  14  15
HETATM   15  C   UNL     1     -11.610  12.950  66.104  1.00  0.00    -0.372 A  
HETATM   16  C   UNL     1     -12.389  13.333  65.004  1.00  0.00    -0.499 A  
HETATM   17  C   UNL     1     -12.180  14.559  64.377  1.00  0.00    -0.480 A  
HETATM   18  F   UNL     1      -9.520  16.092  67.876  1.00  0.00    -0.205 F  
HETATM   19  F   UNL     1      -9.538  17.275  66.061  1.00  0.00    -0.276 F  
HETATM   20  C   UNL     1     -11.195  15.418  64.857  1.00  0.00    -0.410 A  
HETATM   21  C   UNL     1     -10.513  13.735  66.470  1.00  0.00    -0.282 A  
HETATM   22  C   UNL     1      -9.382  16.001  66.523  1.00  0.00    -0.268 C  
HETATM   23  F   UNL     1      -8.082  15.676  66.297  1.00  0.00    -0.282 F  
HETATM   24  C   UNL     1     -10.357  15.021  65.911  1.00  0.00    -0.329 A  
ENDBRANCH  14  15
ENDBRANCH   8  14
BRANCH   9  25
HETATM   25  O   UNL     1     -12.274  12.923  69.436  1.00  0.00    -0.221 OA 
HETATM   26  C   UNL     1     -12.269  13.304  70.806  1.00  0.00    -0.308 C  
ENDBRANCH   9  25
BRANCH  11  27
HETATM   27  N   UNL     1     -10.294   9.000  71.193  1.00  0.00    -0.264 NA 
HETATM   28  H   UNL     1      -9.332   8.685  71.320  1.00  0.00     0.000 HD 
BRANCH  27  29
HETATM   29  C   UNL     1     -11.303   8.626  72.184  1.00  0.00    -0.364 C  
HETATM   30  C   UNL     1     -12.551   8.166  71.426  1.00  0.00    -0.301 C  
BRANCH  29  31
HETATM   31  C   UNL     1     -10.794   7.481  73.079  1.00  0.00    -0.445 C  
BRANCH  31  32
HETATM   32  C   UNL     1     -11.179   6.072  72.613  1.00  0.00    -0.326 C  
BRANCH  32  33
HETATM   33  C   UNL     1     -10.133   5.348  71.760  1.00  0.00    -0.196 C  
HETATM   34  N   UNL     1     -10.518   5.283  70.348  1.00  0.00    -0.272 NA 
HETATM   35  H1  UNL     1      -9.822   4.801  69.780  1.00  0.00     0.000 HD 
HETATM   36  H2  UNL     1     -10.717   6.212  69.978  1.00  0.00     0.000 HD 
ENDBRANCH  32  33
ENDBRANCH  31  32
ENDBRANCH  29  31
ENDBRANCH  27  29
ENDBRANCH  11  27
ENDBRANCH   2   3
TORSDOF 9
ENDMDL
MODEL       16
REMARK 921   NORMALIZED FREE ENERGY PREDICTED BY IDOCK:   -7.02 KCAL/MOL
REMARK 922        TOTAL FREE ENERGY PREDICTED BY IDOCK:  -11.69 KCAL/MOL
REMARK 923 INTER-LIGAND FREE ENERGY PREDICTED BY IDOCK:  -11.44 KCAL/MOL
REMARK 924 INTRA-LIGAND FREE ENERGY PREDICTED BY IDOCK:   -0.25 KCAL/MOL
REMARK 927      BINDING AFFINITY PREDICTED BY RF-SCORE:    0.00 PKD
ROOT
HETATM    1  C   UNL     1     -13.634  15.684  73.286  1.00  0.00    -0.360 C  
HETATM    2  O   UNL     1     -13.553  14.288  73.012  1.00  0.00    -0.643 OA 
ENDROOT
BRANCH   2   3
HETATM    3  C   UNL     1     -13.005  14.016  71.777  1.00  0.00    -0.353 A  
HETATM    4  C   UNL     1     -12.612  15.093  71.022  1.00  0.00    -0.441 A  
HETATM    5  C   UNL     1     -11.977  14.851  69.798  1.00  0.00    -0.366 A  
HETATM    6  C   UNL     1     -11.612  13.513  69.445  1.00  0.00    -0.369 A  
HETATM    7  C   UNL     1     -11.841  16.019  68.856  1.00  0.00    -0.249 C  
HETATM    8  C   UNL     1     -10.677  13.078  68.443  1.00  0.00    -0.256 A  
HETATM    9  C   UNL     1     -10.704  11.751  67.979  1.00  0.00    -0.208 A  
HETATM   10  C   UNL     1     -12.267  12.500  70.190  1.00  0.00    -0.234 A  
HETATM   11  C   UNL     1     -12.278  11.168  69.729  1.00  0.00    -0.300 A  
HETATM   12  N   UNL     1     -12.926  12.750  71.340  1.00  0.00    -0.329 NA 
HETATM   13  C   UNL     1     -11.529  10.821  68.606  1.00  0.00    -0.365 A  
BRANCH   8  14
HETATM   14  O   UNL     1      -9.682  13.871  67.905  1.00  0.00    -0.218 OA 
BRANCH  14  15
HETATM   15  C   UNL     1      -9.888  14.767  66.875  1.00  0.00    -0.243 A  
HETATM   16  C   UNL     1     -10.604  14.219  65.803  1.00  0.00    -0.315 A  
HETATM   17  C   UNL     1     -11.156  15.040  64.822  1.00  0.00    -0.388 A  
HETATM   18  F   UNL     1     -10.491  18.858  67.401  1.00  0.00    -0.381 F  
HETATM   19  F   UNL     1     -11.056  19.153  65.330  1.00  0.00    -0.445 F  
HETATM   20  C   UNL     1     -11.005  16.421  64.916  1.00  0.00    -0.277 A  
HETATM   21  C   UNL     1      -9.593  16.132  66.872  1.00  0.00    -0.243 A  
HETATM   22  C   UNL     1     -10.178  18.482  66.129  1.00  0.00    -0.398 C  
HETATM   23  F   UNL     1      -8.954  19.012  65.869  1.00  0.00    -0.286 F  
HETATM   24  C   UNL     1     -10.230  16.983  65.944  1.00  0.00    -0.311 A  
ENDBRANCH  14  15
ENDBRANCH   8  14
BRANCH   9  25
HETATM   25  O   UNL     1      -9.946  11.192  66.982  1.00  0.00    -0.186 OA 
HETATM   26  C   UNL     1     -10.110   9.804  66.722  1.00  0.00    -0.231 C  
ENDBRANCH   9  25
BRANCH  11  27
HETATM   27  N   UNL     1     -12.995  10.198  70.463  1.00  0.00    -0.578 NA 
HETATM   28  H   UNL     1     -13.824   9.773  70.048  1.00  0.00     0.000 HD 
BRANCH  27  29
HETATM   29  C   UNL     1     -12.579   9.786  71.804  1.00  0.00    -0.416 C  
HETATM   30  C   UNL     1     -13.753   9.042  72.446  1.00  0.00    -0.539 C  
BRANCH  29  31
HETATM   31  C   UNL     1     -11.355   8.853  71.736  1.00  0.00    -0.431 C  
BRANCH  31  32
HETATM   32  C   UNL     1     -11.554   7.581  70.902  1.00  0.00    -0.309 C  
BRANCH  32  33
HETATM   33  C   UNL     1     -11.489   6.263  71.679  1.00  0.00    -0.296 C  
HETATM   34  N   UNL     1     -11.185   6.470  73.097  1.00  0.00    -0.473 NA 
HETATM   35  H1  UNL     1     -11.142   5.593  73.615  1.00  0.00     0.000 HD 
HETATM   36  H2  UNL     1     -11.846   7.119  73.525  1.00  0.00     0.000 HD 
ENDBRANCH  32  33
ENDBRANCH  31  32
ENDBRANCH  29  31
ENDBRANCH  27  29
ENDBRANCH  11  27
ENDBRANCH   2   3
TORSDOF 9
ENDMDL
MODEL       17
REMARK 921   NORMALIZED FREE ENERGY PREDICTED BY IDOCK:   -6.98 KCAL/MOL
REMARK 922        TOTAL FREE ENERGY PREDICTED BY IDOCK:  -11.63 KCAL/MOL
REMARK 923 INTER-LIGAND FREE ENERGY PREDICTED BY IDOCK:   -9.97 KCAL/MOL
REMARK 924 INTRA-LIGAND FREE ENERGY PREDICTED BY IDOCK:   -1.66 KCAL/MOL
REMARK 927      BINDING AFFINITY PREDICTED BY RF-SCORE:    0.00 PKD
ROOT
HETATM    1  C   UNL     1      -9.568   7.375  72.949  1.00  0.00    -0.176 C  
HETATM    2  O   UNL     1      -8.853   8.094  71.948  1.00  0.00    -0.129 OA 
ENDROOT
BRANCH   2   3
HETATM    3  C   UNL     1      -9.682   8.789  71.095  1.00  0.00    -0.247 A  
HETATM    4  C   UNL     1     -10.861   9.259  71.620  1.00  0.00    -0.418 A  
HETATM    5  C   UNL     1     -11.689  10.038  70.804  1.00  0.00    -0.437 A  
HETATM    6  C   UNL     1     -11.219  10.456  69.517  1.00  0.00    -0.325 A  
HETATM    7  C   UNL     1     -13.096  10.275  71.285  1.00  0.00    -0.492 C  
HETATM    8  C   UNL     1     -11.729  11.509  68.681  1.00  0.00    -0.326 A  
HETATM    9  C   UNL     1     -11.397  11.550  67.314  1.00  0.00    -0.290 A  
HETATM   10  C   UNL     1     -10.110   9.726  69.021  1.00  0.00    -0.187 A  
HETATM   11  C   UNL     1      -9.771   9.783  67.654  1.00  0.00    -0.156 A  
HETATM   12  N   UNL     1      -9.351   8.932  69.803  1.00  0.00    -0.161 NA 
HETATM   13  C   UNL     1     -10.447  10.665  66.812  1.00  0.00    -0.303 A  
BRANCH   8  14
HETATM   14  O   UNL     1     -12.514  12.553  69.128  1.00  0.00     0.066 OA 
BRANCH  14  15
HETATM   15  C   UNL     1     -12.048  13.573  69.933  1.00  0.00    -0.341 A  
HETATM   16  C   UNL     1     -11.399  14.588  69.217  1.00  0.00    -0.317 A  
HETATM   17  C   UNL     1     -11.130  15.818  69.813  1.00  0.00    -0.322 A  
HETATM   18  F   UNL     1     -13.951  14.894  73.399  1.00  0.00    -0.196 F  
HETATM   19  F   UNL     1     -12.660  16.625  73.581  1.00  0.00    -0.491 F  
HETATM   20  C   UNL     1     -11.521  16.045  71.130  1.00  0.00    -0.470 A  
HETATM   21  C   UNL     1     -12.281  13.744  71.300  1.00  0.00    -0.314 A  
HETATM   22  C   UNL     1     -12.657  15.298  73.264  1.00  0.00    -0.499 C  
HETATM   23  F   UNL     1     -11.962  14.678  74.255  1.00  0.00    -0.575 F  
HETATM   24  C   UNL     1     -12.107  15.016  71.885  1.00  0.00    -0.443 A  
ENDBRANCH  14  15
ENDBRANCH   8  14
BRANCH   9  25
HETATM   25  O   UNL     1     -11.851  12.428  66.363  1.00  0.00    -0.486 OA 
HETATM   26  C   UNL     1     -11.112  12.537  65.154  1.00  0.00    -0.299 C  
ENDBRANCH   9  25
BRANCH  11  27
HETATM   27  N   UNL     1      -8.699   8.993  67.183  1.00  0.00    -0.116 NA 
HETATM   28  H   UNL     1      -7.838   8.949  67.728  1.00  0.00     0.000 HD 
BRANCH  27  29
HETATM   29  C   UNL     1      -8.793   8.236  65.934  1.00  0.00    -0.160 C  
HETATM   30  C   UNL     1      -7.639   8.683  65.033  1.00  0.00    -0.098 C  
BRANCH  29  31
HETATM   31  C   UNL     1      -8.680   6.723  66.201  1.00  0.00    -0.156 C  
BRANCH  31  32
HETATM   32  C   UNL     1      -9.161   6.270  67.584  1.00  0.00    -0.111 C  
BRANCH  32  33
HETATM   33  C   UNL     1     -10.679   6.144  67.750  1.00  0.00    -0.303 C  
HETATM   34  N   UNL     1     -11.369   6.042  66.462  1.00  0.00    -0.694 NA 
HETATM   35  H1  UNL     1     -12.379   5.958  66.572  1.00  0.00     0.000 HD 
HETATM   36  H2  UNL     1     -10.994   5.277  65.902  1.00  0.00     0.000 HD 
ENDBRANCH  32  33
ENDBRANCH  31  32
ENDBRANCH  29  31
ENDBRANCH  27  29
ENDBRANCH  11  27
ENDBRANCH   2   3
TORSDOF 9
ENDMDL
MODEL       18
REMARK 921   NORMALIZED FREE ENERGY PREDICTED BY IDOCK:   -6.92 KCAL/MOL
REMARK 922        TOTAL FREE ENERGY PREDICTED BY IDOCK:  -11.53 KCAL/MOL
REMARK 923 INTER-LIGAND FREE ENERGY PREDICTED BY IDOCK:  -10.13 KCAL/MOL
REMARK 924 INTRA-LIGAND FREE ENERGY PREDICTED BY IDOCK:   -1.41 KCAL/MOL
REMARK 927      BINDING AFFINITY PREDICTED BY RF-SCORE:    0.00 PKD
ROOT
HETATM    1  C   UNL     1     -11.441  16.342  64.353  1.00  0.00    -0.111 C  
HETATM    2  O   UNL     1     -12.214  15.164  64.143  1.00  0.00    -0.600 OA 
ENDROOT
BRANCH   2   3
HETATM    3  C   UNL     1     -11.749  14.083  64.860  1.00  0.00    -0.380 A  
HETATM    4  C   UNL     1     -11.201  13.050  64.140  1.00  0.00    -0.439 A  
HETATM    5  C   UNL     1     -10.646  11.973  64.840  1.00  0.00    -0.334 A  
HETATM    6  C   UNL     1     -10.516  12.048  66.264  1.00  0.00    -0.273 A  
HETATM    7  C   UNL     1     -10.340  10.728  64.048  1.00  0.00    -0.357 C  
HETATM    8  C   UNL     1      -9.691  11.248  67.128  1.00  0.00    -0.181 A  
HETATM    9  C   UNL     1      -9.950  11.202  68.510  1.00  0.00    -0.199 A  
HETATM   10  C   UNL     1     -11.312  13.044  66.883  1.00  0.00    -0.311 A  
HETATM   11  C   UNL     1     -11.556  13.004  68.270  1.00  0.00    -0.340 A  
HETATM   12  N   UNL     1     -11.892  14.048  66.193  1.00  0.00    -0.387 NA 
HETATM   13  C   UNL     1     -10.903  12.057  69.058  1.00  0.00    -0.223 A  
BRANCH   8  14
HETATM   14  O   UNL     1      -8.592  10.524  66.711  1.00  0.00    -0.124 OA 
BRANCH  14  15
HETATM   15  C   UNL     1      -8.504   9.149  66.791  1.00  0.00    -0.123 A  
HETATM   16  C   UNL     1      -7.236   8.699  67.180  1.00  0.00    -0.076 A  
HETATM   17  C   UNL     1      -7.044   7.383  67.596  1.00  0.00    -0.085 A  
HETATM   18  F   UNL     1     -11.625   6.657  67.988  1.00  0.00    -0.246 F  
HETATM   19  F   UNL     1     -10.337   4.919  68.112  1.00  0.00    -0.206 F  
HETATM   20  C   UNL     1      -8.127   6.510  67.639  1.00  0.00    -0.118 A  
HETATM   21  C   UNL     1      -9.547   8.227  66.670  1.00  0.00    -0.299 A  
HETATM   22  C   UNL     1     -10.595   6.025  67.358  1.00  0.00    -0.283 C  
HETATM   23  F   UNL     1     -11.096   5.568  66.180  1.00  0.00    -0.288 F  
HETATM   24  C   UNL     1      -9.391   6.923  67.185  1.00  0.00    -0.162 A  
ENDBRANCH  14  15
ENDBRANCH   8  14
BRANCH   9  25
HETATM   25  O   UNL     1      -9.320  10.441  69.460  1.00  0.00    -0.198 OA 
HETATM   26  C   UNL     1     -10.091   9.465  70.149  1.00  0.00    -0.233 C  
ENDBRANCH   9  25
BRANCH  11  27
HETATM   27  N   UNL     1     -12.406  13.976  68.843  1.00  0.00    -0.508 NA 
HETATM   28  H   UNL     1     -13.299  14.180  68.395  1.00  0.00     0.000 HD 
BRANCH  27  29
HETATM   29  C   UNL     1     -12.038  14.697  70.062  1.00  0.00    -0.329 C  
HETATM   30  C   UNL     1     -11.235  15.933  69.646  1.00  0.00    -0.331 C  
BRANCH  29  31
HETATM   31  C   UNL     1     -13.293  15.138  70.838  1.00  0.00    -0.463 C  
BRANCH  31  32
HETATM   32  C   UNL     1     -13.571  14.351  72.124  1.00  0.00    -0.529 C  
BRANCH  32  33
HETATM   33  C   UNL     1     -12.809  14.823  73.367  1.00  0.00    -0.475 C  
HETATM   34  N   UNL     1     -13.298  16.112  73.859  1.00  0.00    -0.918 NA 
HETATM   35  H1  UNL     1     -12.792  16.427  74.687  1.00  0.00     0.000 HD 
HETATM   36  H2  UNL     1     -14.303  16.085  74.031  1.00  0.00     0.000 HD 
ENDBRANCH  32  33
ENDBRANCH  31  32
ENDBRANCH  29  31
ENDBRANCH  27  29
ENDBRANCH  11  27
ENDBRANCH   2   3
TORSDOF 9
ENDMDL
MODEL       19
REMARK 921   NORMALIZED FREE ENERGY PREDICTED BY IDOCK:   -6.89 KCAL/MOL
REMARK 922        TOTAL FREE ENERGY PREDICTED BY IDOCK:  -11.48 KCAL/MOL
REMARK 923 INTER-LIGAND FREE ENERGY PREDICTED BY IDOCK:  -10.89 KCAL/MOL
REMARK 924 INTRA-LIGAND FREE ENERGY PREDICTED BY IDOCK:   -0.59 KCAL/MOL
REMARK 927      BINDING AFFINITY PREDICTED BY RF-SCORE:    0.00 PKD
ROOT
HETATM    1  C   UNL     1     -13.356   9.680  72.012  1.00  0.00    -0.457 C  
HETATM    2  O   UNL     1     -12.098  10.154  71.541  1.00  0.00    -0.377 OA 
ENDROOT
BRANCH   2   3
HETATM    3  C   UNL     1     -12.210  11.288  70.765  1.00  0.00    -0.380 A  
HETATM    4  C   UNL     1     -12.679  12.420  71.386  1.00  0.00    -0.346 A  
HETATM    5  C   UNL     1     -12.729  13.609  70.650  1.00  0.00    -0.303 A  
HETATM    6  C   UNL     1     -12.148  13.654  69.342  1.00  0.00    -0.364 A  
HETATM    7  C   UNL     1     -13.525  14.745  71.239  1.00  0.00    -0.478 C  
HETATM    8  C   UNL     1     -11.781  14.810  68.568  1.00  0.00    -0.317 A  
HETATM    9  C   UNL     1     -11.569  14.695  67.183  1.00  0.00    -0.378 A  
HETATM   10  C   UNL     1     -11.913  12.388  68.750  1.00  0.00    -0.229 A  
HETATM   11  C   UNL     1     -11.684  12.279  67.364  1.00  0.00    -0.335 A  
HETATM   12  N   UNL     1     -11.923  11.240  69.456  1.00  0.00    -0.338 NA 
HETATM   13  C   UNL     1     -11.556  13.433  66.592  1.00  0.00    -0.399 A  
BRANCH   8  14
HETATM   14  O   UNL     1     -11.567  16.068  69.095  1.00  0.00    -0.356 OA 
BRANCH  14  15
HETATM   15  C   UNL     1     -10.491  16.866  68.760  1.00  0.00    -0.343 A  
HETATM   16  C   UNL     1      -9.254  16.270  69.042  1.00  0.00    -0.253 A  
HETATM   17  C   UNL     1      -8.076  16.789  68.510  1.00  0.00    -0.241 A  
HETATM   18  F   UNL     1     -10.412  19.473  65.508  1.00  0.00    -0.486 F  
HETATM   19  F   UNL     1      -8.287  19.844  65.716  1.00  0.00    -0.358 F  
HETATM   20  C   UNL     1      -8.130  17.904  67.678  1.00  0.00    -0.224 A  
HETATM   21  C   UNL     1     -10.521  18.081  68.071  1.00  0.00    -0.388 A  
HETATM   22  C   UNL     1      -9.434  19.681  66.435  1.00  0.00    -0.395 C  
HETATM   23  F   UNL     1      -9.699  20.889  66.999  1.00  0.00    -0.576 F  
HETATM   24  C   UNL     1      -9.351  18.557  67.443  1.00  0.00    -0.287 A  
ENDBRANCH  14  15
ENDBRANCH   8  14
BRANCH   9  25
HETATM   25  O   UNL     1     -11.292  15.696  66.287  1.00  0.00    -0.120 OA 
HETATM   26  C   UNL     1     -10.413  15.399  65.210  1.00  0.00    -0.415 C  
ENDBRANCH   9  25
BRANCH  11  27
HETATM   27  N   UNL     1     -11.518  10.996  66.798  1.00  0.00    -0.296 NA 
HETATM   28  H   UNL     1     -12.331  10.390  66.694  1.00  0.00     0.000 HD 
BRANCH  27  29
HETATM   29  C   UNL     1     -10.208  10.513  66.358  1.00  0.00    -0.237 C  
HETATM   30  C   UNL     1      -9.850  11.253  65.067  1.00  0.00    -0.307 C  
BRANCH  29  31
HETATM   31  C   UNL     1      -9.134  10.795  67.426  1.00  0.00    -0.148 C  
BRANCH  31  32
HETATM   32  C   UNL     1      -7.820  11.373  66.888  1.00  0.00    -0.158 C  
BRANCH  32  33
HETATM   33  C   UNL     1      -7.429  12.749  67.435  1.00  0.00    -0.145 C  
HETATM   34  N   UNL     1      -6.040  13.095  67.122  1.00  0.00    -0.460 NA 
HETATM   35  H1  UNL     1      -5.780  14.012  67.485  1.00  0.00     0.000 HD 
HETATM   36  H2  UNL     1      -5.861  13.032  66.120  1.00  0.00     0.000 HD 
ENDBRANCH  32  33
ENDBRANCH  31  32
ENDBRANCH  29  31
ENDBRANCH  27  29
ENDBRANCH  11  27
ENDBRANCH   2   3
TORSDOF 9
ENDMDL
MODEL       20
REMARK 921   NORMALIZED FREE ENERGY PREDICTED BY IDOCK:   -6.84 KCAL/MOL
REMARK 922        TOTAL FREE ENERGY PREDICTED BY IDOCK:  -11.41 KCAL/MOL
REMARK 923 INTER-LIGAND FREE ENERGY PREDICTED BY IDOCK:  -10.68 KCAL/MOL
REMARK 924 INTRA-LIGAND FREE ENERGY PREDICTED BY IDOCK:   -0.73 KCAL/MOL
REMARK 927      BINDING AFFINITY PREDICTED BY RF-SCORE:    0.00 PKD
ROOT
HETATM    1  C   UNL     1      -9.503   4.953  67.693  1.00  0.00    -0.141 C  
HETATM    2  O   UNL     1      -8.953   5.919  66.802  1.00  0.00    -0.116 OA 
ENDROOT
BRANCH   2   3
HETATM    3  C   UNL     1      -9.362   7.204  67.086  1.00  0.00    -0.140 A  
HETATM    4  C   UNL     1      -9.471   8.068  66.025  1.00  0.00    -0.123 A  
HETATM    5  C   UNL     1      -9.961   9.357  66.266  1.00  0.00    -0.353 A  
HETATM    6  C   UNL     1     -10.481   9.684  67.559  1.00  0.00    -0.321 A  
HETATM    7  C   UNL     1      -9.780  10.373  65.168  1.00  0.00    -0.353 C  
HETATM    8  C   UNL     1     -11.326  10.788  67.928  1.00  0.00    -0.299 A  
HETATM    9  C   UNL     1     -11.444  11.168  69.277  1.00  0.00    -0.294 A  
HETATM   10  C   UNL     1     -10.103   8.795  68.596  1.00  0.00    -0.189 A  
HETATM   11  C   UNL     1     -10.238   9.173  69.947  1.00  0.00    -0.205 A  
HETATM   12  N   UNL     1      -9.578   7.576  68.356  1.00  0.00    -0.148 NA 
HETATM   13  C   UNL     1     -10.870  10.374  70.267  1.00  0.00    -0.308 A  
BRANCH   8  14
HETATM   14  O   UNL     1     -12.099  11.512  67.042  1.00  0.00    -0.443 OA 
BRANCH  14  15
HETATM   15  C   UNL     1     -11.617  12.556  66.279  1.00  0.00    -0.394 A  
HETATM   16  C   UNL     1     -12.402  12.823  65.150  1.00  0.00    -0.555 A  
HETATM   17  C   UNL     1     -12.243  14.009  64.437  1.00  0.00    -0.457 A  
HETATM   18  F   UNL     1      -9.685  15.909  67.830  1.00  0.00    -0.215 F  
HETATM   19  F   UNL     1      -9.740  16.956  65.933  1.00  0.00    -0.295 F  
HETATM   20  C   UNL     1     -11.302  14.944  64.858  1.00  0.00    -0.415 A  
HETATM   21  C   UNL     1     -10.560  13.415  66.593  1.00  0.00    -0.282 A  
HETATM   22  C   UNL     1      -9.532  15.727  66.488  1.00  0.00    -0.272 C  
HETATM   23  F   UNL     1      -8.216  15.446  66.293  1.00  0.00    -0.268 F  
HETATM   24  C   UNL     1     -10.456  14.663  65.943  1.00  0.00    -0.325 A  
ENDBRANCH  14  15
ENDBRANCH   8  14
BRANCH   9  25
HETATM   25  O   UNL     1     -12.136  12.233  69.795  1.00  0.00    -0.287 OA 
HETATM   26  C   UNL     1     -12.652  12.112  71.114  1.00  0.00    -0.260 C  
ENDBRANCH   9  25
BRANCH  11  27
HETATM   27  N   UNL     1      -9.792   8.288  70.952  1.00  0.00    -0.179 NA 
HETATM   28  H   UNL     1      -8.855   8.406  71.338  1.00  0.00     0.000 HD 
BRANCH  27  29
HETATM   29  C   UNL     1     -10.638   7.204  71.453  1.00  0.00    -0.216 C  
HETATM   30  C   UNL     1     -10.834   7.424  72.955  1.00  0.00    -0.423 C  
BRANCH  29  31
HETATM   31  C   UNL     1     -12.008   7.209  70.750  1.00  0.00    -0.352 C  
BRANCH  31  32
HETATM   32  C   UNL     1     -13.219   7.245  71.689  1.00  0.00    -0.421 C  
BRANCH  32  33
HETATM   33  C   UNL     1     -13.949   8.589  71.777  1.00  0.00    -0.431 C  
HETATM   34  N   UNL     1     -14.254   8.964  73.160  1.00  0.00    -1.200 NA 
HETATM   35  H1  UNL     1     -14.740   9.859  73.219  1.00  0.00     0.000 HD 
HETATM   36  H2  UNL     1     -13.413   8.963  73.736  1.00  0.00     0.000 HD 
ENDBRANCH  32  33
ENDBRANCH  31  32
ENDBRANCH  29  31
ENDBRANCH  27  29
ENDBRANCH  11  27
ENDBRANCH   2   3
TORSDOF 9
ENDMDL
MODEL       21
REMARK 921   NORMALIZED FREE ENERGY PREDICTED BY IDOCK:   -6.81 KCAL/MOL
REMARK 922        TOTAL FREE ENERGY PREDICTED BY IDOCK:  -11.36 KCAL/MOL
REMARK 923 INTER-LIGAND FREE ENERGY PREDICTED BY IDOCK:  -10.01 KCAL/MOL
REMARK 924 INTRA-LIGAND FREE ENERGY PREDICTED BY IDOCK:   -1.35 KCAL/MOL
REMARK 927      BINDING AFFINITY PREDICTED BY RF-SCORE:    0.00 PKD
ROOT
HETATM    1  C   UNL     1     -10.309   6.749  73.480  1.00  0.00    -0.316 C  
HETATM    2  O   UNL     1     -11.427   7.540  73.085  1.00  0.00    -0.282 OA 
ENDROOT
BRANCH   2   3
HETATM    3  C   UNL     1     -11.286   8.074  71.823  1.00  0.00    -0.266 A  
HETATM    4  C   UNL     1     -11.518   9.420  71.690  1.00  0.00    -0.463 A  
HETATM    5  C   UNL     1     -11.305  10.011  70.439  1.00  0.00    -0.392 A  
HETATM    6  C   UNL     1     -10.705   9.244  69.389  1.00  0.00    -0.222 A  
HETATM    7  C   UNL     1     -11.857  11.398  70.235  1.00  0.00    -0.438 C  
HETATM    8  C   UNL     1     -10.091   9.717  68.178  1.00  0.00    -0.175 A  
HETATM    9  C   UNL     1      -9.883   8.837  67.101  1.00  0.00    -0.207 A  
HETATM   10  C   UNL     1     -10.730   7.841  69.587  1.00  0.00    -0.223 A  
HETATM   11  C   UNL     1     -10.505   6.963  68.508  1.00  0.00    -0.203 A  
HETATM   12  N   UNL     1     -10.992   7.278  70.784  1.00  0.00    -0.245 NA 
HETATM   13  C   UNL     1     -10.124   7.476  67.269  1.00  0.00    -0.300 A  
BRANCH   8  14
HETATM   14  O   UNL     1      -9.627  11.004  67.986  1.00  0.00    -0.161 OA 
BRANCH  14  15
HETATM   15  C   UNL     1     -10.272  11.942  67.206  1.00  0.00    -0.200 A  
HETATM   16  C   UNL     1      -9.791  13.244  67.399  1.00  0.00    -0.227 A  
HETATM   17  C   UNL     1     -10.109  14.260  66.501  1.00  0.00    -0.283 A  
HETATM   18  F   UNL     1     -11.711  11.221  63.360  1.00  0.00    -0.446 F  
HETATM   19  F   UNL     1     -12.119  13.318  62.999  1.00  0.00    -0.608 F  
HETATM   20  C   UNL     1     -10.902  13.976  65.393  1.00  0.00    -0.331 A  
HETATM   21  C   UNL     1     -11.205  11.703  66.194  1.00  0.00    -0.314 A  
HETATM   22  C   UNL     1     -12.198  12.347  63.954  1.00  0.00    -0.513 C  
HETATM   23  F   UNL     1     -13.524  12.125  64.155  1.00  0.00    -0.400 F  
HETATM   24  C   UNL     1     -11.452  12.695  65.222  1.00  0.00    -0.368 A  
ENDBRANCH  14  15
ENDBRANCH   8  14
BRANCH   9  25
HETATM   25  O   UNL     1      -9.387   9.131  65.856  1.00  0.00    -0.207 OA 
HETATM   26  C   UNL     1      -8.002   8.913  65.624  1.00  0.00    -0.098 C  
ENDBRANCH   9  25
BRANCH  11  27
HETATM   27  N   UNL     1     -10.600   5.571  68.729  1.00  0.00    -0.197 NA 
HETATM   28  H   UNL     1     -11.519   5.153  68.874  1.00  0.00     0.000 HD 
BRANCH  27  29
HETATM   29  C   UNL     1      -9.415   4.714  68.756  1.00  0.00    -0.151 C  
HETATM   30  C   UNL     1      -9.386   4.003  70.112  1.00  0.00    -0.240 C  
BRANCH  29  31
HETATM   31  C   UNL     1      -9.471   3.665  67.629  1.00  0.00    -0.234 C  
BRANCH  31  32
HETATM   32  C   UNL     1      -8.957   4.148  66.267  1.00  0.00    -0.123 C  
BRANCH  32  33
HETATM   33  C   UNL     1      -9.983   4.137  65.130  1.00  0.00    -0.210 C  
HETATM   34  N   UNL     1     -11.245   4.770  65.518  1.00  0.00    -0.968 NA 
HETATM   35  H1  UNL     1     -11.929   4.763  64.761  1.00  0.00     0.000 HD 
HETATM   36  H2  UNL     1     -11.092   5.715  65.868  1.00  0.00     0.000 HD 
ENDBRANCH  32  33
ENDBRANCH  31  32
ENDBRANCH  29  31
ENDBRANCH  27  29
ENDBRANCH  11  27
ENDBRANCH   2   3
TORSDOF 9
ENDMDL
MODEL       22
REMARK 921   NORMALIZED FREE ENERGY PREDICTED BY IDOCK:   -6.80 KCAL/MOL
REMARK 922        TOTAL FREE ENERGY PREDICTED BY IDOCK:  -11.35 KCAL/MOL
REMARK 923 INTER-LIGAND FREE ENERGY PREDICTED BY IDOCK:   -9.01 KCAL/MOL
REMARK 924 INTRA-LIGAND FREE ENERGY PREDICTED BY IDOCK:   -2.34 KCAL/MOL
REMARK 927      BINDING AFFINITY PREDICTED BY RF-SCORE:    0.00 PKD
ROOT
HETATM    1  C   UNL     1      -7.952   8.689  63.932  1.00  0.00    -0.159 C  
HETATM    2  O   UNL     1      -7.909   9.832  64.782  1.00  0.00    -0.122 OA 
ENDROOT
BRANCH   2   3
HETATM    3  C   UNL     1      -8.897   9.820  65.743  1.00  0.00    -0.153 A  
HETATM    4  C   UNL     1      -9.339   8.590  66.164  1.00  0.00    -0.279 A  
HETATM    5  C   UNL     1     -10.282   8.540  67.196  1.00  0.00    -0.355 A  
HETATM    6  C   UNL     1     -10.636   9.743  67.888  1.00  0.00    -0.310 A  
HETATM    7  C   UNL     1     -10.977   7.222  67.425  1.00  0.00    -0.257 C  
HETATM    8  C   UNL     1     -11.291   9.880  69.161  1.00  0.00    -0.039 A  
HETATM    9  C   UNL     1     -11.885  11.103  69.522  1.00  0.00    -0.353 A  
HETATM   10  C   UNL     1     -10.289  10.941  67.215  1.00  0.00    -0.216 A  
HETATM   11  C   UNL     1     -10.875  12.167  67.591  1.00  0.00    -0.233 A  
HETATM   12  N   UNL     1      -9.421  10.973  66.184  1.00  0.00    -0.196 NA 
HETATM   13  C   UNL     1     -11.697  12.222  68.715  1.00  0.00    -0.390 A  
BRANCH   8  14
HETATM   14  O   UNL     1     -11.353   8.889  70.120  1.00  0.00    -0.217 OA 
BRANCH  14  15
HETATM   15  C   UNL     1     -10.421   8.736  71.126  1.00  0.00    -0.245 A  
HETATM   16  C   UNL     1     -10.949   8.149  72.283  1.00  0.00    -0.399 A  
HETATM   17  C   UNL     1     -10.108   7.652  73.277  1.00  0.00    -0.393 A  
HETATM   18  F   UNL     1      -6.387   7.896  70.490  1.00  0.00    -0.036 F  
HETATM   19  F   UNL     1      -6.022   7.511  72.591  1.00  0.00    -0.040 F  
HETATM   20  C   UNL     1      -8.728   7.729  73.111  1.00  0.00    -0.250 A  
HETATM   21  C   UNL     1      -9.045   8.966  71.045  1.00  0.00    -0.303 A  
HETATM   22  C   UNL     1      -6.690   8.342  71.741  1.00  0.00    -0.076 C  
HETATM   23  F   UNL     1      -6.097   9.559  71.862  1.00  0.00    -0.074 F  
HETATM   24  C   UNL     1      -8.181   8.378  71.993  1.00  0.00    -0.212 A  
ENDBRANCH  14  15
ENDBRANCH   8  14
BRANCH   9  25
HETATM   25  O   UNL     1     -12.611  11.386  70.651  1.00  0.00    -0.314 OA 
HETATM   26  C   UNL     1     -12.643  12.734  71.100  1.00  0.00    -0.271 C  
ENDBRANCH   9  25
BRANCH  11  27
HETATM   27  N   UNL     1     -10.554  13.330  66.858  1.00  0.00    -0.263 NA 
HETATM   28  H   UNL     1      -9.575  13.541  66.664  1.00  0.00     0.000 HD 
BRANCH  27  29
HETATM   29  C   UNL     1     -11.590  14.241  66.369  1.00  0.00    -0.372 C  
HETATM   30  C   UNL     1     -10.892  15.376  65.615  1.00  0.00    -0.363 C  
BRANCH  29  31
HETATM   31  C   UNL     1     -12.556  13.511  65.417  1.00  0.00    -0.531 C  
BRANCH  31  32
HETATM   32  C   UNL     1     -12.161  13.548  63.936  1.00  0.00    -0.493 C  
BRANCH  32  33
HETATM   33  C   UNL     1     -11.338  12.355  63.441  1.00  0.00    -0.433 C  
HETATM   34  N   UNL     1      -9.900  12.557  63.630  1.00  0.00    -0.667 NA 
HETATM   35  H1  UNL     1      -9.352  11.763  63.301  1.00  0.00     0.000 HD 
HETATM   36  H2  UNL     1      -9.683  12.776  64.602  1.00  0.00     0.000 HD 
ENDBRANCH  32  33
ENDBRANCH  31  32
ENDBRANCH  29  31
ENDBRANCH  27  29
ENDBRANCH  11  27
ENDBRANCH   2   3
TORSDOF 9
ENDMDL
MODEL       23
REMARK 921   NORMALIZED FREE ENERGY PREDICTED BY IDOCK:   -6.80 KCAL/MOL
REMARK 922        TOTAL FREE ENERGY PREDICTED BY IDOCK:  -11.34 KCAL/MOL
REMARK 923 INTER-LIGAND FREE ENERGY PREDICTED BY IDOCK:   -9.21 KCAL/MOL
REMARK 924 INTRA-LIGAND FREE ENERGY PREDICTED BY IDOCK:   -2.13 KCAL/MOL
REMARK 927      BINDING AFFINITY PREDICTED BY RF-SCORE:    0.00 PKD
ROOT
HETATM    1  C   UNL     1      -8.838   6.992  71.061  1.00  0.00    -0.146 C  
HETATM    2  O   UNL     1      -8.466   8.360  70.926  1.00  0.00    -0.120 OA 
ENDROOT
BRANCH   2   3
HETATM    3  C   UNL     1      -9.392   9.100  70.222  1.00  0.00    -0.220 A  
HETATM    4  C   UNL     1     -10.540   9.452  70.888  1.00  0.00    -0.390 A  
HETATM    5  C   UNL     1     -11.465  10.271  70.230  1.00  0.00    -0.395 A  
HETATM    6  C   UNL     1     -11.124  10.846  68.964  1.00  0.00    -0.302 A  
HETATM    7  C   UNL     1     -12.835  10.386  70.846  1.00  0.00    -0.482 C  
HETATM    8  C   UNL     1     -11.745  11.954  68.291  1.00  0.00    -0.321 A  
HETATM    9  C   UNL     1     -11.531  12.156  66.915  1.00  0.00    -0.351 A  
HETATM   10  C   UNL     1     -10.032  10.228  68.304  1.00  0.00    -0.147 A  
HETATM   11  C   UNL     1      -9.812  10.446  66.929  1.00  0.00    -0.191 A  
HETATM   12  N   UNL     1      -9.177   9.395  68.932  1.00  0.00    -0.138 NA 
HETATM   13  C   UNL     1     -10.592  11.377  66.245  1.00  0.00    -0.312 A  
BRANCH   8  14
HETATM   14  O   UNL     1     -12.531  12.905  68.911  1.00  0.00     0.067 OA 
BRANCH  14  15
HETATM   15  C   UNL     1     -12.049  13.824  69.821  1.00  0.00    -0.340 A  
HETATM   16  C   UNL     1     -11.280  14.835  69.229  1.00  0.00    -0.303 A  
HETATM   17  C   UNL     1     -10.964  15.994  69.934  1.00  0.00    -0.353 A  
HETATM   18  F   UNL     1     -14.086  15.034  73.251  1.00  0.00    -0.254 F  
HETATM   19  F   UNL     1     -12.689  16.642  73.648  1.00  0.00    -0.483 F  
HETATM   20  C   UNL     1     -11.428  16.154  71.237  1.00  0.00    -0.433 A  
HETATM   21  C   UNL     1     -12.363  13.913  71.179  1.00  0.00    -0.440 A  
HETATM   22  C   UNL     1     -12.760  15.345  73.231  1.00  0.00    -0.508 C  
HETATM   23  F   UNL     1     -12.183  14.603  74.213  1.00  0.00    -0.613 F  
HETATM   24  C   UNL     1     -12.138  15.122  71.871  1.00  0.00    -0.448 A  
ENDBRANCH  14  15
ENDBRANCH   8  14
BRANCH   9  25
HETATM   25  O   UNL     1     -12.099  13.105  66.105  1.00  0.00    -0.407 OA 
HETATM   26  C   UNL     1     -12.377  12.749  64.757  1.00  0.00    -0.478 C  
ENDBRANCH   9  25
BRANCH  11  27
HETATM   27  N   UNL     1      -8.752   9.764  66.291  1.00  0.00    -0.137 NA 
HETATM   28  H   UNL     1      -8.770   8.745  66.251  1.00  0.00     0.000 HD 
BRANCH  27  29
HETATM   29  C   UNL     1      -7.630  10.482  65.686  1.00  0.00    -0.134 C  
HETATM   30  C   UNL     1      -6.946  11.292  66.790  1.00  0.00    -0.141 C  
BRANCH  29  31
HETATM   31  C   UNL     1      -6.618   9.497  65.070  1.00  0.00    -0.088 C  
BRANCH  31  32
HETATM   32  C   UNL     1      -6.918   8.015  65.323  1.00  0.00    -0.063 C  
BRANCH  32  33
HETATM   33  C   UNL     1      -6.297   7.421  66.591  1.00  0.00    -0.045 C  
HETATM   34  N   UNL     1      -7.176   7.558  67.754  1.00  0.00    -0.091 NA 
HETATM   35  H1  UNL     1      -6.763   7.162  68.598  1.00  0.00     0.000 HD 
HETATM   36  H2  UNL     1      -8.095   7.156  67.570  1.00  0.00     0.000 HD 
ENDBRANCH  32  33
ENDBRANCH  31  32
ENDBRANCH  29  31
ENDBRANCH  27  29
ENDBRANCH  11  27
ENDBRANCH   2   3
TORSDOF 9
ENDMDL
MODEL       24
REMARK 921   NORMALIZED FREE ENERGY PREDICTED BY IDOCK:   -6.77 KCAL/MOL
REMARK 922        TOTAL FREE ENERGY PREDICTED BY IDOCK:  -11.30 KCAL/MOL
REMARK 923 INTER-LIGAND FREE ENERGY PREDICTED BY IDOCK:   -9.57 KCAL/MOL
REMARK 924 INTRA-LIGAND FREE ENERGY PREDICTED BY IDOCK:   -1.73 KCAL/MOL
REMARK 927      BINDING AFFINITY PREDICTED BY RF-SCORE:    0.00 PKD
ROOT
HETATM    1  C   UNL     1      -6.029  15.861  69.735  1.00  0.00    -0.163 C  
HETATM    2  O   UNL     1      -5.987  14.438  69.809  1.00  0.00    -0.103 OA 
ENDROOT
BRANCH   2   3
HETATM    3  C   UNL     1      -6.959  13.834  69.042  1.00  0.00    -0.104 A  
HETATM    4  C   UNL     1      -6.928  12.463  68.968  1.00  0.00    -0.071 A  
HETATM    5  C   UNL     1      -7.948  11.812  68.264  1.00  0.00    -0.147 A  
HETATM    6  C   UNL     1      -9.067  12.566  67.785  1.00  0.00    -0.191 A  
HETATM    7  C   UNL     1      -7.730  10.359  67.933  1.00  0.00    -0.089 C  
HETATM    8  C   UNL     1     -10.353  12.081  67.361  1.00  0.00    -0.207 A  
HETATM    9  C   UNL     1     -11.196  12.899  66.587  1.00  0.00    -0.304 A  
HETATM   10  C   UNL     1      -8.862  13.967  67.729  1.00  0.00    -0.189 A  
HETATM   11  C   UNL     1      -9.720  14.785  66.966  1.00  0.00    -0.237 A  
HETATM   12  N   UNL     1      -7.844  14.581  68.364  1.00  0.00    -0.127 NA 
HETATM   13  C   UNL     1     -10.852  14.231  66.371  1.00  0.00    -0.307 A  
BRANCH   8  14
HETATM   14  O   UNL     1     -10.874  10.847  67.697  1.00  0.00    -0.225 OA 
BRANCH  14  15
HETATM   15  C   UNL     1     -11.188  10.473  68.988  1.00  0.00    -0.259 A  
HETATM   16  C   UNL     1     -11.921  11.446  69.681  1.00  0.00    -0.416 A  
HETATM   17  C   UNL     1     -12.572  11.132  70.872  1.00  0.00    -0.483 A  
HETATM   18  F   UNL     1     -12.021   6.563  70.170  1.00  0.00    -0.459 F  
HETATM   19  F   UNL     1     -12.707   7.184  72.129  1.00  0.00    -0.311 F  
HETATM   20  C   UNL     1     -12.504   9.834  71.371  1.00  0.00    -0.482 A  
HETATM   21  C   UNL     1     -10.980   9.225  69.580  1.00  0.00    -0.192 A  
HETATM   22  C   UNL     1     -11.749   7.426  71.189  1.00  0.00    -0.294 C  
HETATM   23  F   UNL     1     -10.575   7.009  71.733  1.00  0.00    -0.212 F  
HETATM   24  C   UNL     1     -11.716   8.866  70.729  1.00  0.00    -0.269 A  
ENDBRANCH  14  15
ENDBRANCH   8  14
BRANCH   9  25
HETATM   25  O   UNL     1     -12.410  12.574  66.036  1.00  0.00    -0.615 OA 
HETATM   26  C   UNL     1     -12.492  12.478  64.620  1.00  0.00    -0.463 C  
ENDBRANCH   9  25
BRANCH  11  27
HETATM   27  N   UNL     1      -9.447  16.168  66.881  1.00  0.00    -0.223 NA 
HETATM   28  H   UNL     1      -8.517  16.474  66.597  1.00  0.00     0.000 HD 
BRANCH  27  29
HETATM   29  C   UNL     1     -10.466  17.172  67.190  1.00  0.00    -0.291 C  
HETATM   30  C   UNL     1     -10.204  17.676  68.613  1.00  0.00    -0.377 C  
BRANCH  29  31
HETATM   31  C   UNL     1     -10.387  18.353  66.205  1.00  0.00    -0.440 C  
BRANCH  31  32
HETATM   32  C   UNL     1      -9.760  19.632  66.773  1.00  0.00    -0.487 C  
BRANCH  32  33
HETATM   33  C   UNL     1      -8.285  19.857  66.426  1.00  0.00    -0.335 C  
HETATM   34  N   UNL     1      -7.673  18.674  65.817  1.00  0.00    -0.501 NA 
HETATM   35  H1  UNL     1      -6.691  18.823  65.586  1.00  0.00     0.000 HD 
HETATM   36  H2  UNL     1      -8.201  18.364  65.001  1.00  0.00     0.000 HD 
ENDBRANCH  32  33
ENDBRANCH  31  32
ENDBRANCH  29  31
ENDBRANCH  27  29
ENDBRANCH  11  27
ENDBRANCH   2   3
TORSDOF 9
ENDMDL
MODEL       25
REMARK 921   NORMALIZED FREE ENERGY PREDICTED BY IDOCK:   -6.75 KCAL/MOL
REMARK 922        TOTAL FREE ENERGY PREDICTED BY IDOCK:  -11.27 KCAL/MOL
REMARK 923 INTER-LIGAND FREE ENERGY PREDICTED BY IDOCK:   -9.19 KCAL/MOL
REMARK 924 INTRA-LIGAND FREE ENERGY PREDICTED BY IDOCK:   -2.07 KCAL/MOL
REMARK 927      BINDING AFFINITY PREDICTED BY RF-SCORE:    0.00 PKD
ROOT
HETATM    1  C   UNL     1      -7.315   8.046  64.714  1.00  0.00    -0.082 C  
HETATM    2  O   UNL     1      -8.679   7.949  65.114  1.00  0.00    -0.086 OA 
ENDROOT
BRANCH   2   3
HETATM    3  C   UNL     1      -8.995   8.801  66.150  1.00  0.00    -0.185 A  
HETATM    4  C   UNL     1      -8.506  10.082  66.071  1.00  0.00    -0.137 A  
HETATM    5  C   UNL     1      -8.874  10.996  67.064  1.00  0.00    -0.143 A  
HETATM    6  C   UNL     1      -9.865  10.628  68.030  1.00  0.00    -0.177 A  
HETATM    7  C   UNL     1      -8.091  12.282  67.134  1.00  0.00    -0.173 C  
HETATM    8  C   UNL     1     -10.629  11.486  68.895  1.00  0.00    -0.204 A  
HETATM    9  C   UNL     1     -11.282  10.953  70.022  1.00  0.00    -0.263 A  
HETATM   10  C   UNL     1     -10.109   9.236  68.133  1.00  0.00    -0.187 A  
HETATM   11  C   UNL     1     -10.777   8.708  69.255  1.00  0.00    -0.136 A  
HETATM   12  N   UNL     1      -9.701   8.353  67.199  1.00  0.00    -0.173 NA 
HETATM   13  C   UNL     1     -11.319   9.573  70.205  1.00  0.00    -0.284 A  
BRANCH   8  14
HETATM   14  O   UNL     1     -10.824  12.837  68.685  1.00  0.00    -0.242 OA 
BRANCH  14  15
HETATM   15  C   UNL     1     -11.303  13.367  67.504  1.00  0.00    -0.298 A  
HETATM   16  C   UNL     1     -11.031  14.735  67.363  1.00  0.00    -0.313 A  
HETATM   17  C   UNL     1     -11.172  15.365  66.129  1.00  0.00    -0.161 A  
HETATM   18  F   UNL     1     -11.477  11.295  63.891  1.00  0.00    -0.444 F  
HETATM   19  F   UNL     1     -11.968  13.079  62.764  1.00  0.00    -0.466 F  
HETATM   20  C   UNL     1     -11.575  14.625  65.021  1.00  0.00    -0.385 A  
HETATM   21  C   UNL     1     -11.872  12.671  66.434  1.00  0.00    -0.466 A  
HETATM   22  C   UNL     1     -12.225  12.433  63.937  1.00  0.00    -0.513 C  
HETATM   23  F   UNL     1     -13.523  12.035  63.870  1.00  0.00    -0.432 F  
HETATM   24  C   UNL     1     -11.921  13.271  65.158  1.00  0.00    -0.413 A  
ENDBRANCH  14  15
ENDBRANCH   8  14
BRANCH   9  25
HETATM   25  O   UNL     1     -11.982  11.630  70.987  1.00  0.00    -0.223 OA 
HETATM   26  C   UNL     1     -13.088  10.971  71.591  1.00  0.00    -0.438 C  
ENDBRANCH   9  25
BRANCH  11  27
HETATM   27  N   UNL     1     -10.947   7.310  69.355  1.00  0.00    -0.402 NA 
HETATM   28  H   UNL     1     -11.768   6.878  68.933  1.00  0.00     0.000 HD 
BRANCH  27  29
HETATM   29  C   UNL     1      -9.973   6.465  70.048  1.00  0.00    -0.169 C  
HETATM   30  C   UNL     1     -10.459   6.282  71.488  1.00  0.00    -0.266 C  
BRANCH  29  31
HETATM   31  C   UNL     1      -9.859   5.089  69.366  1.00  0.00    -0.273 C  
BRANCH  31  32
HETATM   32  C   UNL     1      -9.302   5.116  67.938  1.00  0.00    -0.139 C  
BRANCH  32  33
HETATM   33  C   UNL     1     -10.307   4.789  66.829  1.00  0.00    -0.181 C  
HETATM   34  N   UNL     1     -11.186   5.921  66.528  1.00  0.00    -0.741 NA 
HETATM   35  H1  UNL     1     -11.855   5.704  65.790  1.00  0.00     0.000 HD 
HETATM   36  H2  UNL     1     -10.648   6.757  66.303  1.00  0.00     0.000 HD 
ENDBRANCH  32  33
ENDBRANCH  31  32
ENDBRANCH  29  31
ENDBRANCH  27  29
ENDBRANCH  11  27
ENDBRANCH   2   3
TORSDOF 9
ENDMDL
MODEL       26
REMARK 921   NORMALIZED FREE ENERGY PREDICTED BY IDOCK:   -6.73 KCAL/MOL
REMARK 922        TOTAL FREE ENERGY PREDICTED BY IDOCK:  -11.25 KCAL/MOL
REMARK 923 INTER-LIGAND FREE ENERGY PREDICTED BY IDOCK:   -9.44 KCAL/MOL
REMARK 924 INTRA-LIGAND FREE ENERGY PREDICTED BY IDOCK:   -1.81 KCAL/MOL
REMARK 927      BINDING AFFINITY PREDICTED BY RF-SCORE:    0.00 PKD
ROOT
HETATM    1  C   UNL     1     -10.549  18.813  67.485  1.00  0.00    -0.435 C  
HETATM    2  O   UNL     1     -10.392  17.826  68.500  1.00  0.00    -0.359 OA 
ENDROOT
BRANCH   2   3
HETATM    3  C   UNL     1     -10.706  16.556  68.066  1.00  0.00    -0.343 A  
HETATM    4  C   UNL     1     -10.610  16.321  66.716  1.00  0.00    -0.257 A  
HETATM    5  C   UNL     1     -10.843  15.023  66.249  1.00  0.00    -0.333 A  
HETATM    6  C   UNL     1     -11.012  13.955  67.188  1.00  0.00    -0.298 A  
HETATM    7  C   UNL     1     -11.040  14.855  64.765  1.00  0.00    -0.395 C  
HETATM    8  C   UNL     1     -10.916  12.539  66.955  1.00  0.00    -0.267 A  
HETATM    9  C   UNL     1     -11.460  11.632  67.882  1.00  0.00    -0.311 A  
HETATM   10  C   UNL     1     -11.312  14.366  68.511  1.00  0.00    -0.282 A  
HETATM   11  C   UNL     1     -11.841  13.450  69.441  1.00  0.00    -0.335 A  
HETATM   12  N   UNL     1     -11.138  15.633  68.938  1.00  0.00    -0.270 NA 
HETATM   13  C   UNL     1     -11.947  12.102  69.099  1.00  0.00    -0.311 A  
BRANCH   8  14
HETATM   14  O   UNL     1     -10.270  11.965  65.878  1.00  0.00    -0.222 OA 
BRANCH  14  15
HETATM   15  C   UNL     1      -9.077  11.278  65.977  1.00  0.00    -0.209 A  
HETATM   16  C   UNL     1      -8.071  12.011  66.620  1.00  0.00    -0.023 A  
HETATM   17  C   UNL     1      -6.910  11.385  67.068  1.00  0.00    -0.137 A  
HETATM   18  F   UNL     1      -8.768   7.155  66.505  1.00  0.00    -0.113 F  
HETATM   19  F   UNL     1      -6.639   7.252  66.894  1.00  0.00    -0.051 F  
HETATM   20  C   UNL     1      -6.754  10.014  66.886  1.00  0.00    -0.079 A  
HETATM   21  C   UNL     1      -8.840   9.942  65.643  1.00  0.00    -0.184 A  
HETATM   22  C   UNL     1      -7.621   7.770  66.102  1.00  0.00    -0.087 C  
HETATM   23  F   UNL     1      -7.369   7.314  64.846  1.00  0.00    -0.064 F  
HETATM   24  C   UNL     1      -7.719   9.276  66.181  1.00  0.00    -0.096 A  
ENDBRANCH  14  15
ENDBRANCH   8  14
BRANCH   9  25
HETATM   25  O   UNL     1     -11.527  10.265  67.784  1.00  0.00    -0.351 OA 
HETATM   26  C   UNL     1     -10.644   9.497  68.591  1.00  0.00    -0.210 C  
ENDBRANCH   9  25
BRANCH  11  27
HETATM   27  N   UNL     1     -12.188  13.909  70.731  1.00  0.00    -0.358 NA 
HETATM   28  H   UNL     1     -11.459  14.284  71.337  1.00  0.00     0.000 HD 
BRANCH  27  29
HETATM   29  C   UNL     1     -13.567  13.861  71.219  1.00  0.00    -0.145 C  
HETATM   30  C   UNL     1     -13.609  12.881  72.394  1.00  0.00    -0.577 C  
BRANCH  29  31
HETATM   31  C   UNL     1     -14.029  15.252  71.694  1.00  0.00    -0.627 C  
BRANCH  31  32
HETATM   32  C   UNL     1     -13.503  15.676  73.070  1.00  0.00    -0.654 C  
BRANCH  32  33
HETATM   33  C   UNL     1     -12.128  16.350  73.075  1.00  0.00    -0.482 C  
HETATM   34  N   UNL     1     -11.686  16.716  71.727  1.00  0.00    -0.578 NA 
HETATM   35  H1  UNL     1     -10.771  17.165  71.729  1.00  0.00     0.000 HD 
HETATM   36  H2  UNL     1     -12.380  17.297  71.257  1.00  0.00     0.000 HD 
ENDBRANCH  32  33
ENDBRANCH  31  32
ENDBRANCH  29  31
ENDBRANCH  27  29
ENDBRANCH  11  27
ENDBRANCH   2   3
TORSDOF 9
ENDMDL
MODEL       27
REMARK 921   NORMALIZED FREE ENERGY PREDICTED BY IDOCK:   -6.73 KCAL/MOL
REMARK 922        TOTAL FREE ENERGY PREDICTED BY IDOCK:  -11.24 KCAL/MOL
REMARK 923 INTER-LIGAND FREE ENERGY PREDICTED BY IDOCK:  -10.13 KCAL/MOL
REMARK 924 INTRA-LIGAND FREE ENERGY PREDICTED BY IDOCK:   -1.10 KCAL/MOL
REMARK 927      BINDING AFFINITY PREDICTED BY RF-SCORE:    0.00 PKD
ROOT
HETATM    1  C   UNL     1     -10.084   8.694  72.093  1.00  0.00    -0.318 C  
HETATM    2  O   UNL     1     -10.244   8.499  70.690  1.00  0.00    -0.190 OA 
ENDROOT
BRANCH   2   3
HETATM    3  C   UNL     1     -10.776   9.600  70.054  1.00  0.00    -0.259 A  
HETATM    4  C   UNL     1     -11.520  10.461  70.823  1.00  0.00    -0.422 A  
HETATM    5  C   UNL     1     -12.007  11.630  70.229  1.00  0.00    -0.445 A  
HETATM    6  C   UNL     1     -11.589  11.975  68.904  1.00  0.00    -0.377 A  
HETATM    7  C   UNL     1     -13.065  12.392  70.985  1.00  0.00    -0.026 C  
HETATM    8  C   UNL     1     -11.675  13.251  68.245  1.00  0.00    -0.353 A  
HETATM    9  C   UNL     1     -11.561  13.333  66.845  1.00  0.00    -0.364 A  
HETATM   10  C   UNL     1     -11.022  10.910  68.161  1.00  0.00    -0.249 A  
HETATM   11  C   UNL     1     -10.894  11.003  66.761  1.00  0.00    -0.251 A  
HETATM   12  N   UNL     1     -10.606   9.762  68.734  1.00  0.00    -0.213 NA 
HETATM   13  C   UNL     1     -11.205  12.200  66.118  1.00  0.00    -0.386 A  
BRANCH   8  14
HETATM   14  O   UNL     1     -11.822  14.460  68.896  1.00  0.00    -0.299 OA 
BRANCH  14  15
HETATM   15  C   UNL     1     -10.832  15.420  68.962  1.00  0.00    -0.244 A  
HETATM   16  C   UNL     1      -9.543  14.878  69.054  1.00  0.00    -0.204 A  
HETATM   17  C   UNL     1      -8.420  15.672  68.835  1.00  0.00    -0.213 A  
HETATM   18  F   UNL     1     -10.986  19.098  67.005  1.00  0.00    -0.505 F  
HETATM   19  F   UNL     1      -8.916  19.551  67.458  1.00  0.00    -0.311 F  
HETATM   20  C   UNL     1      -8.581  17.015  68.506  1.00  0.00    -0.257 A  
HETATM   21  C   UNL     1     -10.982  16.800  68.805  1.00  0.00    -0.275 A  
HETATM   22  C   UNL     1     -10.050  19.011  67.991  1.00  0.00    -0.385 C  
HETATM   23  F   UNL     1     -10.450  19.866  68.969  1.00  0.00    -0.496 F  
HETATM   24  C   UNL     1      -9.861  17.592  68.480  1.00  0.00    -0.346 A  
ENDBRANCH  14  15
ENDBRANCH   8  14
BRANCH   9  25
HETATM   25  O   UNL     1     -11.695  14.444  66.053  1.00  0.00    -0.364 OA 
HETATM   26  C   UNL     1     -11.718  14.257  64.644  1.00  0.00    -0.430 C  
ENDBRANCH   9  25
BRANCH  11  27
HETATM   27  N   UNL     1     -10.383   9.897  66.047  1.00  0.00    -0.187 NA 
HETATM   28  H   UNL     1     -10.987   9.413  65.382  1.00  0.00     0.000 HD 
BRANCH  27  29
HETATM   29  C   UNL     1      -9.010   9.427  66.236  1.00  0.00    -0.156 C  
HETATM   30  C   UNL     1      -9.028   7.898  66.159  1.00  0.00    -0.214 C  
BRANCH  29  31
HETATM   31  C   UNL     1      -8.084   9.985  65.139  1.00  0.00    -0.144 C  
BRANCH  31  32
HETATM   32  C   UNL     1      -8.512   9.665  63.703  1.00  0.00    -0.189 C  
BRANCH  32  33
HETATM   33  C   UNL     1      -8.973  10.863  62.867  1.00  0.00    -0.281 C  
HETATM   34  N   UNL     1     -10.433  10.953  62.786  1.00  0.00    -0.781 NA 
HETATM   35  H1  UNL     1     -10.740  11.750  62.230  1.00  0.00     0.000 HD 
HETATM   36  H2  UNL     1     -10.853  10.968  63.715  1.00  0.00     0.000 HD 
ENDBRANCH  32  33
ENDBRANCH  31  32
ENDBRANCH  29  31
ENDBRANCH  27  29
ENDBRANCH  11  27
ENDBRANCH   2   3
TORSDOF 9
ENDMDL
MODEL       28
REMARK 921   NORMALIZED FREE ENERGY PREDICTED BY IDOCK:   -6.68 KCAL/MOL
REMARK 922        TOTAL FREE ENERGY PREDICTED BY IDOCK:  -11.17 KCAL/MOL
REMARK 923 INTER-LIGAND FREE ENERGY PREDICTED BY IDOCK:   -9.61 KCAL/MOL
REMARK 924 INTRA-LIGAND FREE ENERGY PREDICTED BY IDOCK:   -1.56 KCAL/MOL
REMARK 927      BINDING AFFINITY PREDICTED BY RF-SCORE:    0.00 PKD
ROOT
HETATM    1  C   UNL     1     -13.448   9.698  72.143  1.00  0.00    -0.429 C  
HETATM    2  O   UNL     1     -13.111  10.709  71.197  1.00  0.00    -0.368 OA 
ENDROOT
BRANCH   2   3
HETATM    3  C   UNL     1     -12.023  10.375  70.421  1.00  0.00    -0.320 A  
HETATM    4  C   UNL     1     -11.002   9.699  71.044  1.00  0.00    -0.431 A  
HETATM    5  C   UNL     1      -9.917   9.273  70.268  1.00  0.00    -0.262 A  
HETATM    6  C   UNL     1      -9.973   9.404  68.844  1.00  0.00    -0.188 A  
HETATM    7  C   UNL     1      -8.685   8.820  71.007  1.00  0.00    -0.248 C  
HETATM    8  C   UNL     1      -9.165   8.745  67.855  1.00  0.00    -0.139 A  
HETATM    9  C   UNL     1      -9.099   9.250  66.544  1.00  0.00    -0.154 A  
HETATM   10  C   UNL     1     -10.957  10.306  68.367  1.00  0.00    -0.260 A  
HETATM   11  C   UNL     1     -10.897  10.797  67.047  1.00  0.00    -0.252 A  
HETATM   12  N   UNL     1     -11.968  10.757  69.137  1.00  0.00    -0.327 NA 
HETATM   13  C   UNL     1      -9.942  10.292  66.166  1.00  0.00    -0.300 A  
BRANCH   8  14
HETATM   14  O   UNL     1      -8.451   7.583  68.075  1.00  0.00    -0.123 OA 
BRANCH  14  15
HETATM   15  C   UNL     1      -9.035   6.343  68.235  1.00  0.00    -0.116 A  
HETATM   16  C   UNL     1      -9.301   5.697  67.021  1.00  0.00    -0.119 A  
HETATM   17  C   UNL     1      -9.609   4.339  66.990  1.00  0.00    -0.227 A  
HETATM   18  F   UNL     1      -8.214   3.744  71.390  1.00  0.00    -0.064 F  
HETATM   19  F   UNL     1      -9.293   2.107  70.469  1.00  0.00    -0.152 F  
HETATM   20  C   UNL     1      -9.640   3.613  68.177  1.00  0.00    -0.166 A  
HETATM   21  C   UNL     1      -9.237   5.653  69.433  1.00  0.00    -0.145 A  
HETATM   22  C   UNL     1      -9.342   3.453  70.685  1.00  0.00    -0.162 C  
HETATM   23  F   UNL     1     -10.383   3.658  71.535  1.00  0.00    -0.202 F  
HETATM   24  C   UNL     1      -9.447   4.258  69.409  1.00  0.00    -0.256 A  
ENDBRANCH  14  15
ENDBRANCH   8  14
BRANCH   9  25
HETATM   25  O   UNL     1      -8.326   8.798  65.504  1.00  0.00    -0.129 OA 
HETATM   26  C   UNL     1      -7.185   9.564  65.142  1.00  0.00    -0.108 C  
ENDBRANCH   9  25
BRANCH  11  27
HETATM   27  N   UNL     1     -11.857  11.743  66.626  1.00  0.00    -0.541 NA 
HETATM   28  H   UNL     1     -12.767  11.766  67.087  1.00  0.00     0.000 HD 
BRANCH  27  29
HETATM   29  C   UNL     1     -11.581  12.690  65.545  1.00  0.00    -0.370 C  
HETATM   30  C   UNL     1     -12.676  12.520  64.488  1.00  0.00    -0.440 C  
BRANCH  29  31
HETATM   31  C   UNL     1     -11.594  14.138  66.069  1.00  0.00    -0.364 C  
BRANCH  31  32
HETATM   32  C   UNL     1     -10.431  15.014  65.587  1.00  0.00    -0.368 C  
BRANCH  32  33
HETATM   33  C   UNL     1     -10.817  16.408  65.083  1.00  0.00    -0.275 C  
HETATM   34  N   UNL     1     -11.602  16.353  63.849  1.00  0.00    -1.602 NA 
HETATM   35  H1  UNL     1     -11.859  17.281  63.513  1.00  0.00     0.000 HD 
HETATM   36  H2  UNL     1     -12.425  15.761  63.961  1.00  0.00     0.000 HD 
ENDBRANCH  32  33
ENDBRANCH  31  32
ENDBRANCH  29  31
ENDBRANCH  27  29
ENDBRANCH  11  27
ENDBRANCH   2   3
TORSDOF 9
ENDMDL
MODEL       29
REMARK 921   NORMALIZED FREE ENERGY PREDICTED BY IDOCK:   -6.68 KCAL/MOL
REMARK 922        TOTAL FREE ENERGY PREDICTED BY IDOCK:  -11.16 KCAL/MOL
REMARK 923 INTER-LIGAND FREE ENERGY PREDICTED BY IDOCK:   -9.91 KCAL/MOL
REMARK 924 INTRA-LIGAND FREE ENERGY PREDICTED BY IDOCK:   -1.25 KCAL/MOL
REMARK 927      BINDING AFFINITY PREDICTED BY RF-SCORE:    0.00 PKD
ROOT
HETATM    1  C   UNL     1     -12.286  14.997  64.372  1.00  0.00    -0.337 C  
HETATM    2  O   UNL     1     -12.925  13.820  64.860  1.00  0.00    -0.712 OA 
ENDROOT
BRANCH   2   3
HETATM    3  C   UNL     1     -12.046  12.778  65.061  1.00  0.00    -0.441 A  
HETATM    4  C   UNL     1     -11.300  12.378  63.980  1.00  0.00    -0.465 A  
HETATM    5  C   UNL     1     -10.340  11.377  64.169  1.00  0.00    -0.400 A  
HETATM    6  C   UNL     1     -10.050  10.918  65.494  1.00  0.00    -0.325 A  
HETATM    7  C   UNL     1      -9.762  10.742  62.931  1.00  0.00    -0.337 C  
HETATM    8  C   UNL     1      -8.904  10.181  65.952  1.00  0.00    -0.149 A  
HETATM    9  C   UNL     1      -8.945   9.502  67.183  1.00  0.00    -0.134 A  
HETATM   10  C   UNL     1     -11.032  11.241  66.464  1.00  0.00    -0.245 A  
HETATM   11  C   UNL     1     -11.060  10.570  67.703  1.00  0.00    -0.309 A  
HETATM   12  N   UNL     1     -11.989  12.167  66.254  1.00  0.00    -0.613 NA 
HETATM   13  C   UNL     1     -10.038   9.678  68.028  1.00  0.00    -0.213 A  
BRANCH   8  14
HETATM   14  O   UNL     1      -7.698  10.114  65.283  1.00  0.00    -0.135 OA 
BRANCH  14  15
HETATM   15  C   UNL     1      -7.380   9.125  64.373  1.00  0.00    -0.100 A  
HETATM   16  C   UNL     1      -6.230   9.412  63.626  1.00  0.00    -0.093 A  
HETATM   17  C   UNL     1      -5.598   8.418  62.883  1.00  0.00    -0.073 A  
HETATM   18  F   UNL     1      -8.020   5.054  65.000  1.00  0.00    -0.088 F  
HETATM   19  F   UNL     1      -6.874   4.491  63.249  1.00  0.00    -0.035 F  
HETATM   20  C   UNL     1      -6.107   7.123  62.894  1.00  0.00    -0.048 A  
HETATM   21  C   UNL     1      -7.983   7.872  64.242  1.00  0.00    -0.130 A  
HETATM   22  C   UNL     1      -7.778   5.405  63.706  1.00  0.00    -0.083 C  
HETATM   23  F   UNL     1      -8.931   5.163  63.027  1.00  0.00    -0.130 F  
HETATM   24  C   UNL     1      -7.298   6.833  63.578  1.00  0.00    -0.073 A  
ENDBRANCH  14  15
ENDBRANCH   8  14
BRANCH   9  25
HETATM   25  O   UNL     1      -7.982   8.695  67.733  1.00  0.00    -0.105 OA 
HETATM   26  C   UNL     1      -7.664   8.881  69.106  1.00  0.00    -0.092 C  
ENDBRANCH   9  25
BRANCH  11  27
HETATM   27  N   UNL     1     -12.090  10.872  68.620  1.00  0.00    -0.796 NA 
HETATM   28  H   UNL     1     -13.042  10.570  68.415  1.00  0.00     0.000 HD 
BRANCH  27  29
HETATM   29  C   UNL     1     -11.827  11.606  69.859  1.00  0.00    -0.358 C  
HETATM   30  C   UNL     1     -12.135  13.083  69.597  1.00  0.00    -0.304 C  
BRANCH  29  31
HETATM   31  C   UNL     1     -12.719  11.090  71.003  1.00  0.00    -0.485 C  
BRANCH  31  32
HETATM   32  C   UNL     1     -12.343   9.707  71.546  1.00  0.00    -0.477 C  
BRANCH  32  33
HETATM   33  C   UNL     1     -13.513   8.746  71.778  1.00  0.00    -0.393 C  
HETATM   34  N   UNL     1     -14.116   8.917  73.101  1.00  0.00    -1.225 NA 
HETATM   35  H1  UNL     1     -14.895   8.277  73.256  1.00  0.00     0.000 HD 
HETATM   36  H2  UNL     1     -14.398   9.885  73.255  1.00  0.00     0.000 HD 
ENDBRANCH  32  33
ENDBRANCH  31  32
ENDBRANCH  29  31
ENDBRANCH  27  29
ENDBRANCH  11  27
ENDBRANCH   2   3
TORSDOF 9
ENDMDL
MODEL       30
REMARK 921   NORMALIZED FREE ENERGY PREDICTED BY IDOCK:   -6.66 KCAL/MOL
REMARK 922        TOTAL FREE ENERGY PREDICTED BY IDOCK:  -11.13 KCAL/MOL
REMARK 923 INTER-LIGAND FREE ENERGY PREDICTED BY IDOCK:   -9.52 KCAL/MOL
REMARK 924 INTRA-LIGAND FREE ENERGY PREDICTED BY IDOCK:   -1.62 KCAL/MOL
REMARK 927      BINDING AFFINITY PREDICTED BY RF-SCORE:    0.00 PKD
ROOT
HETATM    1  C   UNL     1      -5.962  10.634  70.089  1.00  0.00    -0.098 C  
HETATM    2  O   UNL     1      -6.530   9.773  69.106  1.00  0.00    -0.044 OA 
ENDROOT
BRANCH   2   3
HETATM    3  C   UNL     1      -7.810  10.138  68.750  1.00  0.00    -0.098 A  
HETATM    4  C   UNL     1      -8.766  10.088  69.735  1.00  0.00    -0.198 A  
HETATM    5  C   UNL     1     -10.058  10.529  69.430  1.00  0.00    -0.233 A  
HETATM    6  C   UNL     1     -10.309  11.163  68.170  1.00  0.00    -0.207 A  
HETATM    7  C   UNL     1     -11.149  10.179  70.408  1.00  0.00    -0.393 C  
HETATM    8  C   UNL     1     -11.429  11.980  67.790  1.00  0.00    -0.325 A  
HETATM    9  C   UNL     1     -11.702  12.218  66.431  1.00  0.00    -0.365 A  
HETATM   10  C   UNL     1      -9.314  10.944  67.185  1.00  0.00    -0.159 A  
HETATM   11  C   UNL     1      -9.586  11.200  65.826  1.00  0.00    -0.221 A  
HETATM   12  N   UNL     1      -8.088  10.465  67.479  1.00  0.00    -0.107 NA 
HETATM   13  C   UNL     1     -10.793  11.795  65.464  1.00  0.00    -0.348 A  
BRANCH   8  14
HETATM   14  O   UNL     1     -12.273  12.616  68.680  1.00  0.00    -0.176 OA 
BRANCH  14  15
HETATM   15  C   UNL     1     -11.863  13.605  69.551  1.00  0.00    -0.337 A  
HETATM   16  C   UNL     1     -11.045  14.569  68.946  1.00  0.00    -0.273 A  
HETATM   17  C   UNL     1     -10.784  15.780  69.581  1.00  0.00    -0.292 A  
HETATM   18  F   UNL     1     -14.169  15.075  72.697  1.00  0.00    -0.515 F  
HETATM   19  F   UNL     1     -12.804  16.714  73.079  1.00  0.00    -0.353 F  
HETATM   20  C   UNL     1     -11.352  16.041  70.825  1.00  0.00    -0.427 A  
HETATM   21  C   UNL     1     -12.286  13.800  70.868  1.00  0.00    -0.456 A  
HETATM   22  C   UNL     1     -12.844  15.388  72.761  1.00  0.00    -0.427 C  
HETATM   23  F   UNL     1     -12.352  14.727  73.842  1.00  0.00    -0.585 F  
HETATM   24  C   UNL     1     -12.114  15.060  71.478  1.00  0.00    -0.403 A  
ENDBRANCH  14  15
ENDBRANCH   8  14
BRANCH   9  25
HETATM   25  O   UNL     1     -12.762  12.901  65.891  1.00  0.00    -0.437 OA 
HETATM   26  C   UNL     1     -12.498  14.150  65.265  1.00  0.00    -0.461 C  
ENDBRANCH   9  25
BRANCH  11  27
HETATM   27  N   UNL     1      -8.592  10.910  64.865  1.00  0.00    -0.351 NA 
HETATM   28  H   UNL     1      -7.637  11.227  65.027  1.00  0.00     0.000 HD 
BRANCH  27  29
HETATM   29  C   UNL     1      -8.899  10.167  63.642  1.00  0.00    -0.226 C  
HETATM   30  C   UNL     1      -8.833  11.152  62.471  1.00  0.00    -0.331 C  
BRANCH  29  31
HETATM   31  C   UNL     1      -7.879   9.035  63.418  1.00  0.00    -0.139 C  
BRANCH  31  32
HETATM   32  C   UNL     1      -7.334   8.390  64.697  1.00  0.00    -0.093 C  
BRANCH  32  33
HETATM   33  C   UNL     1      -7.966   7.050  65.086  1.00  0.00    -0.128 C  
HETATM   34  N   UNL     1      -8.584   6.378  63.941  1.00  0.00    -0.310 NA 
HETATM   35  H1  UNL     1      -9.005   5.485  64.200  1.00  0.00     0.000 HD 
HETATM   36  H2  UNL     1      -7.920   6.264  63.177  1.00  0.00     0.000 HD 
ENDBRANCH  32  33
ENDBRANCH  31  32
ENDBRANCH  29  31
ENDBRANCH  27  29
ENDBRANCH  11  27
ENDBRANCH   2   3
TORSDOF 9
ENDMDL
MODEL       31
REMARK 921   NORMALIZED FREE ENERGY PREDICTED BY IDOCK:   -6.66 KCAL/MOL
REMARK 922        TOTAL FREE ENERGY PREDICTED BY IDOCK:  -11.13 KCAL/MOL
REMARK 923 INTER-LIGAND FREE ENERGY PREDICTED BY IDOCK:   -9.30 KCAL/MOL
REMARK 924 INTRA-LIGAND FREE ENERGY PREDICTED BY IDOCK:   -1.83 KCAL/MOL
REMARK 927      BINDING AFFINITY PREDICTED BY RF-SCORE:    0.00 PKD
ROOT
HETATM    1  C   UNL     1      -9.697  10.302  64.897  1.00  0.00    -0.320 C  
HETATM    2  O   UNL     1      -8.808  11.020  65.748  1.00  0.00    -0.190 OA 
ENDROOT
BRANCH   2   3
HETATM    3  C   UNL     1      -9.352  12.194  66.222  1.00  0.00    -0.218 A  
HETATM    4  C   UNL     1     -10.721  12.291  66.211  1.00  0.00    -0.293 A  
HETATM    5  C   UNL     1     -11.311  13.436  66.760  1.00  0.00    -0.353 A  
HETATM    6  C   UNL     1     -10.494  14.387  67.454  1.00  0.00    -0.261 A  
HETATM    7  C   UNL     1     -12.769  13.665  66.461  1.00  0.00    -0.043 C  
HETATM    8  C   UNL     1     -10.907  15.418  68.366  1.00  0.00    -0.268 A  
HETATM    9  C   UNL     1     -10.037  16.481  68.671  1.00  0.00    -0.255 A  
HETATM   10  C   UNL     1      -9.105  14.281  67.194  1.00  0.00    -0.228 A  
HETATM   11  C   UNL     1      -8.235  15.342  67.516  1.00  0.00    -0.173 A  
HETATM   12  N   UNL     1      -8.552  13.197  66.613  1.00  0.00    -0.028 NA 
HETATM   13  C   UNL     1      -8.722  16.446  68.214  1.00  0.00    -0.201 A  
BRANCH   8  14
HETATM   14  O   UNL     1     -12.116  15.436  69.034  1.00  0.00    -0.312 OA 
BRANCH  14  15
HETATM   15  C   UNL     1     -12.387  14.670  70.149  1.00  0.00    -0.336 A  
HETATM   16  C   UNL     1     -13.127  15.355  71.122  1.00  0.00    -0.565 A  
HETATM   17  C   UNL     1     -13.739  14.665  72.166  1.00  0.00    -0.544 A  
HETATM   18  F   UNL     1     -13.090  10.561  70.068  1.00  0.00    -0.320 F  
HETATM   19  F   UNL     1     -13.741  10.520  72.134  1.00  0.00    -0.425 F  
HETATM   20  C   UNL     1     -13.625  13.280  72.236  1.00  0.00    -0.703 A  
HETATM   21  C   UNL     1     -12.132  13.307  70.320  1.00  0.00    -0.405 A  
HETATM   22  C   UNL     1     -12.814  11.073  71.300  1.00  0.00    -0.425 C  
HETATM   23  F   UNL     1     -11.616  10.546  71.669  1.00  0.00    -0.300 F  
HETATM   24  C   UNL     1     -12.829  12.584  71.311  1.00  0.00    -0.337 A  
ENDBRANCH  14  15
ENDBRANCH   8  14
BRANCH   9  25
HETATM   25  O   UNL     1     -10.292  17.580  69.451  1.00  0.00    -0.288 OA 
HETATM   26  C   UNL     1     -10.025  18.863  68.900  1.00  0.00    -0.378 C  
ENDBRANCH   9  25
BRANCH  11  27
HETATM   27  N   UNL     1      -6.867  15.227  67.185  1.00  0.00    -0.260 NA 
HETATM   28  H   UNL     1      -6.583  15.317  66.209  1.00  0.00     0.000 HD 
BRANCH  27  29
HETATM   29  C   UNL     1      -5.847  14.984  68.205  1.00  0.00    -0.135 C  
HETATM   30  C   UNL     1      -5.438  16.339  68.787  1.00  0.00    -0.109 C  
BRANCH  29  31
HETATM   31  C   UNL     1      -6.399  14.088  69.330  1.00  0.00    -0.110 C  
BRANCH  31  32
HETATM   32  C   UNL     1      -5.596  12.809  69.596  1.00  0.00    -0.096 C  
BRANCH  32  33
HETATM   33  C   UNL     1      -6.379  11.498  69.476  1.00  0.00    -0.116 C  
HETATM   34  N   UNL     1      -7.821  11.724  69.357  1.00  0.00    -0.302 NA 
HETATM   35  H1  UNL     1      -8.343  10.851  69.278  1.00  0.00     0.000 HD 
HETATM   36  H2  UNL     1      -8.034  12.352  68.583  1.00  0.00     0.000 HD 
ENDBRANCH  32  33
ENDBRANCH  31  32
ENDBRANCH  29  31
ENDBRANCH  27  29
ENDBRANCH  11  27
ENDBRANCH   2   3
TORSDOF 9
ENDMDL
MODEL       32
REMARK 921   NORMALIZED FREE ENERGY PREDICTED BY IDOCK:   -6.65 KCAL/MOL
REMARK 922        TOTAL FREE ENERGY PREDICTED BY IDOCK:  -11.12 KCAL/MOL
REMARK 923 INTER-LIGAND FREE ENERGY PREDICTED BY IDOCK:  -10.11 KCAL/MOL
REMARK 924 INTRA-LIGAND FREE ENERGY PREDICTED BY IDOCK:   -1.01 KCAL/MOL
REMARK 927      BINDING AFFINITY PREDICTED BY RF-SCORE:    0.00 PKD
ROOT
HETATM    1  C   UNL     1      -9.721  11.442  62.997  1.00  0.00    -0.371 C  
HETATM    2  O   UNL     1      -9.538  10.322  63.859  1.00  0.00    -0.287 OA 
ENDROOT
BRANCH   2   3
HETATM    3  C   UNL     1     -10.095  10.511  65.106  1.00  0.00    -0.314 A  
HETATM    4  C   UNL     1     -10.084   9.436  65.959  1.00  0.00    -0.302 A  
HETATM    5  C   UNL     1     -10.567   9.615  67.261  1.00  0.00    -0.315 A  
HETATM    6  C   UNL     1     -10.903  10.931  67.714  1.00  0.00    -0.309 A  
HETATM    7  C   UNL     1     -10.835   8.371  68.068  1.00  0.00    -0.013 C  
HETATM    8  C   UNL     1     -11.078  11.392  69.064  1.00  0.00    -0.243 A  
HETATM    9  C   UNL     1     -11.754  12.599  69.318  1.00  0.00    -0.322 A  
HETATM   10  C   UNL     1     -11.083  11.888  66.684  1.00  0.00    -0.310 A  
HETATM   11  C   UNL     1     -11.746  13.103  66.946  1.00  0.00    -0.387 A  
HETATM   12  N   UNL     1     -10.665  11.685  65.418  1.00  0.00    -0.283 NA 
HETATM   13  C   UNL     1     -12.109  13.423  68.253  1.00  0.00    -0.271 A  
BRANCH   8  14
HETATM   14  O   UNL     1     -10.582  10.749  70.182  1.00  0.00    -0.133 OA 
BRANCH  14  15
HETATM   15  C   UNL     1     -11.331   9.903  70.975  1.00  0.00    -0.386 A  
HETATM   16  C   UNL     1     -12.710  10.127  70.872  1.00  0.00    -0.448 A  
HETATM   17  C   UNL     1     -13.621   9.194  71.361  1.00  0.00    -0.348 A  
HETATM   18  F   UNL     1     -10.316   5.948  71.815  1.00  0.00    -0.220 F  
HETATM   19  F   UNL     1     -12.238   5.531  72.723  1.00  0.00    -0.324 F  
HETATM   20  C   UNL     1     -13.156   8.020  71.946  1.00  0.00    -0.336 A  
HETATM   21  C   UNL     1     -10.871   8.812  71.716  1.00  0.00    -0.416 A  
HETATM   22  C   UNL     1     -11.266   6.483  72.632  1.00  0.00    -0.249 C  
HETATM   23  F   UNL     1     -10.702   6.563  73.866  1.00  0.00    -0.293 F  
HETATM   24  C   UNL     1     -11.778   7.811  72.124  1.00  0.00    -0.368 A  
ENDBRANCH  14  15
ENDBRANCH   8  14
BRANCH   9  25
HETATM   25  O   UNL     1     -12.076  13.145  70.534  1.00  0.00    -0.357 OA 
HETATM   26  C   UNL     1     -12.746  14.399  70.543  1.00  0.00    -0.340 C  
ENDBRANCH   9  25
BRANCH  11  27
HETATM   27  N   UNL     1     -11.964  14.005  65.881  1.00  0.00    -0.388 NA 
HETATM   28  H   UNL     1     -12.885  14.045  65.444  1.00  0.00     0.000 HD 
BRANCH  27  29
HETATM   29  C   UNL     1     -10.902  14.884  65.388  1.00  0.00    -0.369 C  
HETATM   30  C   UNL     1     -11.528  15.845  64.374  1.00  0.00    -0.268 C  
BRANCH  29  31
HETATM   31  C   UNL     1     -10.279  15.691  66.543  1.00  0.00    -0.291 C  
BRANCH  31  32
HETATM   32  C   UNL     1      -8.778  15.463  66.759  1.00  0.00    -0.304 C  
BRANCH  32  33
HETATM   33  C   UNL     1      -8.409  14.233  67.594  1.00  0.00    -0.181 C  
HETATM   34  N   UNL     1      -7.945  13.119  66.763  1.00  0.00    -0.377 NA 
HETATM   35  H1  UNL     1      -7.699  12.300  67.319  1.00  0.00     0.000 HD 
HETATM   36  H2  UNL     1      -7.171  13.404  66.163  1.00  0.00     0.000 HD 
ENDBRANCH  32  33
ENDBRANCH  31  32
ENDBRANCH  29  31
ENDBRANCH  27  29
ENDBRANCH  11  27
ENDBRANCH   2   3
TORSDOF 9
ENDMDL
MODEL       33
REMARK 921   NORMALIZED FREE ENERGY PREDICTED BY IDOCK:   -6.65 KCAL/MOL
REMARK 922        TOTAL FREE ENERGY PREDICTED BY IDOCK:  -11.12 KCAL/MOL
REMARK 923 INTER-LIGAND FREE ENERGY PREDICTED BY IDOCK:  -10.60 KCAL/MOL
REMARK 924 INTRA-LIGAND FREE ENERGY PREDICTED BY IDOCK:   -0.51 KCAL/MOL
REMARK 927      BINDING AFFINITY PREDICTED BY RF-SCORE:    0.00 PKD
ROOT
HETATM    1  C   UNL     1     -13.298  15.419  71.911  1.00  0.00    -0.461 C  
HETATM    2  O   UNL     1     -12.177  14.587  71.625  1.00  0.00    -0.335 OA 
ENDROOT
BRANCH   2   3
HETATM    3  C   UNL     1     -11.923  14.477  70.275  1.00  0.00    -0.314 A  
HETATM    4  C   UNL     1     -11.746  15.648  69.580  1.00  0.00    -0.373 A  
HETATM    5  C   UNL     1     -11.406  15.571  68.225  1.00  0.00    -0.360 A  
HETATM    6  C   UNL     1     -11.097  14.299  67.645  1.00  0.00    -0.305 A  
HETATM    7  C   UNL     1     -11.523  16.839  67.418  1.00  0.00     0.460 C  
HETATM    8  C   UNL     1     -10.409  14.023  66.413  1.00  0.00    -0.289 A  
HETATM    9  C   UNL     1     -10.509  12.753  65.817  1.00  0.00    -0.276 A  
HETATM   10  C   UNL     1     -11.535  13.180  68.397  1.00  0.00    -0.315 A  
HETATM   11  C   UNL     1     -11.617  11.906  67.800  1.00  0.00    -0.323 A  
HETATM   12  N   UNL     1     -11.915  13.272  69.688  1.00  0.00    -0.320 NA 
HETATM   13  C   UNL     1     -11.141  11.720  66.503  1.00  0.00    -0.364 A  
BRANCH   8  14
HETATM   14  O   UNL     1      -9.587  14.919  65.758  1.00  0.00    -0.326 OA 
BRANCH  14  15
HETATM   15  C   UNL     1      -8.629  15.685  66.391  1.00  0.00    -0.284 A  
HETATM   16  C   UNL     1      -7.878  14.964  67.329  1.00  0.00    -0.235 A  
HETATM   17  C   UNL     1      -6.692  15.484  67.841  1.00  0.00    -0.172 A  
HETATM   18  F   UNL     1      -6.535  18.804  64.582  1.00  0.00    -0.278 F  
HETATM   19  F   UNL     1      -5.151  18.983  66.239  1.00  0.00    -0.138 F  
HETATM   20  C   UNL     1      -6.241  16.727  67.406  1.00  0.00    -0.195 A  
HETATM   21  C   UNL     1      -8.264  17.000  66.090  1.00  0.00    -0.284 A  
HETATM   22  C   UNL     1      -6.467  18.779  65.943  1.00  0.00    -0.235 C  
HETATM   23  F   UNL     1      -7.126  19.886  66.374  1.00  0.00    -0.209 F  
HETATM   24  C   UNL     1      -7.016  17.495  66.522  1.00  0.00    -0.288 A  
ENDBRANCH  14  15
ENDBRANCH   8  14
BRANCH   9  25
HETATM   25  O   UNL     1      -9.988  12.344  64.616  1.00  0.00    -0.252 OA 
HETATM   26  C   UNL     1     -10.880  11.789  63.659  1.00  0.00    -0.440 C  
ENDBRANCH   9  25
BRANCH  11  27
HETATM   27  N   UNL     1     -12.118  10.827  68.560  1.00  0.00    -0.826 NA 
HETATM   28  H   UNL     1     -13.127  10.712  68.655  1.00  0.00     0.000 HD 
BRANCH  27  29
HETATM   29  C   UNL     1     -11.227   9.869  69.216  1.00  0.00    -0.130 C  
HETATM   30  C   UNL     1      -9.816  10.098  68.669  1.00  0.00    -0.170 C  
BRANCH  29  31
HETATM   31  C   UNL     1     -11.226  10.077  70.742  1.00  0.00    -0.428 C  
BRANCH  31  32
HETATM   32  C   UNL     1     -12.612  10.083  71.398  1.00  0.00    -0.518 C  
BRANCH  32  33
HETATM   33  C   UNL     1     -12.991   8.808  72.157  1.00  0.00    -0.406 C  
HETATM   34  N   UNL     1     -14.006   9.056  73.183  1.00  0.00    -1.215 NA 
HETATM   35  H1  UNL     1     -14.259   8.208  73.689  1.00  0.00     0.000 HD 
HETATM   36  H2  UNL     1     -14.830   9.508  72.786  1.00  0.00     0.000 HD 
ENDBRANCH  32  33
ENDBRANCH  31  32
ENDBRANCH  29  31
ENDBRANCH  27  29
ENDBRANCH  11  27
ENDBRANCH   2   3
TORSDOF 9
ENDMDL
MODEL       34
REMARK 921   NORMALIZED FREE ENERGY PREDICTED BY IDOCK:   -6.64 KCAL/MOL
REMARK 922        TOTAL FREE ENERGY PREDICTED BY IDOCK:  -11.11 KCAL/MOL
REMARK 923 INTER-LIGAND FREE ENERGY PREDICTED BY IDOCK:   -9.26 KCAL/MOL
REMARK 924 INTRA-LIGAND FREE ENERGY PREDICTED BY IDOCK:   -1.84 KCAL/MOL
REMARK 927      BINDING AFFINITY PREDICTED BY RF-SCORE:    0.00 PKD
ROOT
HETATM    1  C   UNL     1      -5.673  16.177  69.714  1.00  0.00    -0.155 C  
HETATM    2  O   UNL     1      -6.648  15.231  70.143  1.00  0.00    -0.147 OA 
ENDROOT
BRANCH   2   3
HETATM    3  C   UNL     1      -7.387  14.714  69.101  1.00  0.00    -0.143 A  
HETATM    4  C   UNL     1      -6.978  13.506  68.590  1.00  0.00    -0.100 A  
HETATM    5  C   UNL     1      -7.752  12.913  67.586  1.00  0.00    -0.162 A  
HETATM    6  C   UNL     1      -9.015  13.489  67.236  1.00  0.00    -0.222 A  
HETATM    7  C   UNL     1      -7.130  11.767  66.831  1.00  0.00    -0.097 C  
HETATM    8  C   UNL     1     -10.101  12.884  66.513  1.00  0.00    -0.261 A  
HETATM    9  C   UNL     1     -11.106  13.688  65.944  1.00  0.00    -0.284 A  
HETATM   10  C   UNL     1      -9.200  14.826  67.666  1.00  0.00    -0.191 A  
HETATM   11  C   UNL     1     -10.219  15.623  67.105  1.00  0.00    -0.270 A  
HETATM   12  N   UNL     1      -8.415  15.410  68.594  1.00  0.00    -0.160 NA 
HETATM   13  C   UNL     1     -11.132  15.052  66.220  1.00  0.00    -0.334 A  
BRANCH   8  14
HETATM   14  O   UNL     1     -10.277  11.523  66.358  1.00  0.00    -0.212 OA 
BRANCH  14  15
HETATM   15  C   UNL     1     -10.591  10.668  67.394  1.00  0.00    -0.256 A  
HETATM   16  C   UNL     1      -9.712   9.581  67.498  1.00  0.00    -0.194 A  
HETATM   17  C   UNL     1      -9.693   8.789  68.643  1.00  0.00    -0.170 A  
HETATM   18  F   UNL     1     -12.222  11.879  71.035  1.00  0.00    -0.438 F  
HETATM   19  F   UNL     1     -11.933   9.931  71.939  1.00  0.00    -0.445 F  
HETATM   20  C   UNL     1     -10.546   9.088  69.702  1.00  0.00    -0.230 A  
HETATM   21  C   UNL     1     -11.561  10.857  68.382  1.00  0.00    -0.346 A  
HETATM   22  C   UNL     1     -12.312  10.543  70.781  1.00  0.00    -0.378 C  
HETATM   23  F   UNL     1     -13.637  10.276  70.632  1.00  0.00    -0.391 F  
HETATM   24  C   UNL     1     -11.482  10.128  69.587  1.00  0.00    -0.256 A  
ENDBRANCH  14  15
ENDBRANCH   8  14
BRANCH   9  25
HETATM   25  O   UNL     1     -12.161  13.290  65.163  1.00  0.00    -0.391 OA 
HETATM   26  C   UNL     1     -11.963  13.231  63.757  1.00  0.00    -0.491 C  
ENDBRANCH   9  25
BRANCH  11  27
HETATM   27  N   UNL     1     -10.333  16.971  67.511  1.00  0.00    -0.321 NA 
HETATM   28  H   UNL     1     -10.582  17.179  68.478  1.00  0.00     0.000 HD 
BRANCH  27  29
HETATM   29  C   UNL     1     -10.104  18.076  66.580  1.00  0.00    -0.379 C  
HETATM   30  C   UNL     1     -10.892  19.285  67.091  1.00  0.00    -0.543 C  
BRANCH  29  31
HETATM   31  C   UNL     1      -8.607  18.432  66.509  1.00  0.00    -0.287 C  
BRANCH  31  32
HETATM   32  C   UNL     1      -8.172  19.594  67.409  1.00  0.00    -0.333 C  
BRANCH  32  33
HETATM   33  C   UNL     1      -7.622  19.198  68.782  1.00  0.00    -0.353 C  
HETATM   34  N   UNL     1      -6.500  20.045  69.194  1.00  0.00    -0.322 NA 
HETATM   35  H1  UNL     1      -6.134  19.782  70.109  1.00  0.00     0.000 HD 
HETATM   36  H2  UNL     1      -6.755  21.032  69.170  1.00  0.00     0.000 HD 
ENDBRANCH  32  33
ENDBRANCH  31  32
ENDBRANCH  29  31
ENDBRANCH  27  29
ENDBRANCH  11  27
ENDBRANCH   2   3
TORSDOF 9
ENDMDL
MODEL       35
REMARK 921   NORMALIZED FREE ENERGY PREDICTED BY IDOCK:   -6.64 KCAL/MOL
REMARK 922        TOTAL FREE ENERGY PREDICTED BY IDOCK:  -11.10 KCAL/MOL
REMARK 923 INTER-LIGAND FREE ENERGY PREDICTED BY IDOCK:   -9.52 KCAL/MOL
REMARK 924 INTRA-LIGAND FREE ENERGY PREDICTED BY IDOCK:   -1.59 KCAL/MOL
REMARK 927      BINDING AFFINITY PREDICTED BY RF-SCORE:    0.00 PKD
ROOT
HETATM    1  C   UNL     1      -9.407  10.010  63.816  1.00  0.00    -0.257 C  
HETATM    2  O   UNL     1      -9.994  10.051  65.114  1.00  0.00    -0.323 OA 
ENDROOT
BRANCH   2   3
HETATM    3  C   UNL     1     -10.105  11.332  65.610  1.00  0.00    -0.247 A  
HETATM    4  C   UNL     1     -11.326  11.946  65.473  1.00  0.00    -0.334 A  
HETATM    5  C   UNL     1     -11.498  13.215  66.038  1.00  0.00    -0.370 A  
HETATM    6  C   UNL     1     -10.469  13.764  66.869  1.00  0.00    -0.272 A  
HETATM    7  C   UNL     1     -12.718  13.992  65.615  1.00  0.00    -0.515 C  
HETATM    8  C   UNL     1     -10.563  14.852  67.804  1.00  0.00    -0.262 A  
HETATM    9  C   UNL     1      -9.398  15.494  68.261  1.00  0.00    -0.192 A  
HETATM   10  C   UNL     1      -9.203  13.141  66.738  1.00  0.00    -0.230 A  
HETATM   11  C   UNL     1      -8.040  13.781  67.212  1.00  0.00    -0.139 A  
HETATM   12  N   UNL     1      -9.036  11.943  66.142  1.00  0.00    -0.197 NA 
HETATM   13  C   UNL     1      -8.151  14.970  67.931  1.00  0.00    -0.142 A  
BRANCH   8  14
HETATM   14  O   UNL     1     -11.744  15.315  68.351  1.00  0.00    -0.342 OA 
BRANCH  14  15
HETATM   15  C   UNL     1     -12.283  14.835  69.527  1.00  0.00    -0.243 A  
HETATM   16  C   UNL     1     -12.263  13.437  69.613  1.00  0.00    -0.279 A  
HETATM   17  C   UNL     1     -12.488  12.796  70.830  1.00  0.00    -0.357 A  
HETATM   18  F   UNL     1     -11.985  16.763  73.212  1.00  0.00    -0.566 F  
HETATM   19  F   UNL     1     -12.768  15.057  74.293  1.00  0.00    -0.584 F  
HETATM   20  C   UNL     1     -12.721  13.553  71.974  1.00  0.00    -0.267 A  
HETATM   21  C   UNL     1     -12.688  15.581  70.637  1.00  0.00    -0.487 A  
HETATM   22  C   UNL     1     -12.931  15.784  73.151  1.00  0.00    -0.544 C  
HETATM   23  F   UNL     1     -14.131  16.410  73.271  1.00  0.00    -0.655 F  
HETATM   24  C   UNL     1     -12.816  14.952  71.893  1.00  0.00    -0.402 A  
ENDBRANCH  14  15
ENDBRANCH   8  14
BRANCH   9  25
HETATM   25  O   UNL     1      -9.307  16.588  69.084  1.00  0.00    -0.261 OA 
HETATM   26  C   UNL     1      -9.159  17.865  68.479  1.00  0.00    -0.285 C  
ENDBRANCH   9  25
BRANCH  11  27
HETATM   27  N   UNL     1      -6.788  13.161  67.008  1.00  0.00    -0.425 NA 
HETATM   28  H   UNL     1      -6.363  13.192  66.081  1.00  0.00     0.000 HD 
BRANCH  27  29
HETATM   29  C   UNL     1      -6.084  12.474  68.092  1.00  0.00    -0.069 C  
HETATM   30  C   UNL     1      -7.102  12.184  69.197  1.00  0.00    -0.015 C  
BRANCH  29  31
HETATM   31  C   UNL     1      -5.473  11.150  67.596  1.00  0.00    -0.041 C  
BRANCH  31  32
HETATM   32  C   UNL     1      -5.872   9.909  68.403  1.00  0.00    -0.042 C  
BRANCH  32  33
HETATM   33  C   UNL     1      -6.717   8.874  67.654  1.00  0.00    -0.066 C  
HETATM   34  N   UNL     1      -8.119   9.283  67.542  1.00  0.00    -0.107 NA 
HETATM   35  H1  UNL     1      -8.683   8.595  67.043  1.00  0.00     0.000 HD 
HETATM   36  H2  UNL     1      -8.202  10.206  67.116  1.00  0.00     0.000 HD 
ENDBRANCH  32  33
ENDBRANCH  31  32
ENDBRANCH  29  31
ENDBRANCH  27  29
ENDBRANCH  11  27
ENDBRANCH   2   3
TORSDOF 9
ENDMDL
MODEL       36
REMARK 921   NORMALIZED FREE ENERGY PREDICTED BY IDOCK:   -6.64 KCAL/MOL
REMARK 922        TOTAL FREE ENERGY PREDICTED BY IDOCK:  -11.10 KCAL/MOL
REMARK 923 INTER-LIGAND FREE ENERGY PREDICTED BY IDOCK:   -9.37 KCAL/MOL
REMARK 924 INTRA-LIGAND FREE ENERGY PREDICTED BY IDOCK:   -1.73 KCAL/MOL
REMARK 927      BINDING AFFINITY PREDICTED BY RF-SCORE:    0.00 PKD
ROOT
HETATM    1  C   UNL     1      -5.973  11.068  66.245  1.00  0.00    -0.143 C  
HETATM    2  O   UNL     1      -6.002  12.314  66.936  1.00  0.00    -0.251 OA 
ENDROOT
BRANCH   2   3
HETATM    3  C   UNL     1      -7.281  12.729  67.237  1.00  0.00    -0.082 A  
HETATM    4  C   UNL     1      -8.311  11.939  66.789  1.00  0.00    -0.153 A  
HETATM    5  C   UNL     1      -9.619  12.286  67.146  1.00  0.00    -0.200 A  
HETATM    6  C   UNL     1      -9.837  13.344  68.086  1.00  0.00    -0.234 A  
HETATM    7  C   UNL     1     -10.736  11.603  66.399  1.00  0.00    -0.316 C  
HETATM    8  C   UNL     1     -11.025  13.635  68.841  1.00  0.00    -0.249 A  
HETATM    9  C   UNL     1     -11.195  14.900  69.433  1.00  0.00    -0.283 A  
HETATM   10  C   UNL     1      -8.728  14.203  68.284  1.00  0.00    -0.181 A  
HETATM   11  C   UNL     1      -8.899  15.463  68.892  1.00  0.00    -0.211 A  
HETATM   12  N   UNL     1      -7.479  13.885  67.887  1.00  0.00    -0.134 NA 
HETATM   13  C   UNL     1     -10.141  15.810  69.421  1.00  0.00    -0.268 A  
BRANCH   8  14
HETATM   14  O   UNL     1     -12.040  12.730  69.085  1.00  0.00    -0.261 OA 
BRANCH  14  15
HETATM   15  C   UNL     1     -11.945  11.701  70.001  1.00  0.00    -0.351 A  
HETATM   16  C   UNL     1     -12.861  11.815  71.055  1.00  0.00    -0.309 A  
HETATM   17  C   UNL     1     -13.112  10.736  71.899  1.00  0.00    -0.557 A  
HETATM   18  F   UNL     1     -10.963   7.768  69.029  1.00  0.00    -0.193 F  
HETATM   19  F   UNL     1     -11.471   7.036  71.004  1.00  0.00    -0.277 F  
HETATM   20  C   UNL     1     -12.455   9.528  71.685  1.00  0.00    -0.476 A  
HETATM   21  C   UNL     1     -11.164  10.547  69.897  1.00  0.00    -0.374 A  
HETATM   22  C   UNL     1     -10.869   8.073  70.354  1.00  0.00    -0.247 C  
HETATM   23  F   UNL     1      -9.548   7.997  70.666  1.00  0.00    -0.163 F  
HETATM   24  C   UNL     1     -11.482   9.416  70.678  1.00  0.00    -0.344 A  
ENDBRANCH  14  15
ENDBRANCH   8  14
BRANCH   9  25
HETATM   25  O   UNL     1     -12.288  15.372  70.115  1.00  0.00    -0.356 OA 
HETATM   26  C   UNL     1     -12.100  15.794  71.459  1.00  0.00    -0.454 C  
ENDBRANCH   9  25
BRANCH  11  27
HETATM   27  N   UNL     1      -7.783  16.319  69.015  1.00  0.00    -0.216 NA 
HETATM   28  H   UNL     1      -6.930  15.965  69.448  1.00  0.00     0.000 HD 
BRANCH  27  29
HETATM   29  C   UNL     1      -7.818  17.702  68.537  1.00  0.00    -0.282 C  
HETATM   30  C   UNL     1      -6.576  18.414  69.081  1.00  0.00    -0.280 C  
BRANCH  29  31
HETATM   31  C   UNL     1      -7.804  17.750  66.997  1.00  0.00    -0.234 C  
BRANCH  31  32
HETATM   32  C   UNL     1      -6.877  18.809  66.389  1.00  0.00    -0.239 C  
BRANCH  32  33
HETATM   33  C   UNL     1      -7.566  20.077  65.875  1.00  0.00    -0.300 C  
HETATM   34  N   UNL     1      -7.360  21.218  66.769  1.00  0.00    -0.755 NA 
HETATM   35  H1  UNL     1      -7.819  22.063  66.428  1.00  0.00     0.000 HD 
HETATM   36  H2  UNL     1      -6.368  21.381  66.939  1.00  0.00     0.000 HD 
ENDBRANCH  32  33
ENDBRANCH  31  32
ENDBRANCH  29  31
ENDBRANCH  27  29
ENDBRANCH  11  27
ENDBRANCH   2   3
TORSDOF 9
ENDMDL
MODEL       37
REMARK 921   NORMALIZED FREE ENERGY PREDICTED BY IDOCK:   -6.64 KCAL/MOL
REMARK 922        TOTAL FREE ENERGY PREDICTED BY IDOCK:  -11.10 KCAL/MOL
REMARK 923 INTER-LIGAND FREE ENERGY PREDICTED BY IDOCK:  -10.64 KCAL/MOL
REMARK 924 INTRA-LIGAND FREE ENERGY PREDICTED BY IDOCK:   -0.46 KCAL/MOL
REMARK 927      BINDING AFFINITY PREDICTED BY RF-SCORE:    0.00 PKD
ROOT
HETATM    1  C   UNL     1     -13.947  15.480  72.565  1.00  0.00    -0.555 C  
HETATM    2  O   UNL     1     -14.028  14.061  72.473  1.00  0.00    -0.600 OA 
ENDROOT
BRANCH   2   3
HETATM    3  C   UNL     1     -13.236  13.543  71.471  1.00  0.00    -0.322 A  
HETATM    4  C   UNL     1     -12.918  12.210  71.558  1.00  0.00    -0.398 A  
HETATM    5  C   UNL     1     -12.183  11.633  70.517  1.00  0.00    -0.451 A  
HETATM    6  C   UNL     1     -11.927  12.391  69.329  1.00  0.00    -0.308 A  
HETATM    7  C   UNL     1     -11.583  10.274  70.774  1.00  0.00    -0.446 C  
HETATM    8  C   UNL     1     -11.515  11.912  68.037  1.00  0.00    -0.323 A  
HETATM    9  C   UNL     1     -10.961  12.801  67.098  1.00  0.00    -0.263 A  
HETATM   10  C   UNL     1     -12.107  13.790  69.465  1.00  0.00    -0.334 A  
HETATM   11  C   UNL     1     -11.564  14.676  68.513  1.00  0.00    -0.317 A  
HETATM   12  N   UNL     1     -12.767  14.343  70.502  1.00  0.00    -0.352 NA 
HETATM   13  C   UNL     1     -10.962  14.168  67.363  1.00  0.00    -0.306 A  
BRANCH   8  14
HETATM   14  O   UNL     1     -11.661  10.610  67.601  1.00  0.00    -0.480 OA 
BRANCH  14  15
HETATM   15  C   UNL     1     -10.703   9.632  67.773  1.00  0.00    -0.257 A  
HETATM   16  C   UNL     1      -9.437  10.148  68.077  1.00  0.00    -0.156 A  
HETATM   17  C   UNL     1      -8.430   9.319  68.569  1.00  0.00    -0.123 A  
HETATM   18  F   UNL     1     -11.443   5.876  69.424  1.00  0.00    -0.459 F  
HETATM   19  F   UNL     1      -9.335   5.396  69.557  1.00  0.00    -0.127 F  
HETATM   20  C   UNL     1      -8.690   7.967  68.772  1.00  0.00    -0.131 A  
HETATM   21  C   UNL     1     -10.905   8.250  67.814  1.00  0.00    -0.061 A  
HETATM   22  C   UNL     1     -10.264   5.985  68.751  1.00  0.00    -0.188 C  
HETATM   23  F   UNL     1     -10.376   5.183  67.659  1.00  0.00    -0.210 F  
HETATM   24  C   UNL     1      -9.930   7.419  68.405  1.00  0.00    -0.177 A  
ENDBRANCH  14  15
ENDBRANCH   8  14
BRANCH   9  25
HETATM   25  O   UNL     1     -10.448  12.507  65.860  1.00  0.00    -0.255 OA 
HETATM   26  C   UNL     1     -10.969  13.211  64.741  1.00  0.00    -0.336 C  
ENDBRANCH   9  25
BRANCH  11  27
HETATM   27  N   UNL     1     -11.708  16.066  68.714  1.00  0.00    -0.365 NA 
HETATM   28  H   UNL     1     -12.619  16.499  68.561  1.00  0.00     0.000 HD 
BRANCH  27  29
HETATM   29  C   UNL     1     -10.584  16.903  69.137  1.00  0.00    -0.330 C  
HETATM   30  C   UNL     1      -9.324  16.033  69.114  1.00  0.00    -0.251 C  
BRANCH  29  31
HETATM   31  C   UNL     1     -10.400  18.097  68.182  1.00  0.00    -0.393 C  
BRANCH  31  32
HETATM   32  C   UNL     1      -9.075  18.853  68.335  1.00  0.00    -0.383 C  
BRANCH  32  33
HETATM   33  C   UNL     1      -8.624  19.653  67.109  1.00  0.00    -0.308 C  
HETATM   34  N   UNL     1      -9.466  20.829  66.875  1.00  0.00    -0.675 NA 
HETATM   35  H1  UNL     1      -9.166  21.362  66.059  1.00  0.00     0.000 HD 
HETATM   36  H2  UNL     1      -9.513  21.420  67.705  1.00  0.00     0.000 HD 
ENDBRANCH  32  33
ENDBRANCH  31  32
ENDBRANCH  29  31
ENDBRANCH  27  29
ENDBRANCH  11  27
ENDBRANCH   2   3
TORSDOF 9
ENDMDL
MODEL       38
REMARK 921   NORMALIZED FREE ENERGY PREDICTED BY IDOCK:   -6.58 KCAL/MOL
REMARK 922        TOTAL FREE ENERGY PREDICTED BY IDOCK:  -11.01 KCAL/MOL
REMARK 923 INTER-LIGAND FREE ENERGY PREDICTED BY IDOCK:  -10.18 KCAL/MOL
REMARK 924 INTRA-LIGAND FREE ENERGY PREDICTED BY IDOCK:   -0.84 KCAL/MOL
REMARK 927      BINDING AFFINITY PREDICTED BY RF-SCORE:    0.00 PKD
ROOT
HETATM    1  C   UNL     1     -12.744  11.620  63.109  1.00  0.00     0.090 C  
HETATM    2  O   UNL     1     -13.243  12.019  64.383  1.00  0.00    -0.669 OA 
ENDROOT
BRANCH   2   3
HETATM    3  C   UNL     1     -12.405  12.899  65.033  1.00  0.00    -0.485 A  
HETATM    4  C   UNL     1     -12.409  14.200  64.593  1.00  0.00    -0.432 A  
HETATM    5  C   UNL     1     -11.631  15.137  65.282  1.00  0.00    -0.206 A  
HETATM    6  C   UNL     1     -10.991  14.760  66.506  1.00  0.00    -0.325 A  
HETATM    7  C   UNL     1     -11.404  16.466  64.608  1.00  0.00    -0.166 C  
HETATM    8  C   UNL     1     -10.453  15.613  67.531  1.00  0.00    -0.285 A  
HETATM    9  C   UNL     1      -9.548  15.097  68.476  1.00  0.00    -0.214 A  
HETATM   10  C   UNL     1     -10.884  13.362  66.716  1.00  0.00    -0.282 A  
HETATM   11  C   UNL     1      -9.988  12.851  67.676  1.00  0.00    -0.218 A  
HETATM   12  N   UNL     1     -11.595  12.461  66.008  1.00  0.00    -0.383 NA 
HETATM   13  C   UNL     1      -9.301  13.727  68.515  1.00  0.00    -0.144 A  
BRANCH   8  14
HETATM   14  O   UNL     1     -10.794  16.940  67.705  1.00  0.00    -0.325 OA 
BRANCH  14  15
HETATM   15  C   UNL     1     -10.037  17.993  67.233  1.00  0.00    -0.342 A  
HETATM   16  C   UNL     1     -10.550  19.246  67.594  1.00  0.00    -0.553 A  
HETATM   17  C   UNL     1      -9.776  20.397  67.464  1.00  0.00    -0.571 A  
HETATM   18  F   UNL     1      -5.889  17.916  66.826  1.00  0.00    -0.145 F  
HETATM   19  F   UNL     1      -5.777  20.044  66.428  1.00  0.00    -0.171 F  
HETATM   20  C   UNL     1      -8.473  20.298  66.984  1.00  0.00    -0.388 A  
HETATM   21  C   UNL     1      -8.798  17.923  66.591  1.00  0.00    -0.285 A  
HETATM   22  C   UNL     1      -6.513  18.927  66.158  1.00  0.00    -0.207 C  
HETATM   23  F   UNL     1      -6.335  18.672  64.835  1.00  0.00    -0.310 F  
HETATM   24  C   UNL     1      -7.967  19.062  66.550  1.00  0.00    -0.294 A  
ENDBRANCH  14  15
ENDBRANCH   8  14
BRANCH   9  25
HETATM   25  O   UNL     1      -8.883  15.778  69.465  1.00  0.00    -0.258 OA 
HETATM   26  C   UNL     1      -7.550  16.197  69.202  1.00  0.00    -0.230 C  
ENDBRANCH   9  25
BRANCH  11  27
HETATM   27  N   UNL     1      -9.860  11.451  67.814  1.00  0.00    -0.172 NA 
HETATM   28  H   UNL     1      -8.957  11.015  67.632  1.00  0.00     0.000 HD 
BRANCH  27  29
HETATM   29  C   UNL     1     -10.991  10.611  68.210  1.00  0.00    -0.263 C  
HETATM   30  C   UNL     1     -10.684   9.179  67.764  1.00  0.00    -0.243 C  
BRANCH  29  31
HETATM   31  C   UNL     1     -11.189  10.643  69.737  1.00  0.00    -0.363 C  
BRANCH  31  32
HETATM   32  C   UNL     1     -12.376  11.484  70.221  1.00  0.00    -0.355 C  
BRANCH  32  33
HETATM   33  C   UNL     1     -12.907  11.140  71.616  1.00  0.00    -0.419 C  
HETATM   34  N   UNL     1     -13.444  12.314  72.308  1.00  0.00    -0.564 NA 
HETATM   35  H1  UNL     1     -13.798  12.085  73.236  1.00  0.00     0.000 HD 
HETATM   36  H2  UNL     1     -14.157  12.779  71.746  1.00  0.00     0.000 HD 
ENDBRANCH  32  33
ENDBRANCH  31  32
ENDBRANCH  29  31
ENDBRANCH  27  29
ENDBRANCH  11  27
ENDBRANCH   2   3
TORSDOF 9
ENDMDL
MODEL       39
REMARK 921   NORMALIZED FREE ENERGY PREDICTED BY IDOCK:   -6.54 KCAL/MOL
REMARK 922        TOTAL FREE ENERGY PREDICTED BY IDOCK:  -10.94 KCAL/MOL
REMARK 923 INTER-LIGAND FREE ENERGY PREDICTED BY IDOCK:   -9.28 KCAL/MOL
REMARK 924 INTRA-LIGAND FREE ENERGY PREDICTED BY IDOCK:   -1.66 KCAL/MOL
REMARK 927      BINDING AFFINITY PREDICTED BY RF-SCORE:    0.00 PKD
ROOT
HETATM    1  C   UNL     1      -7.703   7.529  66.452  1.00  0.00    -0.089 C  
HETATM    2  O   UNL     1      -8.763   8.433  66.154  1.00  0.00    -0.133 OA 
ENDROOT
BRANCH   2   3
HETATM    3  C   UNL     1      -9.647   8.584  67.201  1.00  0.00    -0.178 A  
HETATM    4  C   UNL     1      -9.930   7.463  67.941  1.00  0.00    -0.201 A  
HETATM    5  C   UNL     1     -10.759   7.596  69.060  1.00  0.00    -0.134 A  
HETATM    6  C   UNL     1     -11.154   8.903  69.494  1.00  0.00    -0.015 A  
HETATM    7  C   UNL     1     -11.303   6.328  69.664  1.00  0.00    -0.492 C  
HETATM    8  C   UNL     1     -11.691   9.295  70.769  1.00  0.00    -0.269 A  
HETATM    9  C   UNL     1     -12.357  10.526  70.907  1.00  0.00    -0.390 A  
HETATM   10  C   UNL     1     -10.986   9.927  68.529  1.00  0.00    -0.180 A  
HETATM   11  C   UNL     1     -11.643  11.165  68.679  1.00  0.00    -0.315 A  
HETATM   12  N   UNL     1     -10.230   9.771  67.423  1.00  0.00    -0.215 NA 
HETATM   13  C   UNL     1     -12.353  11.431  69.849  1.00  0.00    -0.280 A  
BRANCH   8  14
HETATM   14  O   UNL     1     -11.567   8.559  71.931  1.00  0.00    -0.295 OA 
BRANCH  14  15
HETATM   15  C   UNL     1     -10.356   8.259  72.523  1.00  0.00    -0.331 A  
HETATM   16  C   UNL     1     -10.469   7.335  73.570  1.00  0.00    -0.421 A  
HETATM   17  C   UNL     1      -9.340   6.698  74.081  1.00  0.00    -0.232 A  
HETATM   18  F   UNL     1      -6.721   8.080  70.490  1.00  0.00    -0.037 F  
HETATM   19  F   UNL     1      -5.689   7.209  72.184  1.00  0.00    -0.036 F  
HETATM   20  C   UNL     1      -8.089   6.973  73.536  1.00  0.00    -0.125 A  
HETATM   21  C   UNL     1      -9.086   8.658  72.099  1.00  0.00    -0.301 A  
HETATM   22  C   UNL     1      -6.617   8.150  71.847  1.00  0.00    -0.060 C  
HETATM   23  F   UNL     1      -6.049   9.354  72.121  1.00  0.00    -0.073 F  
HETATM   24  C   UNL     1      -7.948   7.948  72.535  1.00  0.00    -0.157 A  
ENDBRANCH  14  15
ENDBRANCH   8  14
BRANCH   9  25
HETATM   25  O   UNL     1     -12.992  11.020  72.018  1.00  0.00    -0.452 OA 
HETATM   26  C   UNL     1     -13.245  12.418  72.072  1.00  0.00    -0.409 C  
ENDBRANCH   9  25
BRANCH  11  27
HETATM   27  N   UNL     1     -11.505  12.139  67.666  1.00  0.00    -0.310 NA 
HETATM   28  H   UNL     1     -11.905  11.958  66.746  1.00  0.00     0.000 HD 
BRANCH  27  29
HETATM   29  C   UNL     1     -10.801  13.400  67.903  1.00  0.00    -0.247 C  
HETATM   30  C   UNL     1      -9.390  13.260  67.326  1.00  0.00    -0.226 C  
BRANCH  29  31
HETATM   31  C   UNL     1     -11.525  14.570  67.210  1.00  0.00    -0.381 C  
BRANCH  31  32
HETATM   32  C   UNL     1     -10.821  15.124  65.966  1.00  0.00    -0.335 C  
BRANCH  32  33
HETATM   33  C   UNL     1     -11.624  15.057  64.664  1.00  0.00    -0.386 C  
HETATM   34  N   UNL     1     -11.584  16.320  63.923  1.00  0.00    -1.573 NA 
HETATM   35  H1  UNL     1     -12.119  16.276  63.056  1.00  0.00     0.000 HD 
HETATM   36  H2  UNL     1     -10.623  16.615  63.749  1.00  0.00     0.000 HD 
ENDBRANCH  32  33
ENDBRANCH  31  32
ENDBRANCH  29  31
ENDBRANCH  27  29
ENDBRANCH  11  27
ENDBRANCH   2   3
TORSDOF 9
ENDMDL
MODEL       40
REMARK 921   NORMALIZED FREE ENERGY PREDICTED BY IDOCK:   -6.53 KCAL/MOL
REMARK 922        TOTAL FREE ENERGY PREDICTED BY IDOCK:  -10.94 KCAL/MOL
REMARK 923 INTER-LIGAND FREE ENERGY PREDICTED BY IDOCK:   -9.80 KCAL/MOL
REMARK 924 INTRA-LIGAND FREE ENERGY PREDICTED BY IDOCK:   -1.14 KCAL/MOL
REMARK 927      BINDING AFFINITY PREDICTED BY RF-SCORE:    0.00 PKD
ROOT
HETATM    1  C   UNL     1     -13.569   9.336  72.264  1.00  0.00    -0.480 C  
HETATM    2  O   UNL     1     -13.354  10.471  71.430  1.00  0.00    -0.337 OA 
ENDROOT
BRANCH   2   3
HETATM    3  C   UNL     1     -12.228  10.353  70.646  1.00  0.00    -0.347 A  
HETATM    4  C   UNL     1     -11.181   9.634  71.168  1.00  0.00    -0.454 A  
HETATM    5  C   UNL     1     -10.052   9.425  70.367  1.00  0.00    -0.310 A  
HETATM    6  C   UNL     1     -10.082   9.818  68.990  1.00  0.00    -0.195 A  
HETATM    7  C   UNL     1      -8.811   8.917  71.054  1.00  0.00    -0.285 C  
HETATM    8  C   UNL     1      -9.208   9.404  67.926  1.00  0.00    -0.129 A  
HETATM    9  C   UNL     1      -9.143  10.148  66.735  1.00  0.00    -0.139 A  
HETATM   10  C   UNL     1     -11.110  10.733  68.654  1.00  0.00    -0.259 A  
HETATM   11  C   UNL     1     -11.050  11.465  67.451  1.00  0.00    -0.289 A  
HETATM   12  N   UNL     1     -12.167  10.971  69.457  1.00  0.00    -0.327 NA 
HETATM   13  C   UNL     1     -10.043  11.191  66.526  1.00  0.00    -0.265 A  
BRANCH   8  14
HETATM   14  O   UNL     1      -8.425   8.266  67.953  1.00  0.00    -0.130 OA 
BRANCH  14  15
HETATM   15  C   UNL     1      -8.800   7.065  67.386  1.00  0.00    -0.119 A  
HETATM   16  C   UNL     1      -9.978   6.540  67.934  1.00  0.00    -0.148 A  
HETATM   17  C   UNL     1     -10.659   5.505  67.298  1.00  0.00    -0.294 A  
HETATM   18  F   UNL     1      -8.199   6.060  63.385  1.00  0.00    -0.116 F  
HETATM   19  F   UNL     1      -9.432   4.284  63.531  1.00  0.00    -0.142 F  
HETATM   20  C   UNL     1     -10.171   4.996  66.097  1.00  0.00    -0.288 A  
HETATM   21  C   UNL     1      -8.224   6.436  66.279  1.00  0.00    -0.118 A  
HETATM   22  C   UNL     1      -8.493   5.010  64.203  1.00  0.00    -0.136 C  
HETATM   23  F   UNL     1      -7.377   4.236  64.242  1.00  0.00    -0.063 F  
HETATM   24  C   UNL     1      -8.955   5.460  65.571  1.00  0.00    -0.149 A  
ENDBRANCH  14  15
ENDBRANCH   8  14
BRANCH   9  25
HETATM   25  O   UNL     1      -8.318   9.945  65.658  1.00  0.00    -0.129 OA 
HETATM   26  C   UNL     1      -8.912   9.530  64.435  1.00  0.00    -0.212 C  
ENDBRANCH   9  25
BRANCH  11  27
HETATM   27  N   UNL     1     -12.059  12.414  67.178  1.00  0.00    -0.512 NA 
HETATM   28  H   UNL     1     -13.003  12.089  66.970  1.00  0.00     0.000 HD 
BRANCH  27  29
HETATM   29  C   UNL     1     -11.785  13.852  67.185  1.00  0.00    -0.388 C  
HETATM   30  C   UNL     1     -11.896  14.338  68.632  1.00  0.00    -0.379 C  
BRANCH  29  31
HETATM   31  C   UNL     1     -10.369  14.142  66.653  1.00  0.00    -0.277 C  
BRANCH  31  32
HETATM   32  C   UNL     1     -10.311  14.665  65.213  1.00  0.00    -0.425 C  
BRANCH  32  33
HETATM   33  C   UNL     1     -11.658  15.045  64.591  1.00  0.00    -0.386 C  
HETATM   34  N   UNL     1     -11.584  16.297  63.835  1.00  0.00    -1.573 NA 
HETATM   35  H1  UNL     1     -12.481  16.551  63.421  1.00  0.00     0.000 HD 
HETATM   36  H2  UNL     1     -10.850  16.259  63.129  1.00  0.00     0.000 HD 
ENDBRANCH  32  33
ENDBRANCH  31  32
ENDBRANCH  29  31
ENDBRANCH  27  29
ENDBRANCH  11  27
ENDBRANCH   2   3
TORSDOF 9
ENDMDL
MODEL       41
REMARK 921   NORMALIZED FREE ENERGY PREDICTED BY IDOCK:   -6.53 KCAL/MOL
REMARK 922        TOTAL FREE ENERGY PREDICTED BY IDOCK:  -10.94 KCAL/MOL
REMARK 923 INTER-LIGAND FREE ENERGY PREDICTED BY IDOCK:   -8.69 KCAL/MOL
REMARK 924 INTRA-LIGAND FREE ENERGY PREDICTED BY IDOCK:   -2.25 KCAL/MOL
REMARK 927      BINDING AFFINITY PREDICTED BY RF-SCORE:    0.00 PKD
ROOT
HETATM    1  C   UNL     1      -9.990   4.736  66.981  1.00  0.00    -0.204 C  
HETATM    2  O   UNL     1      -9.868   5.206  68.321  1.00  0.00    -0.144 OA 
ENDROOT
BRANCH   2   3
HETATM    3  C   UNL     1      -9.662   6.566  68.395  1.00  0.00    -0.132 A  
HETATM    4  C   UNL     1      -8.507   7.050  67.833  1.00  0.00    -0.124 A  
HETATM    5  C   UNL     1      -8.304   8.435  67.818  1.00  0.00    -0.130 A  
HETATM    6  C   UNL     1      -9.360   9.307  68.234  1.00  0.00    -0.141 A  
HETATM    7  C   UNL     1      -6.915   8.919  67.488  1.00  0.00    -0.075 C  
HETATM    8  C   UNL     1      -9.504  10.716  67.984  1.00  0.00    -0.158 A  
HETATM    9  C   UNL     1     -10.392  11.484  68.758  1.00  0.00    -0.196 A  
HETATM   10  C   UNL     1     -10.385   8.684  68.989  1.00  0.00    -0.213 A  
HETATM   11  C   UNL     1     -11.283   9.459  69.750  1.00  0.00    -0.114 A  
HETATM   12  N   UNL     1     -10.540   7.346  69.044  1.00  0.00    -0.211 NA 
HETATM   13  C   UNL     1     -11.247  10.849  69.656  1.00  0.00    -0.348 A  
BRANCH   8  14
HETATM   14  O   UNL     1      -8.852  11.403  66.979  1.00  0.00    -0.158 OA 
BRANCH  14  15
HETATM   15  C   UNL     1      -9.312  11.479  65.679  1.00  0.00    -0.204 A  
HETATM   16  C   UNL     1      -8.655  10.599  64.810  1.00  0.00    -0.136 A  
HETATM   17  C   UNL     1      -9.175  10.326  63.547  1.00  0.00    -0.321 A  
HETATM   18  F   UNL     1     -13.268  12.263  64.624  1.00  0.00    -0.502 F  
HETATM   19  F   UNL     1     -12.925  11.779  62.540  1.00  0.00    -0.172 F  
HETATM   20  C   UNL     1     -10.368  10.923  63.150  1.00  0.00    -0.172 A  
HETATM   21  C   UNL     1     -10.410  12.206  65.213  1.00  0.00    -0.310 A  
HETATM   22  C   UNL     1     -12.365  12.407  63.614  1.00  0.00    -0.548 C  
HETATM   23  F   UNL     1     -12.348  13.731  63.308  1.00  0.00    -0.550 F  
HETATM   24  C   UNL     1     -11.003  11.862  63.979  1.00  0.00    -0.445 A  
ENDBRANCH  14  15
ENDBRANCH   8  14
BRANCH   9  25
HETATM   25  O   UNL     1     -10.596  12.840  68.709  1.00  0.00    -0.240 OA 
HETATM   26  C   UNL     1     -11.922  13.304  68.495  1.00  0.00    -0.304 C  
ENDBRANCH   9  25
BRANCH  11  27
HETATM   27  N   UNL     1     -12.251   8.802  70.541  1.00  0.00    -0.473 NA 
HETATM   28  H   UNL     1     -13.013   8.304  70.081  1.00  0.00     0.000 HD 
BRANCH  27  29
HETATM   29  C   UNL     1     -12.189   8.816  72.003  1.00  0.00    -0.377 C  
HETATM   30  C   UNL     1     -13.582   9.181  72.523  1.00  0.00    -0.497 C  
BRANCH  29  31
HETATM   31  C   UNL     1     -11.783   7.434  72.548  1.00  0.00    -0.277 C  
BRANCH  31  32
HETATM   32  C   UNL     1     -10.412   7.383  73.232  1.00  0.00    -0.424 C  
BRANCH  32  33
HETATM   33  C   UNL     1      -9.339   8.298  72.634  1.00  0.00    -0.280 C  
HETATM   34  N   UNL     1      -8.529   7.614  71.624  1.00  0.00    -0.106 NA 
HETATM   35  H1  UNL     1      -7.814   8.223  71.225  1.00  0.00     0.000 HD 
HETATM   36  H2  UNL     1      -9.114   7.207  70.895  1.00  0.00     0.000 HD 
ENDBRANCH  32  33
ENDBRANCH  31  32
ENDBRANCH  29  31
ENDBRANCH  27  29
ENDBRANCH  11  27
ENDBRANCH   2   3
TORSDOF 9
ENDMDL
MODEL       42
REMARK 921   NORMALIZED FREE ENERGY PREDICTED BY IDOCK:   -6.51 KCAL/MOL
REMARK 922        TOTAL FREE ENERGY PREDICTED BY IDOCK:  -10.91 KCAL/MOL
REMARK 923 INTER-LIGAND FREE ENERGY PREDICTED BY IDOCK:   -9.97 KCAL/MOL
REMARK 924 INTRA-LIGAND FREE ENERGY PREDICTED BY IDOCK:   -0.94 KCAL/MOL
REMARK 927      BINDING AFFINITY PREDICTED BY RF-SCORE:    0.00 PKD
ROOT
HETATM    1  C   UNL     1     -13.394   9.597  71.852  1.00  0.00    -0.438 C  
HETATM    2  O   UNL     1     -12.947  10.950  71.844  1.00  0.00    -0.458 OA 
ENDROOT
BRANCH   2   3
HETATM    3  C   UNL     1     -12.304  11.294  70.675  1.00  0.00    -0.383 A  
HETATM    4  C   UNL     1     -12.284  12.628  70.348  1.00  0.00    -0.368 A  
HETATM    5  C   UNL     1     -11.571  13.023  69.211  1.00  0.00    -0.367 A  
HETATM    6  C   UNL     1     -10.759  12.067  68.520  1.00  0.00    -0.261 A  
HETATM    7  C   UNL     1     -11.817  14.419  68.700  1.00  0.00    -0.366 C  
HETATM    8  C   UNL     1      -9.703  12.311  67.574  1.00  0.00    -0.190 A  
HETATM    9  C   UNL     1      -9.261  11.280  66.727  1.00  0.00    -0.175 A  
HETATM   10  C   UNL     1     -11.048  10.712  68.820  1.00  0.00    -0.265 A  
HETATM   11  C   UNL     1     -10.588   9.681  67.977  1.00  0.00    -0.243 A  
HETATM   12  N   UNL     1     -11.784  10.342  69.887  1.00  0.00    -0.267 NA 
HETATM   13  C   UNL     1      -9.735   9.984  66.917  1.00  0.00    -0.237 A  
BRANCH   8  14
HETATM   14  O   UNL     1      -9.026  13.508  67.449  1.00  0.00    -0.197 OA 
BRANCH  14  15
HETATM   15  C   UNL     1      -9.413  14.522  66.596  1.00  0.00    -0.283 A  
HETATM   16  C   UNL     1     -10.269  14.088  65.576  1.00  0.00    -0.362 A  
HETATM   17  C   UNL     1     -10.987  15.005  64.811  1.00  0.00    -0.389 A  
HETATM   18  F   UNL     1     -10.045  18.472  67.771  1.00  0.00    -0.310 F  
HETATM   19  F   UNL     1     -10.929  19.013  65.868  1.00  0.00    -0.427 F  
HETATM   20  C   UNL     1     -10.863  16.367  65.074  1.00  0.00    -0.289 A  
HETATM   21  C   UNL     1      -9.160  15.889  66.740  1.00  0.00    -0.275 A  
HETATM   22  C   UNL     1      -9.920  18.286  66.427  1.00  0.00    -0.380 C  
HETATM   23  F   UNL     1      -8.765  18.906  66.066  1.00  0.00    -0.295 F  
HETATM   24  C   UNL     1      -9.956  16.824  66.044  1.00  0.00    -0.334 A  
ENDBRANCH  14  15
ENDBRANCH   8  14
BRANCH   9  25
HETATM   25  O   UNL     1      -8.329  11.355  65.723  1.00  0.00    -0.056 OA 
HETATM   26  C   UNL     1      -7.627  10.168  65.378  1.00  0.00    -0.144 C  
ENDBRANCH   9  25
BRANCH  11  27
HETATM   27  N   UNL     1     -10.949   8.347  68.271  1.00  0.00    -0.439 NA 
HETATM   28  H   UNL     1     -11.937   8.106  68.349  1.00  0.00     0.000 HD 
BRANCH  27  29
HETATM   29  C   UNL     1      -9.942   7.303  68.466  1.00  0.00    -0.162 C  
HETATM   30  C   UNL     1      -8.899   7.842  69.449  1.00  0.00    -0.145 C  
BRANCH  29  31
HETATM   31  C   UNL     1     -10.581   6.027  69.045  1.00  0.00    -0.357 C  
BRANCH  31  32
HETATM   32  C   UNL     1     -11.588   6.261  70.177  1.00  0.00    -0.385 C  
BRANCH  32  33
HETATM   33  C   UNL     1     -11.123   5.839  71.574  1.00  0.00    -0.214 C  
HETATM   34  N   UNL     1     -11.950   6.424  72.633  1.00  0.00    -0.513 NA 
HETATM   35  H1  UNL     1     -11.640   6.143  73.563  1.00  0.00     0.000 HD 
HETATM   36  H2  UNL     1     -12.936   6.208  72.492  1.00  0.00     0.000 HD 
ENDBRANCH  32  33
ENDBRANCH  31  32
ENDBRANCH  29  31
ENDBRANCH  27  29
ENDBRANCH  11  27
ENDBRANCH   2   3
TORSDOF 9
ENDMDL
MODEL       43
REMARK 921   NORMALIZED FREE ENERGY PREDICTED BY IDOCK:   -6.51 KCAL/MOL
REMARK 922        TOTAL FREE ENERGY PREDICTED BY IDOCK:  -10.90 KCAL/MOL
REMARK 923 INTER-LIGAND FREE ENERGY PREDICTED BY IDOCK:   -8.97 KCAL/MOL
REMARK 924 INTRA-LIGAND FREE ENERGY PREDICTED BY IDOCK:   -1.93 KCAL/MOL
REMARK 927      BINDING AFFINITY PREDICTED BY RF-SCORE:    0.00 PKD
ROOT
HETATM    1  C   UNL     1      -9.159   6.326  66.862  1.00  0.00    -0.128 C  
HETATM    2  O   UNL     1     -10.417   6.936  66.586  1.00  0.00    -0.223 OA 
ENDROOT
BRANCH   2   3
HETATM    3  C   UNL     1     -10.411   8.296  66.804  1.00  0.00    -0.290 A  
HETATM    4  C   UNL     1      -9.640   9.057  65.960  1.00  0.00    -0.342 A  
HETATM    5  C   UNL     1      -9.674  10.449  66.101  1.00  0.00    -0.262 A  
HETATM    6  C   UNL     1     -10.619  11.044  66.998  1.00  0.00    -0.303 A  
HETATM    7  C   UNL     1      -8.603  11.235  65.390  1.00  0.00     0.066 C  
HETATM    8  C   UNL     1     -11.062  12.411  67.047  1.00  0.00    -0.278 A  
HETATM    9  C   UNL     1     -11.703  12.905  68.198  1.00  0.00    -0.352 A  
HETATM   10  C   UNL     1     -11.177  10.156  67.951  1.00  0.00    -0.163 A  
HETATM   11  C   UNL     1     -11.833  10.656  69.094  1.00  0.00    -0.215 A  
HETATM   12  N   UNL     1     -11.091   8.815  67.837  1.00  0.00     0.153 NA 
HETATM   13  C   UNL     1     -12.050  12.027  69.221  1.00  0.00    -0.249 A  
BRANCH   8  14
HETATM   14  O   UNL     1     -10.949  13.309  66.004  1.00  0.00    -0.278 OA 
BRANCH  14  15
HETATM   15  C   UNL     1     -10.216  14.477  66.074  1.00  0.00    -0.315 A  
HETATM   16  C   UNL     1     -10.754  15.513  65.300  1.00  0.00    -0.440 A  
HETATM   17  C   UNL     1     -10.328  16.828  65.475  1.00  0.00    -0.236 A  
HETATM   18  F   UNL     1      -8.182  15.780  69.472  1.00  0.00    -0.226 F  
HETATM   19  F   UNL     1      -7.777  17.730  68.617  1.00  0.00    -0.252 F  
HETATM   20  C   UNL     1      -9.365  17.116  66.439  1.00  0.00    -0.286 A  
HETATM   21  C   UNL     1      -9.132  14.745  66.913  1.00  0.00    -0.268 A  
HETATM   22  C   UNL     1      -7.822  16.401  68.313  1.00  0.00    -0.168 C  
HETATM   23  F   UNL     1      -6.538  16.028  68.068  1.00  0.00    -0.109 F  
HETATM   24  C   UNL     1      -8.763  16.081  67.174  1.00  0.00    -0.212 A  
ENDBRANCH  14  15
ENDBRANCH   8  14
BRANCH   9  25
HETATM   25  O   UNL     1     -12.118  14.189  68.445  1.00  0.00    -0.344 OA 
HETATM   26  C   UNL     1     -12.276  14.586  69.801  1.00  0.00    -0.312 C  
ENDBRANCH   9  25
BRANCH  11  27
HETATM   27  N   UNL     1     -12.320   9.743  70.055  1.00  0.00    -0.428 NA 
HETATM   28  H   UNL     1     -12.990   9.030  69.767  1.00  0.00     0.000 HD 
BRANCH  27  29
HETATM   29  C   UNL     1     -11.889   9.794  71.452  1.00  0.00    -0.408 C  
HETATM   30  C   UNL     1     -13.099   9.446  72.324  1.00  0.00    -0.509 C  
BRANCH  29  31
HETATM   31  C   UNL     1     -10.759   8.781  71.715  1.00  0.00    -0.413 C  
BRANCH  31  32
HETATM   32  C   UNL     1     -11.221   7.337  71.940  1.00  0.00    -0.281 C  
BRANCH  32  33
HETATM   33  C   UNL     1     -10.820   6.335  70.852  1.00  0.00    -0.272 C  
HETATM   34  N   UNL     1     -11.537   6.567  69.596  1.00  0.00    -0.629 NA 
HETATM   35  H1  UNL     1     -11.270   5.901  68.872  1.00  0.00     0.000 HD 
HETATM   36  H2  UNL     1     -11.418   7.527  69.275  1.00  0.00     0.000 HD 
ENDBRANCH  32  33
ENDBRANCH  31  32
ENDBRANCH  29  31
ENDBRANCH  27  29
ENDBRANCH  11  27
ENDBRANCH   2   3
TORSDOF 9
ENDMDL
MODEL       44
REMARK 921   NORMALIZED FREE ENERGY PREDICTED BY IDOCK:   -6.46 KCAL/MOL
REMARK 922        TOTAL FREE ENERGY PREDICTED BY IDOCK:  -10.83 KCAL/MOL
REMARK 923 INTER-LIGAND FREE ENERGY PREDICTED BY IDOCK:   -9.09 KCAL/MOL
REMARK 924 INTRA-LIGAND FREE ENERGY PREDICTED BY IDOCK:   -1.74 KCAL/MOL
REMARK 927      BINDING AFFINITY PREDICTED BY RF-SCORE:    0.00 PKD
ROOT
HETATM    1  C   UNL     1      -9.462  16.443  67.099  1.00  0.00    -0.231 C  
HETATM    2  O   UNL     1      -8.410  15.946  67.920  1.00  0.00    -0.151 OA 
ENDROOT
BRANCH   2   3
HETATM    3  C   UNL     1      -8.257  14.579  67.826  1.00  0.00    -0.165 A  
HETATM    4  C   UNL     1      -7.456  13.978  68.765  1.00  0.00    -0.124 A  
HETATM    5  C   UNL     1      -7.344  12.583  68.748  1.00  0.00    -0.070 A  
HETATM    6  C   UNL     1      -8.180  11.818  67.873  1.00  0.00    -0.147 A  
HETATM    7  C   UNL     1      -6.235  11.977  69.569  1.00  0.00    -0.117 C  
HETATM    8  C   UNL     1      -8.481  10.414  67.929  1.00  0.00    -0.114 A  
HETATM    9  C   UNL     1      -9.013   9.759  66.804  1.00  0.00    -0.138 A  
HETATM   10  C   UNL     1      -8.777  12.559  66.822  1.00  0.00    -0.147 A  
HETATM   11  C   UNL     1      -9.323  11.898  65.704  1.00  0.00    -0.115 A  
HETATM   12  N   UNL     1      -8.831  13.906  66.818  1.00  0.00    -0.196 NA 
HETATM   13  C   UNL     1      -9.396  10.506  65.692  1.00  0.00    -0.242 A  
BRANCH   8  14
HETATM   14  O   UNL     1      -8.330   9.625  69.052  1.00  0.00    -0.111 OA 
BRANCH  14  15
HETATM   15  C   UNL     1      -9.368   9.286  69.897  1.00  0.00    -0.198 A  
HETATM   16  C   UNL     1      -8.976   8.437  70.940  1.00  0.00    -0.188 A  
HETATM   17  C   UNL     1      -9.805   8.231  72.040  1.00  0.00    -0.327 A  
HETATM   18  F   UNL     1     -12.530  11.821  70.876  1.00  0.00    -0.416 F  
HETATM   19  F   UNL     1     -13.252  10.500  72.434  1.00  0.00    -0.518 F  
HETATM   20  C   UNL     1     -11.030   8.887  72.110  1.00  0.00    -0.349 A  
HETATM   21  C   UNL     1     -10.666   9.803  69.890  1.00  0.00    -0.303 A  
HETATM   22  C   UNL     1     -12.734  10.507  71.172  1.00  0.00    -0.418 C  
HETATM   23  F   UNL     1     -13.734  10.086  70.354  1.00  0.00    -0.283 F  
HETATM   24  C   UNL     1     -11.471   9.685  71.042  1.00  0.00    -0.444 A  
ENDBRANCH  14  15
ENDBRANCH   8  14
BRANCH   9  25
HETATM   25  O   UNL     1      -9.285   8.423  66.656  1.00  0.00    -0.157 OA 
HETATM   26  C   UNL     1     -10.627   7.993  66.842  1.00  0.00    -0.254 C  
ENDBRANCH   9  25
BRANCH  11  27
HETATM   27  N   UNL     1      -9.853  12.669  64.646  1.00  0.00    -0.525 NA 
HETATM   28  H   UNL     1      -9.215  13.085  63.967  1.00  0.00     0.000 HD 
BRANCH  27  29
HETATM   29  C   UNL     1     -11.292  12.889  64.500  1.00  0.00    -0.341 C  
HETATM   30  C   UNL     1     -11.801  11.930  63.421  1.00  0.00    -0.512 C  
BRANCH  29  31
HETATM   31  C   UNL     1     -12.027  12.609  65.824  1.00  0.00    -0.503 C  
BRANCH  31  32
HETATM   32  C   UNL     1     -12.365  13.852  66.655  1.00  0.00    -0.411 C  
BRANCH  32  33
HETATM   33  C   UNL     1     -12.043  13.758  68.150  1.00  0.00    -0.281 C  
HETATM   34  N   UNL     1     -12.379  14.990  68.867  1.00  0.00    -0.594 NA 
HETATM   35  H1  UNL     1     -12.165  14.927  69.862  1.00  0.00     0.000 HD 
HETATM   36  H2  UNL     1     -13.353  15.251  68.715  1.00  0.00     0.000 HD 
ENDBRANCH  32  33
ENDBRANCH  31  32
ENDBRANCH  29  31
ENDBRANCH  27  29
ENDBRANCH  11  27
ENDBRANCH   2   3
TORSDOF 9
ENDMDL
MODEL       45
REMARK 921   NORMALIZED FREE ENERGY PREDICTED BY IDOCK:   -6.46 KCAL/MOL
REMARK 922        TOTAL FREE ENERGY PREDICTED BY IDOCK:  -10.83 KCAL/MOL
REMARK 923 INTER-LIGAND FREE ENERGY PREDICTED BY IDOCK:   -9.01 KCAL/MOL
REMARK 924 INTRA-LIGAND FREE ENERGY PREDICTED BY IDOCK:   -1.82 KCAL/MOL
REMARK 927      BINDING AFFINITY PREDICTED BY RF-SCORE:    0.00 PKD
ROOT
HETATM    1  C   UNL     1      -9.309   8.224  72.573  1.00  0.00    -0.280 C  
HETATM    2  O   UNL     1      -8.617   8.837  71.489  1.00  0.00    -0.181 OA 
ENDROOT
BRANCH   2   3
HETATM    3  C   UNL     1      -9.465   9.447  70.590  1.00  0.00    -0.262 A  
HETATM    4  C   UNL     1     -10.702   9.817  71.057  1.00  0.00    -0.342 A  
HETATM    5  C   UNL     1     -11.558  10.512  70.194  1.00  0.00    -0.408 A  
HETATM    6  C   UNL     1     -11.071  10.954  68.922  1.00  0.00    -0.307 A  
HETATM    7  C   UNL     1     -13.001  10.630  70.612  1.00  0.00    -0.343 C  
HETATM    8  C   UNL     1     -11.633  11.948  68.049  1.00  0.00    -0.332 A  
HETATM    9  C   UNL     1     -11.246  12.002  66.697  1.00  0.00    -0.327 A  
HETATM   10  C   UNL     1      -9.882  10.318  68.486  1.00  0.00    -0.164 A  
HETATM   11  C   UNL     1      -9.489  10.388  67.134  1.00  0.00    -0.159 A  
HETATM   12  N   UNL     1      -9.092   9.603  69.311  1.00  0.00    -0.161 NA 
HETATM   13  C   UNL     1     -10.202  11.197  66.250  1.00  0.00    -0.286 A  
BRANCH   8  14
HETATM   14  O   UNL     1     -12.525  12.925  68.445  1.00  0.00     0.111 OA 
BRANCH  14  15
HETATM   15  C   UNL     1     -12.144  14.132  68.996  1.00  0.00    -0.313 A  
HETATM   16  C   UNL     1     -12.082  14.105  70.396  1.00  0.00    -0.417 A  
HETATM   17  C   UNL     1     -11.442  15.122  71.100  1.00  0.00    -0.387 A  
HETATM   18  F   UNL     1      -9.448  16.779  67.234  1.00  0.00    -0.222 F  
HETATM   19  F   UNL     1      -9.321  18.009  69.013  1.00  0.00    -0.276 F  
HETATM   20  C   UNL     1     -10.846  16.170  70.404  1.00  0.00    -0.255 A  
HETATM   21  C   UNL     1     -11.699  15.268  68.316  1.00  0.00    -0.320 A  
HETATM   22  C   UNL     1     -10.200  17.309  68.239  1.00  0.00    -0.348 C  
HETATM   23  F   UNL     1     -11.008  18.235  67.658  1.00  0.00    -0.425 F  
HETATM   24  C   UNL     1     -10.960  16.252  69.007  1.00  0.00    -0.325 A  
ENDBRANCH  14  15
ENDBRANCH   8  14
BRANCH   9  25
HETATM   25  O   UNL     1     -11.732  12.825  65.714  1.00  0.00    -0.357 OA 
HETATM   26  C   UNL     1     -10.967  12.963  64.524  1.00  0.00    -0.351 C  
ENDBRANCH   9  25
BRANCH  11  27
HETATM   27  N   UNL     1      -8.334   9.689  66.721  1.00  0.00    -0.116 NA 
HETATM   28  H   UNL     1      -7.417  10.036  67.003  1.00  0.00     0.000 HD 
BRANCH  27  29
HETATM   29  C   UNL     1      -8.418   8.480  65.900  1.00  0.00    -0.152 C  
HETATM   30  C   UNL     1      -7.379   8.605  64.783  1.00  0.00    -0.091 C  
BRANCH  29  31
HETATM   31  C   UNL     1      -8.120   7.225  66.741  1.00  0.00    -0.119 C  
BRANCH  31  32
HETATM   32  C   UNL     1      -9.301   6.263  66.914  1.00  0.00    -0.148 C  
BRANCH  32  33
HETATM   33  C   UNL     1     -10.685   6.917  66.968  1.00  0.00    -0.362 C  
HETATM   34  N   UNL     1     -11.524   6.350  68.026  1.00  0.00    -0.583 NA 
HETATM   35  H1  UNL     1     -12.446   6.785  68.063  1.00  0.00     0.000 HD 
HETATM   36  H2  UNL     1     -11.058   6.397  68.932  1.00  0.00     0.000 HD 
ENDBRANCH  32  33
ENDBRANCH  31  32
ENDBRANCH  29  31
ENDBRANCH  27  29
ENDBRANCH  11  27
ENDBRANCH   2   3
TORSDOF 9
ENDMDL
MODEL       46
REMARK 921   NORMALIZED FREE ENERGY PREDICTED BY IDOCK:   -6.45 KCAL/MOL
REMARK 922        TOTAL FREE ENERGY PREDICTED BY IDOCK:  -10.82 KCAL/MOL
REMARK 923 INTER-LIGAND FREE ENERGY PREDICTED BY IDOCK:   -9.45 KCAL/MOL
REMARK 924 INTRA-LIGAND FREE ENERGY PREDICTED BY IDOCK:   -1.37 KCAL/MOL
REMARK 927      BINDING AFFINITY PREDICTED BY RF-SCORE:    0.00 PKD
ROOT
HETATM    1  C   UNL     1     -13.231  15.227  70.926  1.00  0.00    -0.450 C  
HETATM    2  O   UNL     1     -12.501  15.710  69.802  1.00  0.00    -0.292 OA 
ENDROOT
BRANCH   2   3
HETATM    3  C   UNL     1     -11.448  14.890  69.456  1.00  0.00    -0.297 A  
HETATM    4  C   UNL     1     -11.710  13.545  69.378  1.00  0.00    -0.381 A  
HETATM    5  C   UNL     1     -10.685  12.692  68.950  1.00  0.00    -0.201 A  
HETATM    6  C   UNL     1      -9.462  13.251  68.457  1.00  0.00    -0.113 A  
HETATM    7  C   UNL     1     -10.889  11.215  69.168  1.00  0.00    -0.284 C  
HETATM    8  C   UNL     1      -8.444  12.612  67.668  1.00  0.00    -0.173 A  
HETATM    9  C   UNL     1      -7.160  13.177  67.579  1.00  0.00    -0.150 A  
HETATM   10  C   UNL     1      -9.245  14.608  68.803  1.00  0.00    -0.184 A  
HETATM   11  C   UNL     1      -7.959  15.175  68.697  1.00  0.00    -0.151 A  
HETATM   12  N   UNL     1     -10.225  15.408  69.268  1.00  0.00    -0.235 NA 
HETATM   13  C   UNL     1      -6.925  14.437  68.124  1.00  0.00    -0.126 A  
BRANCH   8  14
HETATM   14  O   UNL     1      -8.637  11.466  66.921  1.00  0.00    -0.144 OA 
BRANCH  14  15
HETATM   15  C   UNL     1      -9.171  11.461  65.648  1.00  0.00    -0.193 A  
HETATM   16  C   UNL     1      -8.581  10.510  64.806  1.00  0.00    -0.173 A  
HETATM   17  C   UNL     1      -9.180  10.160  63.598  1.00  0.00    -0.320 A  
HETATM   18  F   UNL     1     -13.169  12.253  64.771  1.00  0.00    -0.462 F  
HETATM   19  F   UNL     1     -12.957  11.620  62.709  1.00  0.00    -0.519 F  
HETATM   20  C   UNL     1     -10.384  10.754  63.230  1.00  0.00    -0.137 A  
HETATM   21  C   UNL     1     -10.282  12.177  65.196  1.00  0.00    -0.308 A  
HETATM   22  C   UNL     1     -12.325  12.308  63.703  1.00  0.00    -0.562 C  
HETATM   23  F   UNL     1     -12.303  13.607  63.304  1.00  0.00    -0.567 F  
HETATM   24  C   UNL     1     -10.953  11.761  64.026  1.00  0.00    -0.451 A  
ENDBRANCH  14  15
ENDBRANCH   8  14
BRANCH   9  25
HETATM   25  O   UNL     1      -6.057  12.668  66.941  1.00  0.00    -0.235 OA 
HETATM   26  C   UNL     1      -5.257  11.727  67.646  1.00  0.00    -0.065 C  
ENDBRANCH   9  25
BRANCH  11  27
HETATM   27  N   UNL     1      -7.766  16.511  69.110  1.00  0.00    -0.233 NA 
HETATM   28  H   UNL     1      -7.763  16.727  70.107  1.00  0.00     0.000 HD 
BRANCH  27  29
HETATM   29  C   UNL     1      -7.571  17.595  68.146  1.00  0.00    -0.234 C  
HETATM   30  C   UNL     1      -8.386  17.254  66.895  1.00  0.00    -0.253 C  
BRANCH  29  31
HETATM   31  C   UNL     1      -8.056  18.937  68.724  1.00  0.00    -0.354 C  
BRANCH  31  32
HETATM   32  C   UNL     1      -6.950  19.963  68.998  1.00  0.00    -0.327 C  
BRANCH  32  33
HETATM   33  C   UNL     1      -5.915  19.556  70.052  1.00  0.00    -0.281 C  
HETATM   34  N   UNL     1      -5.965  20.416  71.237  1.00  0.00    -0.594 NA 
HETATM   35  H1  UNL     1      -5.276  20.145  71.938  1.00  0.00     0.000 HD 
HETATM   36  H2  UNL     1      -6.904  20.444  71.633  1.00  0.00     0.000 HD 
ENDBRANCH  32  33
ENDBRANCH  31  32
ENDBRANCH  29  31
ENDBRANCH  27  29
ENDBRANCH  11  27
ENDBRANCH   2   3
TORSDOF 9
ENDMDL
MODEL       47
REMARK 921   NORMALIZED FREE ENERGY PREDICTED BY IDOCK:   -6.43 KCAL/MOL
REMARK 922        TOTAL FREE ENERGY PREDICTED BY IDOCK:  -10.79 KCAL/MOL
REMARK 923 INTER-LIGAND FREE ENERGY PREDICTED BY IDOCK:   -8.50 KCAL/MOL
REMARK 924 INTRA-LIGAND FREE ENERGY PREDICTED BY IDOCK:   -2.29 KCAL/MOL
REMARK 927      BINDING AFFINITY PREDICTED BY RF-SCORE:    0.00 PKD
ROOT
HETATM    1  C   UNL     1      -7.448   9.856  64.986  1.00  0.00    -0.134 C  
HETATM    2  O   UNL     1      -8.602   9.037  64.825  1.00  0.00    -0.173 OA 
ENDROOT
BRANCH   2   3
HETATM    3  C   UNL     1      -9.404   9.015  65.945  1.00  0.00    -0.242 A  
HETATM    4  C   UNL     1      -9.690   7.783  66.479  1.00  0.00    -0.265 A  
HETATM    5  C   UNL     1     -10.434   7.728  67.664  1.00  0.00    -0.308 A  
HETATM    6  C   UNL     1     -10.734   8.940  68.365  1.00  0.00    -0.126 A  
HETATM    7  C   UNL     1     -10.997   6.387  68.057  1.00  0.00    -0.400 C  
HETATM    8  C   UNL     1     -11.163   9.099  69.728  1.00  0.00    -0.056 A  
HETATM    9  C   UNL     1     -11.758  10.303  70.147  1.00  0.00    -0.284 A  
HETATM   10  C   UNL     1     -10.583  10.124  67.601  1.00  0.00    -0.265 A  
HETATM   11  C   UNL     1     -11.167  11.332  68.032  1.00  0.00    -0.287 A  
HETATM   12  N   UNL     1      -9.913  10.157  66.431  1.00  0.00    -0.223 NA 
HETATM   13  C   UNL     1     -11.782  11.394  69.281  1.00  0.00    -0.404 A  
BRANCH   8  14
HETATM   14  O   UNL     1     -10.997   8.149  70.717  1.00  0.00    -0.235 OA 
BRANCH  14  15
HETATM   15  C   UNL     1      -9.787   7.880  71.325  1.00  0.00    -0.168 A  
HETATM   16  C   UNL     1      -9.668   8.456  72.596  1.00  0.00    -0.332 A  
HETATM   17  C   UNL     1      -8.658   8.054  73.468  1.00  0.00    -0.318 A  
HETATM   18  F   UNL     1      -7.668   4.317  70.874  1.00  0.00    -0.054 F  
HETATM   19  F   UNL     1      -6.273   4.818  72.455  1.00  0.00    -0.018 F  
HETATM   20  C   UNL     1      -7.766   7.060  73.076  1.00  0.00    -0.097 A  
HETATM   21  C   UNL     1      -8.789   7.012  70.873  1.00  0.00    -0.148 A  
HETATM   22  C   UNL     1      -6.950   5.351  71.397  1.00  0.00    -0.065 C  
HETATM   23  F   UNL     1      -6.009   5.665  70.468  1.00  0.00    -0.020 F  
HETATM   24  C   UNL     1      -7.825   6.523  71.779  1.00  0.00    -0.103 A  
ENDBRANCH  14  15
ENDBRANCH   8  14
BRANCH   9  25
HETATM   25  O   UNL     1     -12.291  10.596  71.376  1.00  0.00    -0.362 OA 
HETATM   26  C   UNL     1     -12.972  11.835  71.526  1.00  0.00    -0.341 C  
ENDBRANCH   9  25
BRANCH  11  27
HETATM   27  N   UNL     1     -11.051  12.477  67.214  1.00  0.00    -0.261 NA 
HETATM   28  H   UNL     1     -10.193  12.621  66.680  1.00  0.00     0.000 HD 
BRANCH  27  29
HETATM   29  C   UNL     1     -12.128  13.462  67.112  1.00  0.00    -0.318 C  
HETATM   30  C   UNL     1     -11.628  14.764  67.744  1.00  0.00    -0.378 C  
BRANCH  29  31
HETATM   31  C   UNL     1     -12.500  13.717  65.639  1.00  0.00    -0.540 C  
BRANCH  31  32
HETATM   32  C   UNL     1     -12.517  12.469  64.748  1.00  0.00    -0.532 C  
BRANCH  32  33
HETATM   33  C   UNL     1     -11.449  12.423  63.652  1.00  0.00    -0.489 C  
HETATM   34  N   UNL     1     -10.092  12.490  64.198  1.00  0.00    -0.549 NA 
HETATM   35  H1  UNL     1      -9.380  12.459  63.468  1.00  0.00     0.000 HD 
HETATM   36  H2  UNL     1      -9.937  11.761  64.894  1.00  0.00     0.000 HD 
ENDBRANCH  32  33
ENDBRANCH  31  32
ENDBRANCH  29  31
ENDBRANCH  27  29
ENDBRANCH  11  27
ENDBRANCH   2   3
TORSDOF 9
ENDMDL
MODEL       48
REMARK 921   NORMALIZED FREE ENERGY PREDICTED BY IDOCK:   -6.41 KCAL/MOL
REMARK 922        TOTAL FREE ENERGY PREDICTED BY IDOCK:  -10.76 KCAL/MOL
REMARK 923 INTER-LIGAND FREE ENERGY PREDICTED BY IDOCK:   -8.93 KCAL/MOL
REMARK 924 INTRA-LIGAND FREE ENERGY PREDICTED BY IDOCK:   -1.83 KCAL/MOL
REMARK 927      BINDING AFFINITY PREDICTED BY RF-SCORE:    0.00 PKD
ROOT
HETATM    1  C   UNL     1      -6.407  15.867  69.571  1.00  0.00    -0.173 C  
HETATM    2  O   UNL     1      -6.128  14.492  69.323  1.00  0.00    -0.099 OA 
ENDROOT
BRANCH   2   3
HETATM    3  C   UNL     1      -6.969  13.937  68.383  1.00  0.00    -0.102 A  
HETATM    4  C   UNL     1      -6.671  12.665  67.958  1.00  0.00    -0.095 A  
HETATM    5  C   UNL     1      -7.548  12.040  67.064  1.00  0.00    -0.111 A  
HETATM    6  C   UNL     1      -8.797  12.666  66.747  1.00  0.00    -0.168 A  
HETATM    7  C   UNL     1      -7.052  10.794  66.378  1.00  0.00    -0.134 C  
HETATM    8  C   UNL     1      -9.965  12.074  66.155  1.00  0.00    -0.231 A  
HETATM    9  C   UNL     1     -10.958  12.890  65.582  1.00  0.00    -0.271 A  
HETATM   10  C   UNL     1      -8.870  14.045  67.065  1.00  0.00    -0.219 A  
HETATM   11  C   UNL     1      -9.876  14.856  66.503  1.00  0.00    -0.266 A  
HETATM   12  N   UNL     1      -7.987  14.653  67.883  1.00  0.00    -0.132 NA 
HETATM   13  C   UNL     1     -10.883  14.273  65.735  1.00  0.00    -0.303 A  
BRANCH   8  14
HETATM   14  O   UNL     1     -10.234  10.720  66.135  1.00  0.00    -0.237 OA 
BRANCH  14  15
HETATM   15  C   UNL     1     -10.603   9.995  67.251  1.00  0.00    -0.257 A  
HETATM   16  C   UNL     1      -9.887   8.800  67.395  1.00  0.00    -0.250 A  
HETATM   17  C   UNL     1      -9.911   8.096  68.596  1.00  0.00    -0.201 A  
HETATM   18  F   UNL     1     -11.814  11.689  70.863  1.00  0.00    -0.407 F  
HETATM   19  F   UNL     1     -11.754   9.788  71.902  1.00  0.00    -0.445 F  
HETATM   20  C   UNL     1     -10.645   8.593  69.670  1.00  0.00    -0.219 A  
HETATM   21  C   UNL     1     -11.473  10.396  68.269  1.00  0.00    -0.218 A  
HETATM   22  C   UNL     1     -12.112  10.367  70.720  1.00  0.00    -0.364 C  
HETATM   23  F   UNL     1     -13.468  10.290  70.659  1.00  0.00    -0.429 F  
HETATM   24  C   UNL     1     -11.426   9.750  69.522  1.00  0.00    -0.058 A  
ENDBRANCH  14  15
ENDBRANCH   8  14
BRANCH   9  25
HETATM   25  O   UNL     1     -12.089  12.498  64.912  1.00  0.00    -0.402 OA 
HETATM   26  C   UNL     1     -12.084  12.586  63.493  1.00  0.00    -0.562 C  
ENDBRANCH   9  25
BRANCH  11  27
HETATM   27  N   UNL     1      -9.880  16.238  66.791  1.00  0.00    -0.236 NA 
HETATM   28  H   UNL     1      -9.596  16.898  66.067  1.00  0.00     0.000 HD 
BRANCH  27  29
HETATM   29  C   UNL     1     -10.281  16.749  68.103  1.00  0.00    -0.301 C  
HETATM   30  C   UNL     1     -10.525  18.253  67.961  1.00  0.00    -0.387 C  
BRANCH  29  31
HETATM   31  C   UNL     1     -11.572  16.063  68.587  1.00  0.00    -0.343 C  
BRANCH  31  32
HETATM   32  C   UNL     1     -11.374  14.995  69.669  1.00  0.00    -0.309 C  
BRANCH  32  33
HETATM   33  C   UNL     1     -12.265  15.133  70.907  1.00  0.00    -0.342 C  
HETATM   34  N   UNL     1     -11.942  16.326  71.691  1.00  0.00    -0.656 NA 
HETATM   35  H1  UNL     1     -12.535  16.419  72.516  1.00  0.00     0.000 HD 
HETATM   36  H2  UNL     1     -11.978  17.167  71.116  1.00  0.00     0.000 HD 
ENDBRANCH  32  33
ENDBRANCH  31  32
ENDBRANCH  29  31
ENDBRANCH  27  29
ENDBRANCH  11  27
ENDBRANCH   2   3
TORSDOF 9
ENDMDL
MODEL       49
REMARK 921   NORMALIZED FREE ENERGY PREDICTED BY IDOCK:   -6.39 KCAL/MOL
REMARK 922        TOTAL FREE ENERGY PREDICTED BY IDOCK:  -10.73 KCAL/MOL
REMARK 923 INTER-LIGAND FREE ENERGY PREDICTED BY IDOCK:  -10.42 KCAL/MOL
REMARK 924 INTRA-LIGAND FREE ENERGY PREDICTED BY IDOCK:   -0.31 KCAL/MOL
REMARK 927      BINDING AFFINITY PREDICTED BY RF-SCORE:    0.00 PKD
ROOT
HETATM    1  C   UNL     1     -13.704  14.923  72.588  1.00  0.00    -0.450 C  
HETATM    2  O   UNL     1     -13.139  15.815  71.631  1.00  0.00    -0.481 OA 
ENDROOT
BRANCH   2   3
HETATM    3  C   UNL     1     -12.533  15.160  70.582  1.00  0.00    -0.388 A  
HETATM    4  C   UNL     1     -12.399  13.798  70.695  1.00  0.00    -0.445 A  
HETATM    5  C   UNL     1     -11.862  13.091  69.613  1.00  0.00    -0.385 A  
HETATM    6  C   UNL     1     -11.621  13.770  68.376  1.00  0.00    -0.369 A  
HETATM    7  C   UNL     1     -11.439  11.668  69.869  1.00  0.00    -0.308 C  
HETATM    8  C   UNL     1     -11.412  13.201  67.072  1.00  0.00    -0.336 A  
HETATM    9  C   UNL     1     -10.834  13.973  66.048  1.00  0.00    -0.295 A  
HETATM   10  C   UNL     1     -11.586  15.184  68.469  1.00  0.00    -0.335 A  
HETATM   11  C   UNL     1     -11.021  15.955  67.433  1.00  0.00    -0.257 A  
HETATM   12  N   UNL     1     -12.054  15.856  69.540  1.00  0.00    -0.276 NA 
HETATM   13  C   UNL     1     -10.615  15.333  66.253  1.00  0.00    -0.312 A  
BRANCH   8  14
HETATM   14  O   UNL     1     -11.785  11.922  66.707  1.00  0.00    -0.548 OA 
BRANCH  14  15
HETATM   15  C   UNL     1     -10.899  10.871  66.583  1.00  0.00    -0.197 A  
HETATM   16  C   UNL     1     -11.127   9.845  67.509  1.00  0.00    -0.141 A  
HETATM   17  C   UNL     1     -10.534   8.595  67.347  1.00  0.00    -0.351 A  
HETATM   18  F   UNL     1      -9.291   9.562  62.966  1.00  0.00    -0.282 F  
HETATM   19  F   UNL     1      -8.443   7.780  63.861  1.00  0.00    -0.080 F  
HETATM   20  C   UNL     1      -9.716   8.360  66.245  1.00  0.00    -0.278 A  
HETATM   21  C   UNL     1      -9.944  10.685  65.579  1.00  0.00    -0.333 A  
HETATM   22  C   UNL     1      -8.645   9.111  64.078  1.00  0.00    -0.166 C  
HETATM   23  F   UNL     1      -7.414   9.686  64.060  1.00  0.00    -0.110 F  
HETATM   24  C   UNL     1      -9.418   9.397  65.346  1.00  0.00    -0.322 A  
ENDBRANCH  14  15
ENDBRANCH   8  14
BRANCH   9  25
HETATM   25  O   UNL     1     -10.495  13.573  64.780  1.00  0.00    -0.379 OA 
HETATM   26  C   UNL     1     -11.538  13.436  63.825  1.00  0.00    -0.313 C  
ENDBRANCH   9  25
BRANCH  11  27
HETATM   27  N   UNL     1     -10.945  17.356  67.588  1.00  0.00    -0.227 NA 
HETATM   28  H   UNL     1     -11.692  17.842  68.083  1.00  0.00     0.000 HD 
BRANCH  27  29
HETATM   29  C   UNL     1      -9.821  18.129  67.057  1.00  0.00    -0.322 C  
HETATM   30  C   UNL     1     -10.399  19.328  66.300  1.00  0.00    -0.566 C  
BRANCH  29  31
HETATM   31  C   UNL     1      -8.914  18.630  68.195  1.00  0.00    -0.335 C  
BRANCH  31  32
HETATM   32  C   UNL     1      -8.199  19.958  67.920  1.00  0.00    -0.318 C  
BRANCH  32  33
HETATM   33  C   UNL     1      -6.718  20.006  68.308  1.00  0.00    -0.289 C  
HETATM   34  N   UNL     1      -6.240  18.723  68.828  1.00  0.00    -0.225 NA 
HETATM   35  H1  UNL     1      -5.254  18.755  69.087  1.00  0.00     0.000 HD 
HETATM   36  H2  UNL     1      -6.424  17.966  68.170  1.00  0.00     0.000 HD 
ENDBRANCH  32  33
ENDBRANCH  31  32
ENDBRANCH  29  31
ENDBRANCH  27  29
ENDBRANCH  11  27
ENDBRANCH   2   3
TORSDOF 9
ENDMDL
MODEL       50
REMARK 921   NORMALIZED FREE ENERGY PREDICTED BY IDOCK:   -6.38 KCAL/MOL
REMARK 922        TOTAL FREE ENERGY PREDICTED BY IDOCK:  -10.71 KCAL/MOL
REMARK 923 INTER-LIGAND FREE ENERGY PREDICTED BY IDOCK:   -8.85 KCAL/MOL
REMARK 924 INTRA-LIGAND FREE ENERGY PREDICTED BY IDOCK:   -1.86 KCAL/MOL
REMARK 927      BINDING AFFINITY PREDICTED BY RF-SCORE:    0.00 PKD
ROOT
HETATM    1  C   UNL     1     -13.894  13.645  72.069  1.00  0.00    -0.474 C  
HETATM    2  O   UNL     1     -12.913  12.614  72.007  1.00  0.00    -0.344 OA 
ENDROOT
BRANCH   2   3
HETATM    3  C   UNL     1     -12.414  12.425  70.737  1.00  0.00    -0.267 A  
HETATM    4  C   UNL     1     -12.440  13.509  69.893  1.00  0.00    -0.194 A  
HETATM    5  C   UNL     1     -11.868  13.376  68.623  1.00  0.00    -0.397 A  
HETATM    6  C   UNL     1     -11.138  12.188  68.298  1.00  0.00    -0.288 A  
HETATM    7  C   UNL     1     -12.180  14.453  67.616  1.00  0.00    -0.200 C  
HETATM    8  C   UNL     1     -10.203  11.981  67.226  1.00  0.00    -0.204 A  
HETATM    9  C   UNL     1      -9.858  10.675  66.831  1.00  0.00    -0.188 A  
HETATM   10  C   UNL     1     -11.382  11.086  69.155  1.00  0.00    -0.280 A  
HETATM   11  C   UNL     1     -11.020   9.781  68.762  1.00  0.00    -0.148 A  
HETATM   12  N   UNL     1     -11.986  11.213  70.354  1.00  0.00    -0.353 NA 
HETATM   13  C   UNL     1     -10.299   9.591  67.585  1.00  0.00    -0.299 A  
BRANCH   8  14
HETATM   14  O   UNL     1      -9.552  12.992  66.548  1.00  0.00    -0.252 OA 
BRANCH  14  15
HETATM   15  C   UNL     1      -8.570  13.783  67.111  1.00  0.00    -0.198 A  
HETATM   16  C   UNL     1      -7.537  13.043  67.701  1.00  0.00    -0.160 A  
HETATM   17  C   UNL     1      -6.334  13.653  68.050  1.00  0.00    -0.139 A  
HETATM   18  F   UNL     1      -7.357  17.470  65.589  1.00  0.00    -0.305 F  
HETATM   19  F   UNL     1      -5.651  17.583  66.921  1.00  0.00    -0.132 F  
HETATM   20  C   UNL     1      -6.153  15.010  67.798  1.00  0.00    -0.154 A  
HETATM   21  C   UNL     1      -8.448  15.172  67.020  1.00  0.00    -0.259 A  
HETATM   22  C   UNL     1      -6.965  17.220  66.870  1.00  0.00    -0.194 C  
HETATM   23  F   UNL     1      -7.631  18.112  67.650  1.00  0.00    -0.209 F  
HETATM   24  C   UNL     1      -7.202  15.782  67.273  1.00  0.00    -0.254 A  
ENDBRANCH  14  15
ENDBRANCH   8  14
BRANCH   9  25
HETATM   25  O   UNL     1      -9.052  10.296  65.788  1.00  0.00    -0.158 OA 
HETATM   26  C   UNL     1      -9.657  10.099  64.517  1.00  0.00    -0.311 C  
ENDBRANCH   9  25
BRANCH  11  27
HETATM   27  N   UNL     1     -11.337   8.700  69.613  1.00  0.00    -0.434 NA 
HETATM   28  H   UNL     1     -12.316   8.473  69.785  1.00  0.00     0.000 HD 
BRANCH  27  29
HETATM   29  C   UNL     1     -10.295   7.896  70.255  1.00  0.00    -0.212 C  
HETATM   30  C   UNL     1      -9.531   8.810  71.217  1.00  0.00    -0.320 C  
BRANCH  29  31
HETATM   31  C   UNL     1     -10.914   6.725  71.042  1.00  0.00    -0.297 C  
BRANCH  31  32
HETATM   32  C   UNL     1     -11.922   7.130  72.124  1.00  0.00    -0.304 C  
BRANCH  32  33
HETATM   33  C   UNL     1     -13.380   7.235  71.665  1.00  0.00    -0.358 C  
HETATM   34  N   UNL     1     -13.744   8.603  71.288  1.00  0.00    -0.569 NA 
HETATM   35  H1  UNL     1     -14.715   8.673  70.983  1.00  0.00     0.000 HD 
HETATM   36  H2  UNL     1     -13.108   8.974  70.583  1.00  0.00     0.000 HD 
ENDBRANCH  32  33
ENDBRANCH  31  32
ENDBRANCH  29  31
ENDBRANCH  27  29
ENDBRANCH  11  27
ENDBRANCH   2   3
TORSDOF 9
ENDMDL
MODEL       51
REMARK 921   NORMALIZED FREE ENERGY PREDICTED BY IDOCK:   -6.38 KCAL/MOL
REMARK 922        TOTAL FREE ENERGY PREDICTED BY IDOCK:  -10.70 KCAL/MOL
REMARK 923 INTER-LIGAND FREE ENERGY PREDICTED BY IDOCK:   -8.69 KCAL/MOL
REMARK 924 INTRA-LIGAND FREE ENERGY PREDICTED BY IDOCK:   -2.01 KCAL/MOL
REMARK 927      BINDING AFFINITY PREDICTED BY RF-SCORE:    0.00 PKD
ROOT
HETATM    1  C   UNL     1     -14.280   8.889  72.373  1.00  0.00    -0.374 C  
HETATM    2  O   UNL     1     -13.639  10.158  72.281  1.00  0.00    -0.355 OA 
ENDROOT
BRANCH   2   3
HETATM    3  C   UNL     1     -12.465  10.113  71.561  1.00  0.00    -0.427 A  
HETATM    4  C   UNL     1     -11.549   9.157  71.927  1.00  0.00    -0.430 A  
HETATM    5  C   UNL     1     -10.381   9.030  71.166  1.00  0.00    -0.362 A  
HETATM    6  C   UNL     1     -10.245   9.776  69.951  1.00  0.00    -0.291 A  
HETATM    7  C   UNL     1      -9.266   8.207  71.758  1.00  0.00    -0.232 C  
HETATM    8  C   UNL     1      -9.327   9.554  68.867  1.00  0.00    -0.149 A  
HETATM    9  C   UNL     1      -9.078  10.575  67.932  1.00  0.00    -0.136 A  
HETATM   10  C   UNL     1     -11.139  10.868  69.819  1.00  0.00    -0.262 A  
HETATM   11  C   UNL     1     -10.894  11.880  68.870  1.00  0.00    -0.221 A  
HETATM   12  N   UNL     1     -12.233  11.013  70.594  1.00  0.00    -0.356 NA 
HETATM   13  C   UNL     1      -9.842  11.739  67.966  1.00  0.00    -0.184 A  
BRANCH   8  14
HETATM   14  O   UNL     1      -8.673   8.362  68.626  1.00  0.00    -0.131 OA 
BRANCH  14  15
HETATM   15  C   UNL     1      -9.315   7.196  68.261  1.00  0.00    -0.130 A  
HETATM   16  C   UNL     1      -9.944   7.280  67.012  1.00  0.00    -0.293 A  
HETATM   17  C   UNL     1     -10.381   6.131  66.357  1.00  0.00    -0.102 A  
HETATM   18  F   UNL     1      -7.972   3.369  69.226  1.00  0.00    -0.051 F  
HETATM   19  F   UNL     1      -9.405   2.414  67.911  1.00  0.00    -0.188 F  
HETATM   20  C   UNL     1     -10.178   4.885  66.943  1.00  0.00    -0.254 A  
HETATM   21  C   UNL     1      -9.270   5.965  68.921  1.00  0.00    -0.126 A  
HETATM   22  C   UNL     1      -9.266   3.434  68.805  1.00  0.00    -0.166 C  
HETATM   23  F   UNL     1     -10.030   3.099  69.879  1.00  0.00    -0.177 F  
HETATM   24  C   UNL     1      -9.614   4.786  68.226  1.00  0.00    -0.204 A  
ENDBRANCH  14  15
ENDBRANCH   8  14
BRANCH   9  25
HETATM   25  O   UNL     1      -8.185  10.564  66.891  1.00  0.00    -0.120 OA 
HETATM   26  C   UNL     1      -8.706  10.564  65.568  1.00  0.00    -0.185 C  
ENDBRANCH   9  25
BRANCH  11  27
HETATM   27  N   UNL     1     -11.771  12.986  68.810  1.00  0.00    -0.305 NA 
HETATM   28  H   UNL     1     -12.747  12.833  68.556  1.00  0.00     0.000 HD 
BRANCH  27  29
HETATM   29  C   UNL     1     -11.314  14.345  69.102  1.00  0.00    -0.277 C  
HETATM   30  C   UNL     1     -11.214  15.098  67.772  1.00  0.00    -0.327 C  
BRANCH  29  31
HETATM   31  C   UNL     1     -12.309  15.070  70.028  1.00  0.00    -0.353 C  
BRANCH  31  32
HETATM   32  C   UNL     1     -12.495  14.431  71.409  1.00  0.00    -0.433 C  
BRANCH  32  33
HETATM   33  C   UNL     1     -13.946  14.195  71.840  1.00  0.00    -0.470 C  
HETATM   34  N   UNL     1     -14.073  13.056  72.752  1.00  0.00    -0.622 NA 
HETATM   35  H1  UNL     1     -15.039  12.898  73.040  1.00  0.00     0.000 HD 
HETATM   36  H2  UNL     1     -13.461  13.161  73.561  1.00  0.00     0.000 HD 
ENDBRANCH  32  33
ENDBRANCH  31  32
ENDBRANCH  29  31
ENDBRANCH  27  29
ENDBRANCH  11  27
ENDBRANCH   2   3
TORSDOF 9
ENDMDL
MODEL       52
REMARK 921   NORMALIZED FREE ENERGY PREDICTED BY IDOCK:   -6.37 KCAL/MOL
REMARK 922        TOTAL FREE ENERGY PREDICTED BY IDOCK:  -10.70 KCAL/MOL
REMARK 923 INTER-LIGAND FREE ENERGY PREDICTED BY IDOCK:   -9.11 KCAL/MOL
REMARK 924 INTRA-LIGAND FREE ENERGY PREDICTED BY IDOCK:   -1.59 KCAL/MOL
REMARK 927      BINDING AFFINITY PREDICTED BY RF-SCORE:    0.00 PKD
ROOT
HETATM    1  C   UNL     1      -5.551  15.615  70.166  1.00  0.00    -0.148 C  
HETATM    2  O   UNL     1      -6.597  16.378  69.572  1.00  0.00    -0.205 OA 
ENDROOT
BRANCH   2   3
HETATM    3  C   UNL     1      -7.403  15.628  68.745  1.00  0.00    -0.144 A  
HETATM    4  C   UNL     1      -7.333  14.263  68.880  1.00  0.00    -0.126 A  
HETATM    5  C   UNL     1      -8.196  13.473  68.113  1.00  0.00    -0.162 A  
HETATM    6  C   UNL     1      -9.226  14.099  67.341  1.00  0.00    -0.204 A  
HETATM    7  C   UNL     1      -7.893  11.999  68.043  1.00  0.00    -0.145 C  
HETATM    8  C   UNL     1     -10.405  13.501  66.774  1.00  0.00    -0.264 A  
HETATM    9  C   UNL     1     -11.112  14.161  65.753  1.00  0.00    -0.309 A  
HETATM   10  C   UNL     1      -9.042  15.486  67.115  1.00  0.00    -0.217 A  
HETATM   11  C   UNL     1      -9.765  16.147  66.102  1.00  0.00    -0.323 A  
HETATM   12  N   UNL     1      -8.167  16.230  67.821  1.00  0.00    -0.148 NA 
HETATM   13  C   UNL     1     -10.762  15.464  65.407  1.00  0.00    -0.416 A  
BRANCH   8  14
HETATM   14  O   UNL     1     -10.954  12.304  67.192  1.00  0.00    -0.241 OA 
BRANCH  14  15
HETATM   15  C   UNL     1     -10.661  11.084  66.616  1.00  0.00    -0.249 A  
HETATM   16  C   UNL     1      -9.947  11.198  65.417  1.00  0.00    -0.309 A  
HETATM   17  C   UNL     1      -9.316  10.090  64.856  1.00  0.00    -0.324 A  
HETATM   18  F   UNL     1      -9.827   7.608  68.761  1.00  0.00    -0.154 F  
HETATM   19  F   UNL     1      -9.181   6.538  66.991  1.00  0.00    -0.123 F  
HETATM   20  C   UNL     1      -9.386   8.859  65.503  1.00  0.00    -0.214 A  
HETATM   21  C   UNL     1     -10.873   9.818  67.167  1.00  0.00    -0.207 A  
HETATM   22  C   UNL     1     -10.123   7.414  67.445  1.00  0.00    -0.211 C  
HETATM   23  F   UNL     1     -11.304   6.742  67.418  1.00  0.00    -0.385 F  
HETATM   24  C   UNL     1     -10.157   8.710  66.667  1.00  0.00    -0.364 A  
ENDBRANCH  14  15
ENDBRANCH   8  14
BRANCH   9  25
HETATM   25  O   UNL     1     -12.200  13.707  65.053  1.00  0.00    -0.380 OA 
HETATM   26  C   UNL     1     -12.025  13.406  63.675  1.00  0.00    -0.446 C  
ENDBRANCH   9  25
BRANCH  11  27
HETATM   27  N   UNL     1      -9.510  17.515  65.863  1.00  0.00    -0.527 NA 
HETATM   28  H   UNL     1      -8.607  17.792  65.478  1.00  0.00     0.000 HD 
BRANCH  27  29
HETATM   29  C   UNL     1     -10.507  18.546  66.154  1.00  0.00    -0.413 C  
HETATM   30  C   UNL     1     -10.948  18.368  67.609  1.00  0.00    -0.160 C  
BRANCH  29  31
HETATM   31  C   UNL     1      -9.910  19.954  65.967  1.00  0.00    -0.515 C  
BRANCH  31  32
HETATM   32  C   UNL     1      -9.261  20.556  67.219  1.00  0.00    -0.500 C  
BRANCH  32  33
HETATM   33  C   UNL     1      -7.743  20.384  67.326  1.00  0.00    -0.333 C  
HETATM   34  N   UNL     1      -7.371  19.066  67.845  1.00  0.00    -0.241 NA 
HETATM   35  H1  UNL     1      -6.360  18.950  67.917  1.00  0.00     0.000 HD 
HETATM   36  H2  UNL     1      -7.789  18.319  67.290  1.00  0.00     0.000 HD 
ENDBRANCH  32  33
ENDBRANCH  31  32
ENDBRANCH  29  31
ENDBRANCH  27  29
ENDBRANCH  11  27
ENDBRANCH   2   3
TORSDOF 9
ENDMDL
MODEL       53
REMARK 921   NORMALIZED FREE ENERGY PREDICTED BY IDOCK:   -6.37 KCAL/MOL
REMARK 922        TOTAL FREE ENERGY PREDICTED BY IDOCK:  -10.70 KCAL/MOL
REMARK 923 INTER-LIGAND FREE ENERGY PREDICTED BY IDOCK:   -9.11 KCAL/MOL
REMARK 924 INTRA-LIGAND FREE ENERGY PREDICTED BY IDOCK:   -1.58 KCAL/MOL
REMARK 927      BINDING AFFINITY PREDICTED BY RF-SCORE:    0.00 PKD
ROOT
HETATM    1  C   UNL     1     -10.963  16.752  65.244  1.00  0.00    -0.078 C  
HETATM    2  O   UNL     1     -10.982  15.540  64.494  1.00  0.00    -0.363 OA 
ENDROOT
BRANCH   2   3
HETATM    3  C   UNL     1     -10.528  14.457  65.216  1.00  0.00    -0.390 A  
HETATM    4  C   UNL     1      -9.988  14.718  66.451  1.00  0.00    -0.291 A  
HETATM    5  C   UNL     1      -9.592  13.635  67.245  1.00  0.00    -0.238 A  
HETATM    6  C   UNL     1      -9.904  12.302  66.827  1.00  0.00    -0.218 A  
HETATM    7  C   UNL     1      -8.728  13.944  68.441  1.00  0.00    -0.173 C  
HETATM    8  C   UNL     1      -9.910  11.099  67.614  1.00  0.00    -0.174 A  
HETATM    9  C   UNL     1      -9.880   9.841  66.984  1.00  0.00    -0.193 A  
HETATM   10  C   UNL     1     -10.247  12.172  65.458  1.00  0.00    -0.265 A  
HETATM   11  C   UNL     1     -10.233  10.908  64.835  1.00  0.00    -0.316 A  
HETATM   12  N   UNL     1     -10.573  13.227  64.684  1.00  0.00    -0.383 NA 
HETATM   13  C   UNL     1     -10.008   9.764  65.599  1.00  0.00    -0.352 A  
BRANCH   8  14
HETATM   14  O   UNL     1      -9.990  11.065  68.992  1.00  0.00    -0.205 OA 
BRANCH  14  15
HETATM   15  C   UNL     1     -11.157  11.278  69.698  1.00  0.00    -0.206 A  
HETATM   16  C   UNL     1     -11.739  10.095  70.172  1.00  0.00    -0.330 A  
HETATM   17  C   UNL     1     -12.740  10.132  71.139  1.00  0.00    -0.494 A  
HETATM   18  F   UNL     1     -11.878  14.603  72.107  1.00  0.00    -0.391 F  
HETATM   19  F   UNL     1     -13.682  13.743  72.945  1.00  0.00    -0.580 F  
HETATM   20  C   UNL     1     -13.158  11.358  71.650  1.00  0.00    -0.498 A  
HETATM   21  C   UNL     1     -11.698  12.507  70.084  1.00  0.00    -0.255 A  
HETATM   22  C   UNL     1     -12.985  13.879  71.780  1.00  0.00    -0.358 C  
HETATM   23  F   UNL     1     -13.740  14.682  70.984  1.00  0.00    -0.409 F  
HETATM   24  C   UNL     1     -12.638  12.557  71.136  1.00  0.00    -0.349 A  
ENDBRANCH  14  15
ENDBRANCH   8  14
BRANCH   9  25
HETATM   25  O   UNL     1      -9.804   8.605  67.573  1.00  0.00    -0.160 OA 
HETATM   26  C   UNL     1     -10.478   7.525  66.941  1.00  0.00    -0.315 C  
ENDBRANCH   9  25
BRANCH  11  27
HETATM   27  N   UNL     1     -10.518  10.824  63.454  1.00  0.00    -0.548 NA 
HETATM   28  H   UNL     1     -11.480  10.942  63.138  1.00  0.00     0.000 HD 
BRANCH  27  29
HETATM   29  C   UNL     1      -9.469  10.572  62.466  1.00  0.00    -0.254 C  
HETATM   30  C   UNL     1      -8.213  11.322  62.920  1.00  0.00     0.181 C  
BRANCH  29  31
HETATM   31  C   UNL     1      -9.160   9.067  62.366  1.00  0.00     0.034 C  
BRANCH  31  32
HETATM   32  C   UNL     1      -7.680   8.696  62.518  1.00  0.00    -0.122 C  
BRANCH  32  33
HETATM   33  C   UNL     1      -7.359   7.699  63.636  1.00  0.00    -0.093 C  
HETATM   34  N   UNL     1      -8.461   6.766  63.879  1.00  0.00    -0.328 NA 
HETATM   35  H1  UNL     1      -8.248   6.102  64.624  1.00  0.00     0.000 HD 
HETATM   36  H2  UNL     1      -8.733   6.284  63.023  1.00  0.00     0.000 HD 
ENDBRANCH  32  33
ENDBRANCH  31  32
ENDBRANCH  29  31
ENDBRANCH  27  29
ENDBRANCH  11  27
ENDBRANCH   2   3
TORSDOF 9
ENDMDL
MODEL       54
REMARK 921   NORMALIZED FREE ENERGY PREDICTED BY IDOCK:   -6.36 KCAL/MOL
REMARK 922        TOTAL FREE ENERGY PREDICTED BY IDOCK:  -10.68 KCAL/MOL
REMARK 923 INTER-LIGAND FREE ENERGY PREDICTED BY IDOCK:   -9.22 KCAL/MOL
REMARK 924 INTRA-LIGAND FREE ENERGY PREDICTED BY IDOCK:   -1.46 KCAL/MOL
REMARK 927      BINDING AFFINITY PREDICTED BY RF-SCORE:    0.00 PKD
ROOT
HETATM    1  C   UNL     1     -12.528  15.357  71.823  1.00  0.00    -0.378 C  
HETATM    2  O   UNL     1     -13.337  14.446  71.084  1.00  0.00    -0.355 OA 
ENDROOT
BRANCH   2   3
HETATM    3  C   UNL     1     -12.598  13.591  70.296  1.00  0.00    -0.152 A  
HETATM    4  C   UNL     1     -12.342  12.342  70.808  1.00  0.00    -0.377 A  
HETATM    5  C   UNL     1     -11.664  11.420  70.003  1.00  0.00    -0.416 A  
HETATM    6  C   UNL     1     -11.402  11.739  68.632  1.00  0.00    -0.327 A  
HETATM    7  C   UNL     1     -11.123  10.188  70.681  1.00  0.00    -0.397 C  
HETATM    8  C   UNL     1     -11.048  10.847  67.561  1.00  0.00    -0.310 A  
HETATM    9  C   UNL     1     -10.476  11.353  66.379  1.00  0.00    -0.254 A  
HETATM   10  C   UNL     1     -11.511  13.114  68.308  1.00  0.00    -0.314 A  
HETATM   11  C   UNL     1     -10.951  13.614  67.115  1.00  0.00    -0.288 A  
HETATM   12  N   UNL     1     -12.116  14.008  69.116  1.00  0.00    -0.355 NA 
HETATM   13  C   UNL     1     -10.404  12.730  66.186  1.00  0.00    -0.283 A  
BRANCH   8  14
HETATM   14  O   UNL     1     -11.268   9.484  67.572  1.00  0.00    -0.061 OA 
BRANCH  14  15
HETATM   15  C   UNL     1     -10.353   8.563  68.040  1.00  0.00    -0.217 A  
HETATM   16  C   UNL     1      -9.034   9.036  68.018  1.00  0.00    -0.133 A  
HETATM   17  C   UNL     1      -8.029   8.371  68.717  1.00  0.00    -0.120 A  
HETATM   18  F   UNL     1     -11.119   5.820  71.084  1.00  0.00    -0.316 F  
HETATM   19  F   UNL     1      -9.038   5.235  71.232  1.00  0.00    -0.140 F  
HETATM   20  C   UNL     1      -8.340   7.233  69.454  1.00  0.00    -0.133 A  
HETATM   21  C   UNL     1     -10.625   7.328  68.635  1.00  0.00    -0.194 A  
HETATM   22  C   UNL     1     -10.014   5.551  70.333  1.00  0.00    -0.214 C  
HETATM   23  F   UNL     1     -10.287   4.404  69.657  1.00  0.00    -0.279 F  
HETATM   24  C   UNL     1      -9.640   6.703  69.428  1.00  0.00    -0.148 A  
ENDBRANCH  14  15
ENDBRANCH   8  14
BRANCH   9  25
HETATM   25  O   UNL     1     -10.011  10.647  65.299  1.00  0.00    -0.255 OA 
HETATM   26  C   UNL     1     -10.340  11.125  64.001  1.00  0.00    -0.376 C  
ENDBRANCH   9  25
BRANCH  11  27
HETATM   27  N   UNL     1     -11.022  15.001  66.856  1.00  0.00    -0.320 NA 
HETATM   28  H   UNL     1     -11.654  15.578  67.411  1.00  0.00     0.000 HD 
BRANCH  27  29
HETATM   29  C   UNL     1     -10.213  15.631  65.812  1.00  0.00    -0.367 C  
HETATM   30  C   UNL     1     -11.151  16.008  64.662  1.00  0.00    -0.346 C  
BRANCH  29  31
HETATM   31  C   UNL     1      -9.519  16.898  66.347  1.00  0.00    -0.306 C  
BRANCH  31  32
HETATM   32  C   UNL     1     -10.427  17.855  67.127  1.00  0.00    -0.359 C  
BRANCH  32  33
HETATM   33  C   UNL     1     -10.125  17.984  68.623  1.00  0.00    -0.394 C  
HETATM   34  N   UNL     1     -10.608  16.831  69.386  1.00  0.00    -0.336 NA 
HETATM   35  H1  UNL     1     -10.407  16.916  70.382  1.00  0.00     0.000 HD 
HETATM   36  H2  UNL     1     -10.240  15.958  69.009  1.00  0.00     0.000 HD 
ENDBRANCH  32  33
ENDBRANCH  31  32
ENDBRANCH  29  31
ENDBRANCH  27  29
ENDBRANCH  11  27
ENDBRANCH   2   3
TORSDOF 9
ENDMDL
MODEL       55
REMARK 921   NORMALIZED FREE ENERGY PREDICTED BY IDOCK:   -6.35 KCAL/MOL
REMARK 922        TOTAL FREE ENERGY PREDICTED BY IDOCK:  -10.66 KCAL/MOL
REMARK 923 INTER-LIGAND FREE ENERGY PREDICTED BY IDOCK:   -8.26 KCAL/MOL
REMARK 924 INTRA-LIGAND FREE ENERGY PREDICTED BY IDOCK:   -2.40 KCAL/MOL
REMARK 927      BINDING AFFINITY PREDICTED BY RF-SCORE:    0.00 PKD
ROOT
HETATM    1  C   UNL     1     -12.533  14.291  63.966  1.00  0.00    -0.129 C  
HETATM    2  O   UNL     1     -11.819  15.487  64.263  1.00  0.00    -0.415 OA 
ENDROOT
BRANCH   2   3
HETATM    3  C   UNL     1     -10.974  15.352  65.343  1.00  0.00    -0.368 A  
HETATM    4  C   UNL     1     -11.369  14.488  66.334  1.00  0.00    -0.349 A  
HETATM    5  C   UNL     1     -10.498  14.265  67.407  1.00  0.00    -0.264 A  
HETATM    6  C   UNL     1      -9.173  14.806  67.365  1.00  0.00    -0.200 A  
HETATM    7  C   UNL     1     -11.068  13.572  68.618  1.00  0.00    -0.299 C  
HETATM    8  C   UNL     1      -8.031  14.432  68.155  1.00  0.00    -0.136 A  
HETATM    9  C   UNL     1      -6.923  15.293  68.247  1.00  0.00    -0.117 A  
HETATM   10  C   UNL     1      -8.983  15.843  66.418  1.00  0.00    -0.326 A  
HETATM   11  C   UNL     1      -7.862  16.693  66.504  1.00  0.00    -0.307 A  
HETATM   12  N   UNL     1      -9.856  16.089  65.420  1.00  0.00    -0.449 NA 
HETATM   13  C   UNL     1      -6.868  16.430  67.445  1.00  0.00    -0.201 A  
BRANCH   8  14
HETATM   14  O   UNL     1      -7.902  13.231  68.824  1.00  0.00    -0.097 OA 
BRANCH  14  15
HETATM   15  C   UNL     1      -7.867  12.003  68.195  1.00  0.00    -0.145 A  
HETATM   16  C   UNL     1      -8.030  10.927  69.077  1.00  0.00    -0.131 A  
HETATM   17  C   UNL     1      -8.315   9.650  68.597  1.00  0.00    -0.114 A  
HETATM   18  F   UNL     1      -9.322  11.282  64.355  1.00  0.00    -0.224 F  
HETATM   19  F   UNL     1      -9.126   9.134  64.565  1.00  0.00    -0.242 F  
HETATM   20  C   UNL     1      -8.452   9.445  67.227  1.00  0.00    -0.125 A  
HETATM   21  C   UNL     1      -7.832  11.758  66.820  1.00  0.00    -0.103 A  
HETATM   22  C   UNL     1      -8.502  10.312  64.851  1.00  0.00    -0.177 C  
HETATM   23  F   UNL     1      -7.380  10.338  64.084  1.00  0.00    -0.138 F  
HETATM   24  C   UNL     1      -8.221  10.496  66.325  1.00  0.00    -0.147 A  
ENDBRANCH  14  15
ENDBRANCH   8  14
BRANCH   9  25
HETATM   25  O   UNL     1      -5.793  15.133  69.009  1.00  0.00    -0.096 OA 
HETATM   26  C   UNL     1      -5.631  15.977  70.141  1.00  0.00    -0.166 C  
ENDBRANCH   9  25
BRANCH  11  27
HETATM   27  N   UNL     1      -7.739  17.756  65.582  1.00  0.00    -0.499 NA 
HETATM   28  H   UNL     1      -8.110  17.641  64.639  1.00  0.00     0.000 HD 
BRANCH  27  29
HETATM   29  C   UNL     1      -7.090  19.017  65.944  1.00  0.00    -0.263 C  
HETATM   30  C   UNL     1      -6.122  19.382  64.816  1.00  0.00    -0.310 C  
BRANCH  29  31
HETATM   31  C   UNL     1      -8.131  20.140  66.111  1.00  0.00    -0.246 C  
BRANCH  31  32
HETATM   32  C   UNL     1      -9.047  20.001  67.332  1.00  0.00    -0.460 C  
BRANCH  32  33
HETATM   33  C   UNL     1     -10.489  19.578  67.035  1.00  0.00    -0.472 C  
HETATM   34  N   UNL     1     -10.635  19.019  65.689  1.00  0.00    -0.549 NA 
HETATM   35  H1  UNL     1     -11.595  18.737  65.490  1.00  0.00     0.000 HD 
HETATM   36  H2  UNL     1      -9.985  18.248  65.536  1.00  0.00     0.000 HD 
ENDBRANCH  32  33
ENDBRANCH  31  32
ENDBRANCH  29  31
ENDBRANCH  27  29
ENDBRANCH  11  27
ENDBRANCH   2   3
TORSDOF 9
ENDMDL
MODEL       56
REMARK 921   NORMALIZED FREE ENERGY PREDICTED BY IDOCK:   -6.34 KCAL/MOL
REMARK 922        TOTAL FREE ENERGY PREDICTED BY IDOCK:  -10.65 KCAL/MOL
REMARK 923 INTER-LIGAND FREE ENERGY PREDICTED BY IDOCK:   -8.51 KCAL/MOL
REMARK 924 INTRA-LIGAND FREE ENERGY PREDICTED BY IDOCK:   -2.14 KCAL/MOL
REMARK 927      BINDING AFFINITY PREDICTED BY RF-SCORE:    0.00 PKD
ROOT
HETATM    1  C   UNL     1     -13.919   9.083  72.171  1.00  0.00    -0.435 C  
HETATM    2  O   UNL     1     -13.373  10.290  71.646  1.00  0.00    -0.384 OA 
ENDROOT
BRANCH   2   3
HETATM    3  C   UNL     1     -12.229  10.083  70.906  1.00  0.00    -0.346 A  
HETATM    4  C   UNL     1     -11.199   9.422  71.529  1.00  0.00    -0.457 A  
HETATM    5  C   UNL     1     -10.054   9.123  70.783  1.00  0.00    -0.333 A  
HETATM    6  C   UNL     1     -10.049   9.362  69.371  1.00  0.00    -0.204 A  
HETATM    7  C   UNL     1      -8.832   8.688  71.550  1.00  0.00    -0.285 C  
HETATM    8  C   UNL     1      -9.153   8.831  68.380  1.00  0.00    -0.141 A  
HETATM    9  C   UNL     1      -9.056   9.440  67.116  1.00  0.00    -0.130 A  
HETATM   10  C   UNL     1     -11.063  10.238  68.912  1.00  0.00    -0.231 A  
HETATM   11  C   UNL     1     -10.970  10.834  67.638  1.00  0.00    -0.306 A  
HETATM   12  N   UNL     1     -12.137  10.567  69.659  1.00  0.00    -0.219 NA 
HETATM   13  C   UNL     1      -9.944  10.457  66.773  1.00  0.00    -0.256 A  
BRANCH   8  14
HETATM   14  O   UNL     1      -8.379   7.700  68.550  1.00  0.00    -0.127 OA 
BRANCH  14  15
HETATM   15  C   UNL     1      -8.882   6.415  68.524  1.00  0.00    -0.119 A  
HETATM   16  C   UNL     1      -9.007   5.898  67.227  1.00  0.00    -0.108 A  
HETATM   17  C   UNL     1      -9.213   4.536  67.022  1.00  0.00    -0.145 A  
HETATM   18  F   UNL     1      -8.119   3.528  71.433  1.00  0.00    -0.057 F  
HETATM   19  F   UNL     1      -9.003   1.942  70.249  1.00  0.00    -0.097 F  
HETATM   20  C   UNL     1      -9.281   3.677  68.115  1.00  0.00    -0.221 A  
HETATM   21  C   UNL     1      -9.125   5.580  69.617  1.00  0.00    -0.152 A  
HETATM   22  C   UNL     1      -9.166   3.248  70.607  1.00  0.00    -0.137 C  
HETATM   23  F   UNL     1     -10.281   3.288  71.383  1.00  0.00    -0.221 F  
HETATM   24  C   UNL     1      -9.231   4.187  69.423  1.00  0.00    -0.210 A  
ENDBRANCH  14  15
ENDBRANCH   8  14
BRANCH   9  25
HETATM   25  O   UNL     1      -8.207   9.117  66.088  1.00  0.00    -0.108 OA 
HETATM   26  C   UNL     1      -8.736   9.104  64.768  1.00  0.00    -0.176 C  
ENDBRANCH   9  25
BRANCH  11  27
HETATM   27  N   UNL     1     -11.967  11.751  67.239  1.00  0.00    -0.607 NA 
HETATM   28  H   UNL     1     -12.931  11.596  67.533  1.00  0.00     0.000 HD 
BRANCH  27  29
HETATM   29  C   UNL     1     -11.652  12.918  66.414  1.00  0.00    -0.371 C  
HETATM   30  C   UNL     1     -12.533  12.854  65.163  1.00  0.00    -0.561 C  
BRANCH  29  31
HETATM   31  C   UNL     1     -11.940  14.224  67.178  1.00  0.00    -0.449 C  
BRANCH  31  32
HETATM   32  C   UNL     1     -10.698  14.972  67.676  1.00  0.00    -0.274 C  
BRANCH  32  33
HETATM   33  C   UNL     1     -10.027  14.387  68.923  1.00  0.00    -0.182 C  
HETATM   34  N   UNL     1     -10.990  13.739  69.817  1.00  0.00    -0.458 NA 
HETATM   35  H1  UNL     1     -10.544  13.349  70.647  1.00  0.00     0.000 HD 
HETATM   36  H2  UNL     1     -11.533  13.031  69.323  1.00  0.00     0.000 HD 
ENDBRANCH  32  33
ENDBRANCH  31  32
ENDBRANCH  29  31
ENDBRANCH  27  29
ENDBRANCH  11  27
ENDBRANCH   2   3
TORSDOF 9
ENDMDL
MODEL       57
REMARK 921   NORMALIZED FREE ENERGY PREDICTED BY IDOCK:   -6.34 KCAL/MOL
REMARK 922        TOTAL FREE ENERGY PREDICTED BY IDOCK:  -10.64 KCAL/MOL
REMARK 923 INTER-LIGAND FREE ENERGY PREDICTED BY IDOCK:   -8.85 KCAL/MOL
REMARK 924 INTRA-LIGAND FREE ENERGY PREDICTED BY IDOCK:   -1.79 KCAL/MOL
REMARK 927      BINDING AFFINITY PREDICTED BY RF-SCORE:    0.00 PKD
ROOT
HETATM    1  C   UNL     1     -14.119   8.302  71.720  1.00  0.00    -0.437 C  
HETATM    2  O   UNL     1     -13.766   9.636  71.368  1.00  0.00    -0.326 OA 
ENDROOT
BRANCH   2   3
HETATM    3  C   UNL     1     -12.430   9.772  71.056  1.00  0.00    -0.323 A  
HETATM    4  C   UNL     1     -11.540   9.049  71.812  1.00  0.00    -0.444 A  
HETATM    5  C   UNL     1     -10.184   9.100  71.471  1.00  0.00    -0.403 A  
HETATM    6  C   UNL     1      -9.783   9.761  70.266  1.00  0.00    -0.279 A  
HETATM    7  C   UNL     1      -9.204   8.564  72.482  1.00  0.00    -0.303 C  
HETATM    8  C   UNL     1      -8.538   9.644  69.556  1.00  0.00    -0.172 A  
HETATM    9  C   UNL     1      -8.169  10.619  68.611  1.00  0.00    -0.135 A  
HETATM   10  C   UNL     1     -10.751  10.639  69.718  1.00  0.00    -0.230 A  
HETATM   11  C   UNL     1     -10.380  11.603  68.759  1.00  0.00    -0.195 A  
HETATM   12  N   UNL     1     -12.047  10.622  70.093  1.00  0.00    -0.315 NA 
HETATM   13  C   UNL     1      -9.083  11.606  68.250  1.00  0.00    -0.187 A  
BRANCH   8  14
HETATM   14  O   UNL     1      -7.654   8.592  69.693  1.00  0.00    -0.083 OA 
BRANCH  14  15
HETATM   15  C   UNL     1      -7.856   7.344  69.138  1.00  0.00    -0.116 A  
HETATM   16  C   UNL     1      -7.539   6.295  70.011  1.00  0.00    -0.096 A  
HETATM   17  C   UNL     1      -7.952   4.993  69.738  1.00  0.00    -0.074 A  
HETATM   18  F   UNL     1     -10.892   6.435  66.429  1.00  0.00    -0.282 F  
HETATM   19  F   UNL     1     -10.518   4.304  66.555  1.00  0.00    -0.235 F  
HETATM   20  C   UNL     1      -8.700   4.734  68.592  1.00  0.00    -0.111 A  
HETATM   21  C   UNL     1      -8.453   7.052  67.909  1.00  0.00    -0.124 A  
HETATM   22  C   UNL     1      -9.890   5.514  66.500  1.00  0.00    -0.172 C  
HETATM   23  F   UNL     1      -9.256   5.553  65.298  1.00  0.00    -0.157 F  
HETATM   24  C   UNL     1      -8.965   5.760  67.670  1.00  0.00    -0.107 A  
ENDBRANCH  14  15
ENDBRANCH   8  14
BRANCH   9  25
HETATM   25  O   UNL     1      -6.996  10.706  67.906  1.00  0.00    -0.075 OA 
HETATM   26  C   UNL     1      -7.051  11.240  66.589  1.00  0.00    -0.127 C  
ENDBRANCH   9  25
BRANCH  11  27
HETATM   27  N   UNL     1     -11.358  12.504  68.282  1.00  0.00    -0.263 NA 
HETATM   28  H   UNL     1     -12.225  12.619  68.807  1.00  0.00     0.000 HD 
BRANCH  27  29
HETATM   29  C   UNL     1     -11.160  13.275  67.055  1.00  0.00    -0.282 C  
HETATM   30  C   UNL     1     -11.914  12.560  65.930  1.00  0.00    -0.472 C  
BRANCH  29  31
HETATM   31  C   UNL     1     -11.709  14.705  67.212  1.00  0.00    -0.406 C  
BRANCH  31  32
HETATM   32  C   UNL     1     -10.789  15.815  66.690  1.00  0.00    -0.241 C  
BRANCH  32  33
HETATM   33  C   UNL     1     -10.368  15.691  65.222  1.00  0.00    -0.375 C  
HETATM   34  N   UNL     1     -11.266  16.421  64.325  1.00  0.00    -1.298 NA 
HETATM   35  H1  UNL     1     -10.986  16.339  63.348  1.00  0.00     0.000 HD 
HETATM   36  H2  UNL     1     -11.351  17.398  64.603  1.00  0.00     0.000 HD 
ENDBRANCH  32  33
ENDBRANCH  31  32
ENDBRANCH  29  31
ENDBRANCH  27  29
ENDBRANCH  11  27
ENDBRANCH   2   3
TORSDOF 9
ENDMDL
MODEL       58
REMARK 921   NORMALIZED FREE ENERGY PREDICTED BY IDOCK:   -6.33 KCAL/MOL
REMARK 922        TOTAL FREE ENERGY PREDICTED BY IDOCK:  -10.64 KCAL/MOL
REMARK 923 INTER-LIGAND FREE ENERGY PREDICTED BY IDOCK:   -8.80 KCAL/MOL
REMARK 924 INTRA-LIGAND FREE ENERGY PREDICTED BY IDOCK:   -1.83 KCAL/MOL
REMARK 927      BINDING AFFINITY PREDICTED BY RF-SCORE:    0.00 PKD
ROOT
HETATM    1  C   UNL     1     -10.774  18.286  65.332  1.00  0.00     0.229 C  
HETATM    2  O   UNL     1     -11.070  17.103  64.596  1.00  0.00    -1.036 OA 
ENDROOT
BRANCH   2   3
HETATM    3  C   UNL     1     -10.647  15.956  65.233  1.00  0.00    -0.419 A  
HETATM    4  C   UNL     1     -11.462  14.856  65.134  1.00  0.00    -0.357 A  
HETATM    5  C   UNL     1     -11.025  13.652  65.701  1.00  0.00    -0.294 A  
HETATM    6  C   UNL     1      -9.693  13.558  66.217  1.00  0.00    -0.287 A  
HETATM    7  C   UNL     1     -12.050  12.558  65.856  1.00  0.00    -0.420 C  
HETATM    8  C   UNL     1      -8.934  12.373  66.514  1.00  0.00    -0.145 A  
HETATM    9  C   UNL     1      -7.801  12.450  67.344  1.00  0.00    -0.174 A  
HETATM   10  C   UNL     1      -9.058  14.801  66.459  1.00  0.00    -0.260 A  
HETATM   11  C   UNL     1      -7.913  14.871  67.277  1.00  0.00    -0.209 A  
HETATM   12  N   UNL     1      -9.518  15.965  65.956  1.00  0.00    -0.336 NA 
HETATM   13  C   UNL     1      -7.324  13.696  67.742  1.00  0.00    -0.170 A  
BRANCH   8  14
HETATM   14  O   UNL     1      -9.205  11.120  66.001  1.00  0.00    -0.192 OA 
BRANCH  14  15
HETATM   15  C   UNL     1      -9.837  10.120  66.712  1.00  0.00    -0.196 A  
HETATM   16  C   UNL     1      -9.793   8.875  66.071  1.00  0.00    -0.277 A  
HETATM   17  C   UNL     1     -10.112   7.708  66.761  1.00  0.00    -0.325 A  
HETATM   18  F   UNL     1      -9.916   9.881  70.874  1.00  0.00    -0.319 F  
HETATM   19  F   UNL     1     -10.755   7.883  70.853  1.00  0.00    -0.213 F  
HETATM   20  C   UNL     1     -10.464   7.779  68.106  1.00  0.00    -0.230 A  
HETATM   21  C   UNL     1     -10.357  10.203  68.006  1.00  0.00    -0.227 A  
HETATM   22  C   UNL     1     -10.830   9.097  70.235  1.00  0.00    -0.246 C  
HETATM   23  F   UNL     1     -12.050   9.604  70.552  1.00  0.00    -0.298 F  
HETATM   24  C   UNL     1     -10.583   9.023  68.746  1.00  0.00    -0.196 A  
ENDBRANCH  14  15
ENDBRANCH   8  14
BRANCH   9  25
HETATM   25  O   UNL     1      -7.012  11.420  67.791  1.00  0.00    -0.071 OA 
HETATM   26  C   UNL     1      -7.073  11.088  69.172  1.00  0.00    -0.116 C  
ENDBRANCH   9  25
BRANCH  11  27
HETATM   27  N   UNL     1      -7.344  16.135  67.549  1.00  0.00    -0.144 NA 
HETATM   28  H   UNL     1      -6.660  16.522  66.899  1.00  0.00     0.000 HD 
BRANCH  27  29
HETATM   29  C   UNL     1      -7.711  16.903  68.740  1.00  0.00    -0.247 C  
HETATM   30  C   UNL     1      -6.428  17.177  69.529  1.00  0.00    -0.210 C  
BRANCH  29  31
HETATM   31  C   UNL     1      -8.367  18.241  68.348  1.00  0.00    -0.323 C  
BRANCH  31  32
HETATM   32  C   UNL     1      -7.399  19.316  67.844  1.00  0.00    -0.289 C  
BRANCH  32  33
HETATM   33  C   UNL     1      -7.473  19.624  66.345  1.00  0.00    -0.275 C  
HETATM   34  N   UNL     1      -7.327  18.420  65.525  1.00  0.00    -0.531 NA 
HETATM   35  H1  UNL     1      -7.377  18.624  64.527  1.00  0.00     0.000 HD 
HETATM   36  H2  UNL     1      -8.008  17.709  65.789  1.00  0.00     0.000 HD 
ENDBRANCH  32  33
ENDBRANCH  31  32
ENDBRANCH  29  31
ENDBRANCH  27  29
ENDBRANCH  11  27
ENDBRANCH   2   3
TORSDOF 9
ENDMDL
MODEL       59
REMARK 921   NORMALIZED FREE ENERGY PREDICTED BY IDOCK:   -6.32 KCAL/MOL
REMARK 922        TOTAL FREE ENERGY PREDICTED BY IDOCK:  -10.62 KCAL/MOL
REMARK 923 INTER-LIGAND FREE ENERGY PREDICTED BY IDOCK:   -8.41 KCAL/MOL
REMARK 924 INTRA-LIGAND FREE ENERGY PREDICTED BY IDOCK:   -2.20 KCAL/MOL
REMARK 927      BINDING AFFINITY PREDICTED BY RF-SCORE:    0.00 PKD
ROOT
HETATM    1  C   UNL     1     -10.506  14.400  68.419  1.00  0.00    -0.246 C  
HETATM    2  O   UNL     1      -9.530  13.978  67.471  1.00  0.00    -0.210 OA 
ENDROOT
BRANCH   2   3
HETATM    3  C   UNL     1      -9.199  12.647  67.602  1.00  0.00    -0.191 A  
HETATM    4  C   UNL     1      -8.394  12.309  68.662  1.00  0.00    -0.002 A  
HETATM    5  C   UNL     1      -8.104  10.956  68.872  1.00  0.00    -0.144 A  
HETATM    6  C   UNL     1      -8.773   9.961  68.089  1.00  0.00    -0.122 A  
HETATM    7  C   UNL     1      -6.987  10.637  69.831  1.00  0.00    -0.148 C  
HETATM    8  C   UNL     1      -8.895   8.553  68.352  1.00  0.00    -0.139 A  
HETATM    9  C   UNL     1      -9.260   7.670  67.320  1.00  0.00    -0.131 A  
HETATM   10  C   UNL     1      -9.385  10.446  66.906  1.00  0.00    -0.162 A  
HETATM   11  C   UNL     1      -9.764   9.556  65.881  1.00  0.00    -0.282 A  
HETATM   12  N   UNL     1      -9.610  11.757  66.686  1.00  0.00    -0.200 NA 
HETATM   13  C   UNL     1      -9.658   8.181  66.087  1.00  0.00    -0.188 A  
BRANCH   8  14
HETATM   14  O   UNL     1      -8.723   7.970  69.592  1.00  0.00    -0.131 OA 
BRANCH  14  15
HETATM   15  C   UNL     1      -9.731   7.842  70.526  1.00  0.00    -0.175 A  
HETATM   16  C   UNL     1      -9.284   7.340  71.755  1.00  0.00    -0.153 A  
HETATM   17  C   UNL     1     -10.086   7.421  72.891  1.00  0.00    -0.293 A  
HETATM   18  F   UNL     1     -12.996  10.416  70.834  1.00  0.00    -0.398 F  
HETATM   19  F   UNL     1     -13.631   9.563  72.722  1.00  0.00    -0.446 F  
HETATM   20  C   UNL     1     -11.340   8.019  72.806  1.00  0.00    -0.439 A  
HETATM   21  C   UNL     1     -11.052   8.281  70.409  1.00  0.00    -0.238 A  
HETATM   22  C   UNL     1     -13.133   9.233  71.496  1.00  0.00    -0.363 C  
HETATM   23  F   UNL     1     -14.124   8.556  70.858  1.00  0.00    -0.224 F  
HETATM   24  C   UNL     1     -11.834   8.462  71.569  1.00  0.00    -0.345 A  
ENDBRANCH  14  15
ENDBRANCH   8  14
BRANCH   9  25
HETATM   25  O   UNL     1      -9.348   6.302  67.373  1.00  0.00    -0.116 OA 
HETATM   26  C   UNL     1     -10.645   5.719  67.375  1.00  0.00    -0.265 C  
ENDBRANCH   9  25
BRANCH  11  27
HETATM   27  N   UNL     1     -10.313  10.080  64.690  1.00  0.00    -0.264 NA 
HETATM   28  H   UNL     1     -11.316   9.996  64.527  1.00  0.00     0.000 HD 
BRANCH  27  29
HETATM   29  C   UNL     1      -9.479  10.740  63.684  1.00  0.00    -0.291 C  
HETATM   30  C   UNL     1      -9.219   9.730  62.563  1.00  0.00    -0.281 C  
BRANCH  29  31
HETATM   31  C   UNL     1     -10.193  11.976  63.106  1.00  0.00    -0.275 C  
BRANCH  31  32
HETATM   32  C   UNL     1     -11.688  12.074  63.432  1.00  0.00    -0.519 C  
BRANCH  32  33
HETATM   33  C   UNL     1     -12.076  13.157  64.444  1.00  0.00    -0.410 C  
HETATM   34  N   UNL     1     -12.378  12.599  65.764  1.00  0.00    -0.619 NA 
HETATM   35  H1  UNL     1     -12.636  13.320  66.438  1.00  0.00     0.000 HD 
HETATM   36  H2  UNL     1     -11.605  12.030  66.110  1.00  0.00     0.000 HD 
ENDBRANCH  32  33
ENDBRANCH  31  32
ENDBRANCH  29  31
ENDBRANCH  27  29
ENDBRANCH  11  27
ENDBRANCH   2   3
TORSDOF 9
ENDMDL
MODEL       60
REMARK 921   NORMALIZED FREE ENERGY PREDICTED BY IDOCK:   -6.31 KCAL/MOL
REMARK 922        TOTAL FREE ENERGY PREDICTED BY IDOCK:  -10.61 KCAL/MOL
REMARK 923 INTER-LIGAND FREE ENERGY PREDICTED BY IDOCK:   -8.69 KCAL/MOL
REMARK 924 INTRA-LIGAND FREE ENERGY PREDICTED BY IDOCK:   -1.92 KCAL/MOL
REMARK 927      BINDING AFFINITY PREDICTED BY RF-SCORE:    0.00 PKD
ROOT
HETATM    1  C   UNL     1     -10.657   7.518  73.167  1.00  0.00    -0.388 C  
HETATM    2  O   UNL     1     -11.707   7.542  72.204  1.00  0.00    -0.284 OA 
ENDROOT
BRANCH   2   3
HETATM    3  C   UNL     1     -11.425   8.352  71.125  1.00  0.00    -0.274 A  
HETATM    4  C   UNL     1     -11.718   9.687  71.258  1.00  0.00    -0.458 A  
HETATM    5  C   UNL     1     -11.370  10.551  70.213  1.00  0.00    -0.407 A  
HETATM    6  C   UNL     1     -10.584  10.059  69.122  1.00  0.00    -0.240 A  
HETATM    7  C   UNL     1     -11.971  11.932  70.240  1.00  0.00    -0.416 C  
HETATM    8  C   UNL     1      -9.838  10.811  68.150  1.00  0.00    -0.158 A  
HETATM    9  C   UNL     1      -9.429  10.203  66.949  1.00  0.00    -0.169 A  
HETATM   10  C   UNL     1     -10.551   8.647  69.001  1.00  0.00    -0.160 A  
HETATM   11  C   UNL     1     -10.125   8.043  67.802  1.00  0.00    -0.195 A  
HETATM   12  N   UNL     1     -10.941   7.820  69.993  1.00  0.00    -0.241 NA 
HETATM   13  C   UNL     1      -9.608   8.833  66.776  1.00  0.00    -0.267 A  
BRANCH   8  14
HETATM   14  O   UNL     1      -9.431  12.120  68.316  1.00  0.00    -0.202 OA 
BRANCH  14  15
HETATM   15  C   UNL     1      -9.913  13.173  67.566  1.00  0.00    -0.223 A  
HETATM   16  C   UNL     1      -8.954  14.167  67.331  1.00  0.00    -0.205 A  
HETATM   17  C   UNL     1      -9.165  15.145  66.362  1.00  0.00    -0.334 A  
HETATM   18  F   UNL     1     -12.743  12.800  64.527  1.00  0.00    -0.469 F  
HETATM   19  F   UNL     1     -12.452  14.839  63.854  1.00  0.00    -0.496 F  
HETATM   20  C   UNL     1     -10.336  15.126  65.609  1.00  0.00    -0.379 A  
HETATM   21  C   UNL     1     -11.155  13.262  66.933  1.00  0.00    -0.310 A  
HETATM   22  C   UNL     1     -12.547  14.072  64.977  1.00  0.00    -0.390 C  
HETATM   23  F   UNL     1     -13.706  14.440  65.585  1.00  0.00    -0.186 F  
HETATM   24  C   UNL     1     -11.339  14.182  65.880  1.00  0.00    -0.323 A  
ENDBRANCH  14  15
ENDBRANCH   8  14
BRANCH   9  25
HETATM   25  O   UNL     1      -8.784  10.786  65.887  1.00  0.00    -0.170 OA 
HETATM   26  C   UNL     1      -9.450  10.798  64.631  1.00  0.00    -0.251 C  
ENDBRANCH   9  25
BRANCH  11  27
HETATM   27  N   UNL     1     -10.165   6.635  67.694  1.00  0.00    -0.159 NA 
HETATM   28  H   UNL     1     -11.063   6.157  67.767  1.00  0.00     0.000 HD 
BRANCH  27  29
HETATM   29  C   UNL     1      -8.952   5.845  67.482  1.00  0.00    -0.107 C  
HETATM   30  C   UNL     1      -7.843   6.456  68.343  1.00  0.00    -0.105 C  
BRANCH  29  31
HETATM   31  C   UNL     1      -9.174   4.378  67.898  1.00  0.00    -0.170 C  
BRANCH  31  32
HETATM   32  C   UNL     1      -8.562   3.986  69.248  1.00  0.00    -0.111 C  
BRANCH  32  33
HETATM   33  C   UNL     1      -9.554   3.837  70.406  1.00  0.00    -0.192 C  
HETATM   34  N   UNL     1     -10.404   5.020  70.561  1.00  0.00    -0.245 NA 
HETATM   35  H1  UNL     1     -11.065   4.921  71.332  1.00  0.00     0.000 HD 
HETATM   36  H2  UNL     1     -10.885   5.246  69.691  1.00  0.00     0.000 HD 
ENDBRANCH  32  33
ENDBRANCH  31  32
ENDBRANCH  29  31
ENDBRANCH  27  29
ENDBRANCH  11  27
ENDBRANCH   2   3
TORSDOF 9
ENDMDL
MODEL       61
REMARK 921   NORMALIZED FREE ENERGY PREDICTED BY IDOCK:   -6.31 KCAL/MOL
REMARK 922        TOTAL FREE ENERGY PREDICTED BY IDOCK:  -10.60 KCAL/MOL
REMARK 923 INTER-LIGAND FREE ENERGY PREDICTED BY IDOCK:   -9.79 KCAL/MOL
REMARK 924 INTRA-LIGAND FREE ENERGY PREDICTED BY IDOCK:   -0.81 KCAL/MOL
REMARK 927      BINDING AFFINITY PREDICTED BY RF-SCORE:    0.00 PKD
ROOT
HETATM    1  C   UNL     1      -9.200  10.325  65.049  1.00  0.00    -0.213 C  
HETATM    2  O   UNL     1      -8.417  11.086  65.964  1.00  0.00    -0.167 OA 
ENDROOT
BRANCH   2   3
HETATM    3  C   UNL     1      -9.042  12.247  66.366  1.00  0.00    -0.158 A  
HETATM    4  C   UNL     1     -10.414  12.263  66.313  1.00  0.00    -0.266 A  
HETATM    5  C   UNL     1     -11.085  13.394  66.790  1.00  0.00    -0.308 A  
HETATM    6  C   UNL     1     -10.347  14.422  67.461  1.00  0.00    -0.251 A  
HETATM    7  C   UNL     1     -12.545  13.523  66.440  1.00  0.00    -0.244 C  
HETATM    8  C   UNL     1     -10.846  15.468  68.312  1.00  0.00    -0.292 A  
HETATM    9  C   UNL     1     -10.049  16.593  68.591  1.00  0.00    -0.270 A  
HETATM   10  C   UNL     1      -8.947  14.386  67.246  1.00  0.00    -0.212 A  
HETATM   11  C   UNL     1      -8.150  15.511  67.541  1.00  0.00    -0.165 A  
HETATM   12  N   UNL     1      -8.314  13.312  66.732  1.00  0.00     0.004 NA 
HETATM   13  C   UNL     1      -8.721  16.614  68.172  1.00  0.00    -0.201 A  
BRANCH   8  14
HETATM   14  O   UNL     1     -12.074  15.444  68.944  1.00  0.00    -0.300 OA 
BRANCH  14  15
HETATM   15  C   UNL     1     -12.341  14.696  70.072  1.00  0.00    -0.315 A  
HETATM   16  C   UNL     1     -13.049  15.406  71.051  1.00  0.00    -0.565 A  
HETATM   17  C   UNL     1     -13.656  14.741  72.113  1.00  0.00    -0.518 A  
HETATM   18  F   UNL     1     -13.130  10.602  70.049  1.00  0.00    -0.315 F  
HETATM   19  F   UNL     1     -13.745  10.596  72.127  1.00  0.00    -0.418 F  
HETATM   20  C   UNL     1     -13.570  13.354  72.196  1.00  0.00    -0.660 A  
HETATM   21  C   UNL     1     -12.111  13.330  70.254  1.00  0.00    -0.405 A  
HETATM   22  C   UNL     1     -12.822  11.121  71.271  1.00  0.00    -0.412 C  
HETATM   23  F   UNL     1     -11.629  10.573  71.624  1.00  0.00    -0.300 F  
HETATM   24  C   UNL     1     -12.805  12.633  71.266  1.00  0.00    -0.344 A  
ENDBRANCH  14  15
ENDBRANCH   8  14
BRANCH   9  25
HETATM   25  O   UNL     1     -10.390  17.709  69.311  1.00  0.00    -0.319 OA 
HETATM   26  C   UNL     1     -10.064  18.979  68.762  1.00  0.00    -0.363 C  
ENDBRANCH   9  25
BRANCH  11  27
HETATM   27  N   UNL     1      -6.768  15.463  67.254  1.00  0.00    -0.277 NA 
HETATM   28  H   UNL     1      -6.285  14.565  67.287  1.00  0.00     0.000 HD 
BRANCH  27  29
HETATM   29  C   UNL     1      -6.011  16.668  66.912  1.00  0.00    -0.117 C  
HETATM   30  C   UNL     1      -6.958  17.616  66.171  1.00  0.00    -0.338 C  
BRANCH  29  31
HETATM   31  C   UNL     1      -5.480  17.360  68.181  1.00  0.00    -0.133 C  
BRANCH  31  32
HETATM   32  C   UNL     1      -5.762  18.865  68.266  1.00  0.00    -0.201 C  
BRANCH  32  33
HETATM   33  C   UNL     1      -6.491  19.331  69.530  1.00  0.00    -0.303 C  
HETATM   34  N   UNL     1      -5.978  20.611  70.023  1.00  0.00    -0.445 NA 
HETATM   35  H1  UNL     1      -6.463  20.923  70.865  1.00  0.00     0.000 HD 
HETATM   36  H2  UNL     1      -6.007  21.326  69.296  1.00  0.00     0.000 HD 
ENDBRANCH  32  33
ENDBRANCH  31  32
ENDBRANCH  29  31
ENDBRANCH  27  29
ENDBRANCH  11  27
ENDBRANCH   2   3
TORSDOF 9
ENDMDL
MODEL       62
REMARK 921   NORMALIZED FREE ENERGY PREDICTED BY IDOCK:   -6.30 KCAL/MOL
REMARK 922        TOTAL FREE ENERGY PREDICTED BY IDOCK:  -10.59 KCAL/MOL
REMARK 923 INTER-LIGAND FREE ENERGY PREDICTED BY IDOCK:   -9.13 KCAL/MOL
REMARK 924 INTRA-LIGAND FREE ENERGY PREDICTED BY IDOCK:   -1.45 KCAL/MOL
REMARK 927      BINDING AFFINITY PREDICTED BY RF-SCORE:    0.00 PKD
ROOT
HETATM    1  C   UNL     1     -12.651  15.617  71.751  1.00  0.00    -0.442 C  
HETATM    2  O   UNL     1     -13.432  14.686  71.006  1.00  0.00    -0.380 OA 
ENDROOT
BRANCH   2   3
HETATM    3  C   UNL     1     -12.664  13.801  70.283  1.00  0.00    -0.144 A  
HETATM    4  C   UNL     1     -12.503  12.543  70.811  1.00  0.00    -0.357 A  
HETATM    5  C   UNL     1     -11.797  11.594  70.064  1.00  0.00    -0.435 A  
HETATM    6  C   UNL     1     -11.405  11.901  68.721  1.00  0.00    -0.330 A  
HETATM    7  C   UNL     1     -11.367  10.341  70.782  1.00  0.00    -0.421 C  
HETATM    8  C   UNL     1     -10.997  10.995  67.682  1.00  0.00    -0.275 A  
HETATM    9  C   UNL     1     -10.306  11.477  66.555  1.00  0.00    -0.232 A  
HETATM   10  C   UNL     1     -11.430  13.280  68.394  1.00  0.00    -0.314 A  
HETATM   11  C   UNL     1     -10.750  13.756  67.255  1.00  0.00    -0.283 A  
HETATM   12  N   UNL     1     -12.066  14.198  69.150  1.00  0.00    -0.344 NA 
HETATM   13  C   UNL     1     -10.162  12.850  66.373  1.00  0.00    -0.273 A  
BRANCH   8  14
HETATM   14  O   UNL     1     -11.273   9.642  67.669  1.00  0.00    -0.132 OA 
BRANCH  14  15
HETATM   15  C   UNL     1     -10.305   8.663  67.575  1.00  0.00    -0.269 A  
HETATM   16  C   UNL     1      -9.368   8.713  68.616  1.00  0.00    -0.142 A  
HETATM   17  C   UNL     1      -8.506   7.643  68.849  1.00  0.00    -0.129 A  
HETATM   18  F   UNL     1     -10.969   4.829  66.078  1.00  0.00    -0.339 F  
HETATM   19  F   UNL     1      -9.032   4.117  66.735  1.00  0.00    -0.111 F  
HETATM   20  C   UNL     1      -8.587   6.507  68.049  1.00  0.00    -0.118 A  
HETATM   21  C   UNL     1     -10.264   7.599  66.671  1.00  0.00    -0.272 A  
HETATM   22  C   UNL     1      -9.659   5.190  66.173  1.00  0.00    -0.164 C  
HETATM   23  F   UNL     1      -9.195   5.270  64.898  1.00  0.00    -0.146 F  
HETATM   24  C   UNL     1      -9.470   6.468  66.958  1.00  0.00    -0.161 A  
ENDBRANCH  14  15
ENDBRANCH   8  14
BRANCH   9  25
HETATM   25  O   UNL     1      -9.779  10.752  65.517  1.00  0.00    -0.211 OA 
HETATM   26  C   UNL     1     -10.382  10.891  64.237  1.00  0.00    -0.368 C  
ENDBRANCH   9  25
BRANCH  11  27
HETATM   27  N   UNL     1     -10.742  15.144  66.995  1.00  0.00    -0.302 NA 
HETATM   28  H   UNL     1     -11.205  15.775  67.650  1.00  0.00     0.000 HD 
BRANCH  27  29
HETATM   29  C   UNL     1     -10.087  15.701  65.810  1.00  0.00    -0.366 C  
HETATM   30  C   UNL     1     -11.176  15.999  64.776  1.00  0.00    -0.348 C  
BRANCH  29  31
HETATM   31  C   UNL     1      -9.340  17.002  66.159  1.00  0.00    -0.245 C  
BRANCH  31  32
HETATM   32  C   UNL     1     -10.149  18.018  66.973  1.00  0.00    -0.348 C  
BRANCH  32  33
HETATM   33  C   UNL     1      -9.845  18.056  68.474  1.00  0.00    -0.378 C  
HETATM   34  N   UNL     1     -10.707  17.150  69.236  1.00  0.00    -0.358 NA 
HETATM   35  H1  UNL     1     -10.505  17.175  70.236  1.00  0.00     0.000 HD 
HETATM   36  H2  UNL     1     -10.654  16.198  68.873  1.00  0.00     0.000 HD 
ENDBRANCH  32  33
ENDBRANCH  31  32
ENDBRANCH  29  31
ENDBRANCH  27  29
ENDBRANCH  11  27
ENDBRANCH   2   3
TORSDOF 9
ENDMDL
MODEL       63
REMARK 921   NORMALIZED FREE ENERGY PREDICTED BY IDOCK:   -6.30 KCAL/MOL
REMARK 922        TOTAL FREE ENERGY PREDICTED BY IDOCK:  -10.58 KCAL/MOL
REMARK 923 INTER-LIGAND FREE ENERGY PREDICTED BY IDOCK:   -9.70 KCAL/MOL
REMARK 924 INTRA-LIGAND FREE ENERGY PREDICTED BY IDOCK:   -0.88 KCAL/MOL
REMARK 927      BINDING AFFINITY PREDICTED BY RF-SCORE:    0.00 PKD
ROOT
HETATM    1  C   UNL     1     -12.766  11.903  63.258  1.00  0.00    -0.271 C  
HETATM    2  O   UNL     1     -13.171  12.254  64.578  1.00  0.00    -0.799 OA 
ENDROOT
BRANCH   2   3
HETATM    3  C   UNL     1     -12.295  13.122  65.193  1.00  0.00    -0.473 A  
HETATM    4  C   UNL     1     -12.281  14.417  64.737  1.00  0.00    -0.458 A  
HETATM    5  C   UNL     1     -11.463  15.344  65.393  1.00  0.00    -0.115 A  
HETATM    6  C   UNL     1     -10.796  14.965  66.602  1.00  0.00    -0.319 A  
HETATM    7  C   UNL     1     -11.225  16.658  64.697  1.00  0.00    -0.023 C  
HETATM    8  C   UNL     1     -10.208  15.816  67.601  1.00  0.00    -0.266 A  
HETATM    9  C   UNL     1      -9.288  15.291  68.525  1.00  0.00    -0.200 A  
HETATM   10  C   UNL     1     -10.715  13.568  66.825  1.00  0.00    -0.278 A  
HETATM   11  C   UNL     1      -9.803  13.046  67.765  1.00  0.00    -0.224 A  
HETATM   12  N   UNL     1     -11.467  12.676  66.149  1.00  0.00    -0.343 NA 
HETATM   13  C   UNL     1      -9.072  13.916  68.573  1.00  0.00    -0.143 A  
BRANCH   8  14
HETATM   14  O   UNL     1     -10.513  17.153  67.768  1.00  0.00    -0.336 OA 
BRANCH  14  15
HETATM   15  C   UNL     1      -9.793  18.181  67.194  1.00  0.00    -0.317 A  
HETATM   16  C   UNL     1     -10.241  19.451  67.581  1.00  0.00    -0.526 A  
HETATM   17  C   UNL     1      -9.464  20.583  67.343  1.00  0.00    -0.551 A  
HETATM   18  F   UNL     1      -5.715  18.011  66.342  1.00  0.00    -0.154 F  
HETATM   19  F   UNL     1      -5.609  20.127  65.888  1.00  0.00    -0.175 F  
HETATM   20  C   UNL     1      -8.223  20.448  66.726  1.00  0.00    -0.276 A  
HETATM   21  C   UNL     1      -8.632  18.073  66.424  1.00  0.00    -0.253 A  
HETATM   22  C   UNL     1      -6.390  19.021  65.724  1.00  0.00    -0.235 C  
HETATM   23  F   UNL     1      -6.362  18.736  64.395  1.00  0.00    -0.260 F  
HETATM   24  C   UNL     1      -7.790  19.193  66.267  1.00  0.00    -0.307 A  
ENDBRANCH  14  15
ENDBRANCH   8  14
BRANCH   9  25
HETATM   25  O   UNL     1      -8.579  15.966  69.486  1.00  0.00    -0.237 OA 
HETATM   26  C   UNL     1      -7.186  16.157  69.273  1.00  0.00    -0.225 C  
ENDBRANCH   9  25
BRANCH  11  27
HETATM   27  N   UNL     1      -9.704  11.646  67.915  1.00  0.00    -0.174 NA 
HETATM   28  H   UNL     1     -10.067  11.210  68.763  1.00  0.00     0.000 HD 
BRANCH  27  29
HETATM   29  C   UNL     1      -9.092  10.803  66.887  1.00  0.00    -0.149 C  
HETATM   30  C   UNL     1      -7.641  11.261  66.714  1.00  0.00    -0.151 C  
BRANCH  29  31
HETATM   31  C   UNL     1      -9.116   9.321  67.307  1.00  0.00    -0.143 C  
BRANCH  31  32
HETATM   32  C   UNL     1     -10.061   8.431  66.491  1.00  0.00    -0.317 C  
BRANCH  32  33
HETATM   33  C   UNL     1     -10.880   7.420  67.299  1.00  0.00    -0.256 C  
HETATM   34  N   UNL     1     -11.104   6.174  66.563  1.00  0.00    -0.749 NA 
HETATM   35  H1  UNL     1     -11.649   5.500  67.100  1.00  0.00     0.000 HD 
HETATM   36  H2  UNL     1     -10.223   5.768  66.248  1.00  0.00     0.000 HD 
ENDBRANCH  32  33
ENDBRANCH  31  32
ENDBRANCH  29  31
ENDBRANCH  27  29
ENDBRANCH  11  27
ENDBRANCH   2   3
TORSDOF 9
ENDMDL
MODEL       64
REMARK 921   NORMALIZED FREE ENERGY PREDICTED BY IDOCK:   -6.29 KCAL/MOL
REMARK 922        TOTAL FREE ENERGY PREDICTED BY IDOCK:  -10.57 KCAL/MOL
REMARK 923 INTER-LIGAND FREE ENERGY PREDICTED BY IDOCK:   -9.12 KCAL/MOL
REMARK 924 INTRA-LIGAND FREE ENERGY PREDICTED BY IDOCK:   -1.46 KCAL/MOL
REMARK 927      BINDING AFFINITY PREDICTED BY RF-SCORE:    0.00 PKD
ROOT
HETATM    1  C   UNL     1      -7.490   9.449  64.960  1.00  0.00    -0.106 C  
HETATM    2  O   UNL     1      -7.312   9.127  66.336  1.00  0.00    -0.090 OA 
ENDROOT
BRANCH   2   3
HETATM    3  C   UNL     1      -8.153   9.838  67.165  1.00  0.00    -0.116 A  
HETATM    4  C   UNL     1      -8.164  11.203  67.015  1.00  0.00    -0.146 A  
HETATM    5  C   UNL     1      -9.065  11.949  67.784  1.00  0.00    -0.180 A  
HETATM    6  C   UNL     1     -10.049  11.271  68.573  1.00  0.00    -0.210 A  
HETATM    7  C   UNL     1      -8.848  13.439  67.837  1.00  0.00    -0.194 C  
HETATM    8  C   UNL     1     -11.255  11.805  69.145  1.00  0.00    -0.264 A  
HETATM    9  C   UNL     1     -11.912  11.114  70.180  1.00  0.00    -0.365 A  
HETATM   10  C   UNL     1      -9.782   9.899  68.809  1.00  0.00    -0.160 A  
HETATM   11  C   UNL     1     -10.455   9.207  69.836  1.00  0.00    -0.223 A  
HETATM   12  N   UNL     1      -8.871   9.201  68.102  1.00  0.00    -0.129 NA 
HETATM   13  C   UNL     1     -11.483   9.838  70.535  1.00  0.00    -0.370 A  
BRANCH   8  14
HETATM   14  O   UNL     1     -11.877  12.963  68.722  1.00  0.00    -0.306 OA 
BRANCH  14  15
HETATM   15  C   UNL     1     -11.985  13.335  67.397  1.00  0.00    -0.335 A  
HETATM   16  C   UNL     1     -11.751  14.700  67.187  1.00  0.00    -0.392 A  
HETATM   17  C   UNL     1     -11.527  15.194  65.904  1.00  0.00    -0.159 A  
HETATM   18  F   UNL     1     -10.906  10.916  64.177  1.00  0.00    -0.438 F  
HETATM   19  F   UNL     1     -11.105  12.535  62.751  1.00  0.00    -0.261 F  
HETATM   20  C   UNL     1     -11.522  14.319  64.821  1.00  0.00    -0.394 A  
HETATM   21  C   UNL     1     -12.151  12.493  66.294  1.00  0.00    -0.315 A  
HETATM   22  C   UNL     1     -11.687  11.986  63.856  1.00  0.00    -0.446 C  
HETATM   23  F   UNL     1     -12.875  11.474  63.440  1.00  0.00    -0.602 F  
HETATM   24  C   UNL     1     -11.826  12.960  65.003  1.00  0.00    -0.411 A  
ENDBRANCH  14  15
ENDBRANCH   8  14
BRANCH   9  25
HETATM   25  O   UNL     1     -13.019  11.511  70.887  1.00  0.00    -0.238 OA 
HETATM   26  C   UNL     1     -12.881  12.614  71.773  1.00  0.00    -0.238 C  
ENDBRANCH   9  25
BRANCH  11  27
HETATM   27  N   UNL     1     -10.117   7.859  70.086  1.00  0.00    -0.192 NA 
HETATM   28  H   UNL     1      -9.165   7.630  70.370  1.00  0.00     0.000 HD 
BRANCH  27  29
HETATM   29  C   UNL     1     -11.098   6.782  69.945  1.00  0.00    -0.323 C  
HETATM   30  C   UNL     1     -10.766   6.015  68.663  1.00  0.00    -0.363 C  
BRANCH  29  31
HETATM   31  C   UNL     1     -11.033   5.822  71.148  1.00  0.00    -0.295 C  
BRANCH  31  32
HETATM   32  C   UNL     1     -11.374   6.454  72.503  1.00  0.00    -0.299 C  
BRANCH  32  33
HETATM   33  C   UNL     1     -10.192   6.651  73.458  1.00  0.00    -0.277 C  
HETATM   34  N   UNL     1      -9.493   7.916  73.220  1.00  0.00    -0.279 NA 
HETATM   35  H1  UNL     1      -8.707   8.048  73.856  1.00  0.00     0.000 HD 
HETATM   36  H2  UNL     1     -10.137   8.706  73.261  1.00  0.00     0.000 HD 
ENDBRANCH  32  33
ENDBRANCH  31  32
ENDBRANCH  29  31
ENDBRANCH  27  29
ENDBRANCH  11  27
ENDBRANCH   2   3
TORSDOF 9
ENDMDL
MODEL       65
REMARK 921   NORMALIZED FREE ENERGY PREDICTED BY IDOCK:   -6.27 KCAL/MOL
REMARK 922        TOTAL FREE ENERGY PREDICTED BY IDOCK:  -10.54 KCAL/MOL
REMARK 923 INTER-LIGAND FREE ENERGY PREDICTED BY IDOCK:   -9.02 KCAL/MOL
REMARK 924 INTRA-LIGAND FREE ENERGY PREDICTED BY IDOCK:   -1.52 KCAL/MOL
REMARK 927      BINDING AFFINITY PREDICTED BY RF-SCORE:    0.00 PKD
ROOT
HETATM    1  C   UNL     1      -7.791   6.566  65.529  1.00  0.00    -0.104 C  
HETATM    2  O   UNL     1      -8.500   7.726  65.104  1.00  0.00    -0.134 OA 
ENDROOT
BRANCH   2   3
HETATM    3  C   UNL     1      -8.853   8.551  66.149  1.00  0.00    -0.167 A  
HETATM    4  C   UNL     1      -8.311   9.813  66.154  1.00  0.00    -0.122 A  
HETATM    5  C   UNL     1      -8.710  10.704  67.156  1.00  0.00    -0.130 A  
HETATM    6  C   UNL     1      -9.777  10.341  68.040  1.00  0.00    -0.167 A  
HETATM    7  C   UNL     1      -7.885  11.953  67.329  1.00  0.00    -0.168 C  
HETATM    8  C   UNL     1     -10.564  11.196  68.886  1.00  0.00    -0.207 A  
HETATM    9  C   UNL     1     -11.311  10.650  69.945  1.00  0.00    -0.313 A  
HETATM   10  C   UNL     1     -10.080   8.957  68.071  1.00  0.00    -0.195 A  
HETATM   11  C   UNL     1     -10.842   8.416  69.126  1.00  0.00    -0.023 A  
HETATM   12  N   UNL     1      -9.644   8.093  67.131  1.00  0.00    -0.162 NA 
HETATM   13  C   UNL     1     -11.412   9.267  70.071  1.00  0.00    -0.077 A  
BRANCH   8  14
HETATM   14  O   UNL     1     -10.694  12.561  68.717  1.00  0.00    -0.228 OA 
BRANCH  14  15
HETATM   15  C   UNL     1     -11.205  13.147  67.577  1.00  0.00    -0.282 A  
HETATM   16  C   UNL     1     -10.913  14.514  67.481  1.00  0.00    -0.297 A  
HETATM   17  C   UNL     1     -11.087  15.196  66.279  1.00  0.00    -0.309 A  
HETATM   18  F   UNL     1     -11.547  11.226  63.892  1.00  0.00    -0.425 F  
HETATM   19  F   UNL     1     -12.046  13.062  62.856  1.00  0.00    -0.584 F  
HETATM   20  C   UNL     1     -11.543  14.509  65.157  1.00  0.00    -0.371 A  
HETATM   21  C   UNL     1     -11.824  12.505  66.501  1.00  0.00    -0.434 A  
HETATM   22  C   UNL     1     -12.272  12.374  64.011  1.00  0.00    -0.490 C  
HETATM   23  F   UNL     1     -13.579  12.001  63.976  1.00  0.00    -0.350 F  
HETATM   24  C   UNL     1     -11.909  13.156  65.253  1.00  0.00    -0.400 A  
ENDBRANCH  14  15
ENDBRANCH   8  14
BRANCH   9  25
HETATM   25  O   UNL     1     -12.048  11.318  70.889  1.00  0.00    -0.348 OA 
HETATM   26  C   UNL     1     -12.954  10.562  71.682  1.00  0.00    -0.476 C  
ENDBRANCH   9  25
BRANCH  11  27
HETATM   27  N   UNL     1     -11.070   7.023  69.158  1.00  0.00    -0.455 NA 
HETATM   28  H   UNL     1     -11.674   6.602  68.452  1.00  0.00     0.000 HD 
BRANCH  27  29
HETATM   29  C   UNL     1     -10.463   6.168  70.179  1.00  0.00    -0.231 C  
HETATM   30  C   UNL     1      -9.915   4.923  69.476  1.00  0.00    -0.295 C  
BRANCH  29  31
HETATM   31  C   UNL     1      -9.313   6.901  70.895  1.00  0.00    -0.157 C  
BRANCH  31  32
HETATM   32  C   UNL     1      -9.055   6.452  72.338  1.00  0.00    -0.137 C  
BRANCH  32  33
HETATM   33  C   UNL     1     -10.305   6.188  73.183  1.00  0.00    -0.219 C  
HETATM   34  N   UNL     1     -10.649   7.330  74.033  1.00  0.00    -0.564 NA 
HETATM   35  H1  UNL     1     -11.481   7.154  74.596  1.00  0.00     0.000 HD 
HETATM   36  H2  UNL     1     -10.749   8.182  73.483  1.00  0.00     0.000 HD 
ENDBRANCH  32  33
ENDBRANCH  31  32
ENDBRANCH  29  31
ENDBRANCH  27  29
ENDBRANCH  11  27
ENDBRANCH   2   3
TORSDOF 9
ENDMDL
MODEL       66
REMARK 921   NORMALIZED FREE ENERGY PREDICTED BY IDOCK:   -6.26 KCAL/MOL
REMARK 922        TOTAL FREE ENERGY PREDICTED BY IDOCK:  -10.52 KCAL/MOL
REMARK 923 INTER-LIGAND FREE ENERGY PREDICTED BY IDOCK:   -8.82 KCAL/MOL
REMARK 924 INTRA-LIGAND FREE ENERGY PREDICTED BY IDOCK:   -1.70 KCAL/MOL
REMARK 927      BINDING AFFINITY PREDICTED BY RF-SCORE:    0.00 PKD
ROOT
HETATM    1  C   UNL     1      -5.884  16.590  69.275  1.00  0.00    -0.154 C  
HETATM    2  O   UNL     1      -6.997  15.887  69.820  1.00  0.00    -0.175 OA 
ENDROOT
BRANCH   2   3
HETATM    3  C   UNL     1      -7.177  14.645  69.250  1.00  0.00    -0.156 A  
HETATM    4  C   UNL     1      -6.471  13.603  69.799  1.00  0.00    -0.060 A  
HETATM    5  C   UNL     1      -6.690  12.315  69.298  1.00  0.00    -0.075 A  
HETATM    6  C   UNL     1      -7.745  12.094  68.355  1.00  0.00    -0.134 A  
HETATM    7  C   UNL     1      -5.696  11.252  69.687  1.00  0.00    -0.068 C  
HETATM    8  C   UNL     1      -8.362  10.851  67.983  1.00  0.00    -0.122 A  
HETATM    9  C   UNL     1      -9.116  10.762  66.798  1.00  0.00    -0.154 A  
HETATM   10  C   UNL     1      -8.230  13.264  67.719  1.00  0.00    -0.168 A  
HETATM   11  C   UNL     1      -8.998  13.171  66.541  1.00  0.00    -0.059 A  
HETATM   12  N   UNL     1      -7.967  14.506  68.175  1.00  0.00    -0.123 NA 
HETATM   13  C   UNL     1      -9.396  11.919  66.075  1.00  0.00    -0.215 A  
BRANCH   8  14
HETATM   14  O   UNL     1      -8.316   9.696  68.739  1.00  0.00    -0.106 OA 
BRANCH  14  15
HETATM   15  C   UNL     1      -9.283   9.343  69.658  1.00  0.00    -0.185 A  
HETATM   16  C   UNL     1      -8.807   8.481  70.656  1.00  0.00    -0.175 A  
HETATM   17  C   UNL     1      -9.546   8.259  71.816  1.00  0.00    -0.274 A  
HETATM   18  F   UNL     1     -12.364  11.853  70.918  1.00  0.00    -0.427 F  
HETATM   19  F   UNL     1     -12.957  10.510  72.511  1.00  0.00    -0.415 F  
HETATM   20  C   UNL     1     -10.763   8.910  71.991  1.00  0.00    -0.389 A  
HETATM   21  C   UNL     1     -10.579   9.854  69.761  1.00  0.00    -0.296 A  
HETATM   22  C   UNL     1     -12.541  10.534  71.213  1.00  0.00    -0.426 C  
HETATM   23  F   UNL     1     -13.601  10.120  70.471  1.00  0.00    -0.386 F  
HETATM   24  C   UNL     1     -11.290   9.720  70.972  1.00  0.00    -0.460 A  
ENDBRANCH  14  15
ENDBRANCH   8  14
BRANCH   9  25
HETATM   25  O   UNL     1      -9.704   9.648  66.255  1.00  0.00    -0.202 OA 
HETATM   26  C   UNL     1      -8.924   8.847  65.377  1.00  0.00    -0.182 C  
ENDBRANCH   9  25
BRANCH  11  27
HETATM   27  N   UNL     1      -9.410  14.359  65.898  1.00  0.00    -0.530 NA 
HETATM   28  H   UNL     1      -8.753  14.847  65.289  1.00  0.00     0.000 HD 
BRANCH  27  29
HETATM   29  C   UNL     1     -10.754  14.907  66.083  1.00  0.00    -0.317 C  
HETATM   30  C   UNL     1     -10.604  16.369  66.513  1.00  0.00    -0.235 C  
BRANCH  29  31
HETATM   31  C   UNL     1     -11.559  14.838  64.772  1.00  0.00    -0.418 C  
BRANCH  31  32
HETATM   32  C   UNL     1     -12.320  13.527  64.546  1.00  0.00    -0.406 C  
BRANCH  32  33
HETATM   33  C   UNL     1     -12.000  12.791  63.241  1.00  0.00    -0.443 C  
HETATM   34  N   UNL     1     -12.863  11.626  63.036  1.00  0.00    -0.889 NA 
HETATM   35  H1  UNL     1     -12.650  11.136  62.167  1.00  0.00     0.000 HD 
HETATM   36  H2  UNL     1     -13.848  11.884  63.081  1.00  0.00     0.000 HD 
ENDBRANCH  32  33
ENDBRANCH  31  32
ENDBRANCH  29  31
ENDBRANCH  27  29
ENDBRANCH  11  27
ENDBRANCH   2   3
TORSDOF 9
ENDMDL
MODEL       67
REMARK 921   NORMALIZED FREE ENERGY PREDICTED BY IDOCK:   -6.25 KCAL/MOL
REMARK 922        TOTAL FREE ENERGY PREDICTED BY IDOCK:  -10.51 KCAL/MOL
REMARK 923 INTER-LIGAND FREE ENERGY PREDICTED BY IDOCK:  -10.08 KCAL/MOL
REMARK 924 INTRA-LIGAND FREE ENERGY PREDICTED BY IDOCK:   -0.43 KCAL/MOL
REMARK 927      BINDING AFFINITY PREDICTED BY RF-SCORE:    0.00 PKD
ROOT
HETATM    1  C   UNL     1      -8.717   9.491  63.063  1.00  0.00    -0.229 C  
HETATM    2  O   UNL     1      -9.820  10.381  63.211  1.00  0.00    -0.302 OA 
ENDROOT
BRANCH   2   3
HETATM    3  C   UNL     1     -10.010  10.785  64.515  1.00  0.00    -0.333 A  
HETATM    4  C   UNL     1     -10.217  12.127  64.724  1.00  0.00    -0.310 A  
HETATM    5  C   UNL     1     -10.494  12.561  66.025  1.00  0.00    -0.282 A  
HETATM    6  C   UNL     1     -10.714  11.596  67.060  1.00  0.00    -0.292 A  
HETATM    7  C   UNL     1     -10.407  14.043  66.285  1.00  0.00    -0.294 C  
HETATM    8  C   UNL     1     -11.335  11.789  68.342  1.00  0.00    -0.270 A  
HETATM    9  C   UNL     1     -11.146  10.845  69.368  1.00  0.00    -0.260 A  
HETATM   10  C   UNL     1     -10.253  10.289  66.763  1.00  0.00    -0.228 A  
HETATM   11  C   UNL     1     -10.082   9.341  67.792  1.00  0.00    -0.204 A  
HETATM   12  N   UNL     1      -9.933   9.894  65.514  1.00  0.00    -0.312 NA 
HETATM   13  C   UNL     1     -10.493   9.648  69.088  1.00  0.00    -0.230 A  
BRANCH   8  14
HETATM   14  O   UNL     1     -12.171  12.842  68.657  1.00  0.00    -0.189 OA 
BRANCH  14  15
HETATM   15  C   UNL     1     -11.880  13.793  69.613  1.00  0.00    -0.333 A  
HETATM   16  C   UNL     1     -11.145  14.875  69.109  1.00  0.00    -0.279 A  
HETATM   17  C   UNL     1     -11.017  16.052  69.844  1.00  0.00    -0.353 A  
HETATM   18  F   UNL     1     -14.391  14.785  72.790  1.00  0.00    -0.439 F  
HETATM   19  F   UNL     1     -13.199  16.509  73.339  1.00  0.00    -0.506 F  
HETATM   20  C   UNL     1     -11.637  16.159  71.086  1.00  0.00    -0.453 A  
HETATM   21  C   UNL     1     -12.351  13.842  70.928  1.00  0.00    -0.456 A  
HETATM   22  C   UNL     1     -13.104  15.215  72.919  1.00  0.00    -0.479 C  
HETATM   23  F   UNL     1     -12.575  14.520  73.961  1.00  0.00    -0.558 F  
HETATM   24  C   UNL     1     -12.316  15.060  71.638  1.00  0.00    -0.408 A  
ENDBRANCH  14  15
ENDBRANCH   8  14
BRANCH   9  25
HETATM   25  O   UNL     1     -11.595  10.907  70.663  1.00  0.00    -0.328 OA 
HETATM   26  C   UNL     1     -12.738  10.136  71.008  1.00  0.00    -0.386 C  
ENDBRANCH   9  25
BRANCH  11  27
HETATM   27  N   UNL     1      -9.560   8.069  67.468  1.00  0.00    -0.148 NA 
HETATM   28  H   UNL     1      -8.729   8.008  66.880  1.00  0.00     0.000 HD 
BRANCH  27  29
HETATM   29  C   UNL     1     -10.182   6.837  67.954  1.00  0.00    -0.171 C  
HETATM   30  C   UNL     1     -11.025   6.261  66.813  1.00  0.00    -0.328 C  
BRANCH  29  31
HETATM   31  C   UNL     1      -9.111   5.810  68.370  1.00  0.00    -0.118 C  
BRANCH  31  32
HETATM   32  C   UNL     1      -9.648   4.417  68.716  1.00  0.00    -0.224 C  
BRANCH  32  33
HETATM   33  C   UNL     1      -9.801   4.118  70.211  1.00  0.00    -0.169 C  
HETATM   34  N   UNL     1     -10.062   5.328  70.993  1.00  0.00    -0.210 NA 
HETATM   35  H1  UNL     1     -10.165   5.130  71.988  1.00  0.00     0.000 HD 
HETATM   36  H2  UNL     1     -10.872   5.833  70.632  1.00  0.00     0.000 HD 
ENDBRANCH  32  33
ENDBRANCH  31  32
ENDBRANCH  29  31
ENDBRANCH  27  29
ENDBRANCH  11  27
ENDBRANCH   2   3
TORSDOF 9
ENDMDL
MODEL       68
REMARK 921   NORMALIZED FREE ENERGY PREDICTED BY IDOCK:   -6.25 KCAL/MOL
REMARK 922        TOTAL FREE ENERGY PREDICTED BY IDOCK:  -10.50 KCAL/MOL
REMARK 923 INTER-LIGAND FREE ENERGY PREDICTED BY IDOCK:   -9.03 KCAL/MOL
REMARK 924 INTRA-LIGAND FREE ENERGY PREDICTED BY IDOCK:   -1.47 KCAL/MOL
REMARK 927      BINDING AFFINITY PREDICTED BY RF-SCORE:    0.00 PKD
ROOT
HETATM    1  C   UNL     1     -12.512  12.974  63.219  1.00  0.00    -0.190 C  
HETATM    2  O   UNL     1     -12.644  14.226  63.886  1.00  0.00    -0.787 OA 
ENDROOT
BRANCH   2   3
HETATM    3  C   UNL     1     -11.918  14.290  65.055  1.00  0.00    -0.410 A  
HETATM    4  C   UNL     1     -12.111  13.275  65.960  1.00  0.00    -0.491 A  
HETATM    5  C   UNL     1     -11.331  13.264  67.122  1.00  0.00    -0.351 A  
HETATM    6  C   UNL     1     -10.257  14.201  67.260  1.00  0.00    -0.256 A  
HETATM    7  C   UNL     1     -11.767  12.340  68.230  1.00  0.00    -0.392 C  
HETATM    8  C   UNL     1      -9.144  14.154  68.169  1.00  0.00    -0.193 A  
HETATM    9  C   UNL     1      -8.391  15.315  68.426  1.00  0.00    -0.149 A  
HETATM   10  C   UNL     1     -10.317  15.310  66.380  1.00  0.00    -0.289 A  
HETATM   11  C   UNL     1      -9.549  16.465  66.632  1.00  0.00    -0.256 A  
HETATM   12  N   UNL     1     -11.114  15.336  65.293  1.00  0.00    -0.371 NA 
HETATM   13  C   UNL     1      -8.626  16.465  67.677  1.00  0.00    -0.181 A  
BRANCH   8  14
HETATM   14  O   UNL     1      -8.701  13.012  68.807  1.00  0.00    -0.005 OA 
BRANCH  14  15
HETATM   15  C   UNL     1      -8.418  11.830  68.153  1.00  0.00    -0.158 A  
HETATM   16  C   UNL     1      -8.538  10.702  68.976  1.00  0.00    -0.150 A  
HETATM   17  C   UNL     1      -8.581   9.423  68.427  1.00  0.00    -0.124 A  
HETATM   18  F   UNL     1      -9.271  11.097  64.139  1.00  0.00    -0.206 F  
HETATM   19  F   UNL     1      -8.806   8.988  64.310  1.00  0.00    -0.213 F  
HETATM   20  C   UNL     1      -8.517   9.264  67.045  1.00  0.00    -0.124 A  
HETATM   21  C   UNL     1      -8.180  11.656  66.787  1.00  0.00    -0.161 A  
HETATM   22  C   UNL     1      -8.392  10.225  64.708  1.00  0.00    -0.172 C  
HETATM   23  F   UNL     1      -7.198  10.437  64.093  1.00  0.00    -0.138 F  
HETATM   24  C   UNL     1      -8.324  10.377  66.210  1.00  0.00    -0.146 A  
ENDBRANCH  14  15
ENDBRANCH   8  14
BRANCH   9  25
HETATM   25  O   UNL     1      -7.357  15.469  69.313  1.00  0.00    -0.170 OA 
HETATM   26  C   UNL     1      -6.688  16.723  69.342  1.00  0.00    -0.226 C  
ENDBRANCH   9  25
BRANCH  11  27
HETATM   27  N   UNL     1      -9.682  17.575  65.770  1.00  0.00    -0.540 NA 
HETATM   28  H   UNL     1      -9.241  17.546  64.851  1.00  0.00     0.000 HD 
BRANCH  27  29
HETATM   29  C   UNL     1     -10.437  18.767  66.161  1.00  0.00    -0.446 C  
HETATM   30  C   UNL     1     -10.865  18.587  67.620  1.00  0.00    -0.319 C  
BRANCH  29  31
HETATM   31  C   UNL     1      -9.567  20.032  66.033  1.00  0.00    -0.420 C  
BRANCH  31  32
HETATM   32  C   UNL     1      -8.537  20.227  67.151  1.00  0.00    -0.417 C  
BRANCH  32  33
HETATM   33  C   UNL     1      -7.069  20.189  66.713  1.00  0.00    -0.244 C  
HETATM   34  N   UNL     1      -6.898  19.551  65.406  1.00  0.00    -0.341 NA 
HETATM   35  H1  UNL     1      -5.922  19.526  65.114  1.00  0.00     0.000 HD 
HETATM   36  H2  UNL     1      -7.483  19.997  64.699  1.00  0.00     0.000 HD 
ENDBRANCH  32  33
ENDBRANCH  31  32
ENDBRANCH  29  31
ENDBRANCH  27  29
ENDBRANCH  11  27
ENDBRANCH   2   3
TORSDOF 9
ENDMDL
MODEL       69
REMARK 921   NORMALIZED FREE ENERGY PREDICTED BY IDOCK:   -6.20 KCAL/MOL
REMARK 922        TOTAL FREE ENERGY PREDICTED BY IDOCK:  -10.44 KCAL/MOL
REMARK 923 INTER-LIGAND FREE ENERGY PREDICTED BY IDOCK:   -8.58 KCAL/MOL
REMARK 924 INTRA-LIGAND FREE ENERGY PREDICTED BY IDOCK:   -1.85 KCAL/MOL
REMARK 927      BINDING AFFINITY PREDICTED BY RF-SCORE:    0.00 PKD
ROOT
HETATM    1  C   UNL     1     -14.403   7.697  71.577  1.00  0.00    -0.452 C  
HETATM    2  O   UNL     1     -13.991   9.039  71.816  1.00  0.00    -0.392 OA 
ENDROOT
BRANCH   2   3
HETATM    3  C   UNL     1     -12.673   9.262  71.484  1.00  0.00    -0.350 A  
HETATM    4  C   UNL     1     -11.727   8.573  72.203  1.00  0.00    -0.448 A  
HETATM    5  C   UNL     1     -10.383   8.713  71.838  1.00  0.00    -0.405 A  
HETATM    6  C   UNL     1     -10.046   9.428  70.644  1.00  0.00    -0.356 A  
HETATM    7  C   UNL     1      -9.353   8.210  72.817  1.00  0.00    -0.344 C  
HETATM    8  C   UNL     1      -8.811   9.404  69.909  1.00  0.00    -0.199 A  
HETATM    9  C   UNL     1      -8.518  10.423  68.985  1.00  0.00    -0.155 A  
HETATM   10  C   UNL     1     -11.075  10.261  70.139  1.00  0.00    -0.319 A  
HETATM   11  C   UNL     1     -10.780  11.271  69.200  1.00  0.00    -0.207 A  
HETATM   12  N   UNL     1     -12.359  10.158  70.537  1.00  0.00    -0.269 NA 
HETATM   13  C   UNL     1      -9.495  11.363  68.667  1.00  0.00    -0.168 A  
BRANCH   8  14
HETATM   14  O   UNL     1      -7.864   8.402  70.001  1.00  0.00    -0.097 OA 
BRANCH  14  15
HETATM   15  C   UNL     1      -7.991   7.170  69.393  1.00  0.00    -0.125 A  
HETATM   16  C   UNL     1      -7.702   6.100  70.250  1.00  0.00    -0.097 A  
HETATM   17  C   UNL     1      -8.057   4.797  69.907  1.00  0.00    -0.069 A  
HETATM   18  F   UNL     1     -10.810   6.271  66.456  1.00  0.00    -0.323 F  
HETATM   19  F   UNL     1     -10.382   4.149  66.537  1.00  0.00    -0.232 F  
HETATM   20  C   UNL     1      -8.718   4.558  68.706  1.00  0.00    -0.116 A  
HETATM   21  C   UNL     1      -8.496   6.904  68.117  1.00  0.00    -0.124 A  
HETATM   22  C   UNL     1      -9.788   5.377  66.564  1.00  0.00    -0.176 C  
HETATM   23  F   UNL     1      -9.076   5.475  65.410  1.00  0.00    -0.159 F  
HETATM   24  C   UNL     1      -8.952   5.607  67.802  1.00  0.00    -0.107 A  
ENDBRANCH  14  15
ENDBRANCH   8  14
BRANCH   9  25
HETATM   25  O   UNL     1      -7.367  10.598  68.260  1.00  0.00    -0.084 OA 
HETATM   26  C   UNL     1      -7.154  11.863  67.647  1.00  0.00    -0.112 C  
ENDBRANCH   9  25
BRANCH  11  27
HETATM   27  N   UNL     1     -11.818  12.124  68.766  1.00  0.00    -0.314 NA 
HETATM   28  H   UNL     1     -12.769  11.759  68.707  1.00  0.00     0.000 HD 
BRANCH  27  29
HETATM   29  C   UNL     1     -11.566  13.518  68.399  1.00  0.00    -0.343 C  
HETATM   30  C   UNL     1     -12.183  13.754  67.018  1.00  0.00    -0.381 C  
BRANCH  29  31
HETATM   31  C   UNL     1     -12.207  14.478  69.419  1.00  0.00    -0.285 C  
BRANCH  31  32
HETATM   32  C   UNL     1     -12.575  13.844  70.765  1.00  0.00    -0.424 C  
BRANCH  32  33
HETATM   33  C   UNL     1     -13.853  14.377  71.422  1.00  0.00    -0.337 C  
HETATM   34  N   UNL     1     -14.078  13.795  72.747  1.00  0.00    -0.612 NA 
HETATM   35  H1  UNL     1     -14.928  14.150  73.184  1.00  0.00     0.000 HD 
HETATM   36  H2  UNL     1     -13.268  13.931  73.352  1.00  0.00     0.000 HD 
ENDBRANCH  32  33
ENDBRANCH  31  32
ENDBRANCH  29  31
ENDBRANCH  27  29
ENDBRANCH  11  27
ENDBRANCH   2   3
TORSDOF 9
ENDMDL
MODEL       70
REMARK 921   NORMALIZED FREE ENERGY PREDICTED BY IDOCK:   -6.20 KCAL/MOL
REMARK 922        TOTAL FREE ENERGY PREDICTED BY IDOCK:  -10.43 KCAL/MOL
REMARK 923 INTER-LIGAND FREE ENERGY PREDICTED BY IDOCK:   -8.56 KCAL/MOL
REMARK 924 INTRA-LIGAND FREE ENERGY PREDICTED BY IDOCK:   -1.88 KCAL/MOL
REMARK 927      BINDING AFFINITY PREDICTED BY RF-SCORE:    0.00 PKD
ROOT
HETATM    1  C   UNL     1      -5.937  14.065  70.636  1.00  0.00    -0.186 C  
HETATM    2  O   UNL     1      -6.069  12.659  70.822  1.00  0.00    -0.220 OA 
ENDROOT
BRANCH   2   3
HETATM    3  C   UNL     1      -6.627  12.025  69.733  1.00  0.00     0.001 A  
HETATM    4  C   UNL     1      -6.352  10.688  69.585  1.00  0.00    -0.085 A  
HETATM    5  C   UNL     1      -6.967   9.995  68.536  1.00  0.00    -0.066 A  
HETATM    6  C   UNL     1      -7.977  10.646  67.757  1.00  0.00    -0.110 A  
HETATM    7  C   UNL     1      -6.420   8.631  68.204  1.00  0.00    -0.060 C  
HETATM    8  C   UNL     1      -8.958  10.049  66.891  1.00  0.00    -0.135 A  
HETATM    9  C   UNL     1      -9.625  10.833  65.933  1.00  0.00    -0.208 A  
HETATM   10  C   UNL     1      -7.995  12.059  67.865  1.00  0.00    -0.147 A  
HETATM   11  C   UNL     1      -8.678  12.840  66.912  1.00  0.00    -0.168 A  
HETATM   12  N   UNL     1      -7.352  12.723  68.847  1.00  0.00    -0.057 NA 
HETATM   13  C   UNL     1      -9.451  12.215  65.934  1.00  0.00    -0.187 A  
BRANCH   8  14
HETATM   14  O   UNL     1      -9.353   8.727  66.949  1.00  0.00    -0.150 OA 
BRANCH  14  15
HETATM   15  C   UNL     1     -10.173   8.214  67.934  1.00  0.00    -0.218 A  
HETATM   16  C   UNL     1     -10.551   6.886  67.700  1.00  0.00    -0.328 A  
HETATM   17  C   UNL     1     -11.123   6.120  68.714  1.00  0.00    -0.398 A  
HETATM   18  F   UNL     1      -9.913   9.216  71.972  1.00  0.00    -0.392 F  
HETATM   19  F   UNL     1     -11.287   7.648  72.564  1.00  0.00    -0.289 F  
HETATM   20  C   UNL     1     -11.307   6.677  69.976  1.00  0.00    -0.440 A  
HETATM   21  C   UNL     1     -10.519   8.819  69.145  1.00  0.00    -0.230 A  
HETATM   22  C   UNL     1     -11.070   8.597  71.608  1.00  0.00    -0.305 C  
HETATM   23  F   UNL     1     -12.057   9.519  71.763  1.00  0.00    -0.397 F  
HETATM   24  C   UNL     1     -11.001   8.028  70.209  1.00  0.00    -0.242 A  
ENDBRANCH  14  15
ENDBRANCH   8  14
BRANCH   9  25
HETATM   25  O   UNL     1     -10.524  10.419  64.983  1.00  0.00    -0.262 OA 
HETATM   26  C   UNL     1     -10.804  11.300  63.904  1.00  0.00    -0.354 C  
ENDBRANCH   9  25
BRANCH  11  27
HETATM   27  N   UNL     1      -8.622  14.247  67.014  1.00  0.00    -0.301 NA 
HETATM   28  H   UNL     1      -7.712  14.705  67.061  1.00  0.00     0.000 HD 
BRANCH  27  29
HETATM   29  C   UNL     1      -9.835  15.064  67.057  1.00  0.00    -0.238 C  
HETATM   30  C   UNL     1      -9.947  15.656  68.464  1.00  0.00    -0.211 C  
BRANCH  29  31
HETATM   31  C   UNL     1      -9.763  16.205  66.025  1.00  0.00    -0.376 C  
BRANCH  31  32
HETATM   32  C   UNL     1     -10.743  16.083  64.852  1.00  0.00    -0.339 C  
BRANCH  32  33
HETATM   33  C   UNL     1     -11.692  14.882  64.904  1.00  0.00    -0.371 C  
HETATM   34  N   UNL     1     -12.367  14.654  63.625  1.00  0.00    -1.089 NA 
HETATM   35  H1  UNL     1     -12.999  13.854  63.659  1.00  0.00     0.000 HD 
HETATM   36  H2  UNL     1     -11.694  14.560  62.864  1.00  0.00     0.000 HD 
ENDBRANCH  32  33
ENDBRANCH  31  32
ENDBRANCH  29  31
ENDBRANCH  27  29
ENDBRANCH  11  27
ENDBRANCH   2   3
TORSDOF 9
ENDMDL
MODEL       71
REMARK 921   NORMALIZED FREE ENERGY PREDICTED BY IDOCK:   -6.20 KCAL/MOL
REMARK 922        TOTAL FREE ENERGY PREDICTED BY IDOCK:  -10.43 KCAL/MOL
REMARK 923 INTER-LIGAND FREE ENERGY PREDICTED BY IDOCK:   -8.71 KCAL/MOL
REMARK 924 INTRA-LIGAND FREE ENERGY PREDICTED BY IDOCK:   -1.72 KCAL/MOL
REMARK 927      BINDING AFFINITY PREDICTED BY RF-SCORE:    0.00 PKD
ROOT
HETATM    1  C   UNL     1      -8.550   7.005  73.245  1.00  0.00    -0.125 C  
HETATM    2  O   UNL     1      -9.583   7.960  73.476  1.00  0.00    -0.284 OA 
ENDROOT
BRANCH   2   3
HETATM    3  C   UNL     1     -10.102   8.479  72.310  1.00  0.00    -0.316 A  
HETATM    4  C   UNL     1     -11.403   8.915  72.350  1.00  0.00    -0.173 A  
HETATM    5  C   UNL     1     -11.937   9.523  71.208  1.00  0.00    -0.445 A  
HETATM    6  C   UNL     1     -11.079   9.817  70.099  1.00  0.00    -0.335 A  
HETATM    7  C   UNL     1     -13.432   9.706  71.166  1.00  0.00    -0.292 C  
HETATM    8  C   UNL     1     -11.316  10.717  69.004  1.00  0.00    -0.284 A  
HETATM    9  C   UNL     1     -10.548  10.618  67.829  1.00  0.00    -0.236 A  
HETATM   10  C   UNL     1      -9.845   9.121  70.100  1.00  0.00    -0.198 A  
HETATM   11  C   UNL     1      -9.071   9.038  68.925  1.00  0.00    -0.140 A  
HETATM   12  N   UNL     1      -9.363   8.490  71.190  1.00  0.00    -0.179 NA 
HETATM   13  C   UNL     1      -9.456   9.755  67.793  1.00  0.00    -0.152 A  
BRANCH   8  14
HETATM   14  O   UNL     1     -12.240  11.744  69.019  1.00  0.00    -0.263 OA 
BRANCH  14  15
HETATM   15  C   UNL     1     -11.997  12.985  69.570  1.00  0.00    -0.289 A  
HETATM   16  C   UNL     1     -11.824  13.991  68.610  1.00  0.00    -0.396 A  
HETATM   17  C   UNL     1     -11.866  15.336  68.973  1.00  0.00    -0.342 A  
HETATM   18  F   UNL     1     -13.642  14.331  73.157  1.00  0.00    -0.537 F  
HETATM   19  F   UNL     1     -12.952  16.360  72.841  1.00  0.00    -0.477 F  
HETATM   20  C   UNL     1     -12.093  15.683  70.302  1.00  0.00    -0.413 A  
HETATM   21  C   UNL     1     -12.051  13.335  70.922  1.00  0.00    -0.242 A  
HETATM   22  C   UNL     1     -12.580  15.055  72.705  1.00  0.00    -0.370 C  
HETATM   23  F   UNL     1     -11.577  14.855  73.600  1.00  0.00    -0.410 F  
HETATM   24  C   UNL     1     -12.196  14.689  71.289  1.00  0.00    -0.410 A  
ENDBRANCH  14  15
ENDBRANCH   8  14
BRANCH   9  25
HETATM   25  O   UNL     1     -10.688  11.336  66.668  1.00  0.00    -0.252 OA 
HETATM   26  C   UNL     1      -9.520  11.916  66.102  1.00  0.00    -0.231 C  
ENDBRANCH   9  25
BRANCH  11  27
HETATM   27  N   UNL     1      -7.878   8.283  68.945  1.00  0.00    -0.109 NA 
HETATM   28  H   UNL     1      -7.080   8.629  69.478  1.00  0.00     0.000 HD 
BRANCH  27  29
HETATM   29  C   UNL     1      -7.757   7.017  68.221  1.00  0.00    -0.117 C  
HETATM   30  C   UNL     1      -6.318   6.910  67.710  1.00  0.00    -0.048 C  
BRANCH  29  31
HETATM   31  C   UNL     1      -8.062   5.825  69.148  1.00  0.00    -0.101 C  
BRANCH  31  32
HETATM   32  C   UNL     1      -9.323   5.030  68.790  1.00  0.00    -0.175 C  
BRANCH  32  33
HETATM   33  C   UNL     1      -9.479   3.681  69.498  1.00  0.00    -0.176 C  
HETATM   34  N   UNL     1      -9.471   2.558  68.559  1.00  0.00    -0.189 NA 
HETATM   35  H1  UNL     1      -9.575   1.659  69.030  1.00  0.00     0.000 HD 
HETATM   36  H2  UNL     1      -8.636   2.572  67.973  1.00  0.00     0.000 HD 
ENDBRANCH  32  33
ENDBRANCH  31  32
ENDBRANCH  29  31
ENDBRANCH  27  29
ENDBRANCH  11  27
ENDBRANCH   2   3
TORSDOF 9
ENDMDL
MODEL       72
REMARK 921   NORMALIZED FREE ENERGY PREDICTED BY IDOCK:   -6.18 KCAL/MOL
REMARK 922        TOTAL FREE ENERGY PREDICTED BY IDOCK:  -10.40 KCAL/MOL
REMARK 923 INTER-LIGAND FREE ENERGY PREDICTED BY IDOCK:   -8.11 KCAL/MOL
REMARK 924 INTRA-LIGAND FREE ENERGY PREDICTED BY IDOCK:   -2.29 KCAL/MOL
REMARK 927      BINDING AFFINITY PREDICTED BY RF-SCORE:    0.00 PKD
ROOT
HETATM    1  C   UNL     1      -8.927  10.005  64.000  1.00  0.00    -0.240 C  
HETATM    2  O   UNL     1      -8.578  10.545  65.272  1.00  0.00    -0.170 OA 
ENDROOT
BRANCH   2   3
HETATM    3  C   UNL     1      -9.364  10.058  66.294  1.00  0.00    -0.168 A  
HETATM    4  C   UNL     1      -9.693   8.726  66.241  1.00  0.00    -0.342 A  
HETATM    5  C   UNL     1     -10.421   8.178  67.304  1.00  0.00    -0.379 A  
HETATM    6  C   UNL     1     -10.659   8.966  68.476  1.00  0.00    -0.183 A  
HETATM    7  C   UNL     1     -11.034   6.819  67.085  1.00  0.00    -0.458 C  
HETATM    8  C   UNL     1     -11.061   8.522  69.783  1.00  0.00    -0.062 A  
HETATM    9  C   UNL     1     -11.598   9.437  70.706  1.00  0.00    -0.298 A  
HETATM   10  C   UNL     1     -10.470  10.360  68.305  1.00  0.00    -0.191 A  
HETATM   11  C   UNL     1     -10.996  11.273  69.242  1.00  0.00    -0.243 A  
HETATM   12  N   UNL     1      -9.816  10.884  67.248  1.00  0.00    -0.173 NA 
HETATM   13  C   UNL     1     -11.589  10.797  70.410  1.00  0.00    -0.431 A  
BRANCH   8  14
HETATM   14  O   UNL     1     -10.920   7.229  70.248  1.00  0.00    -0.250 OA 
BRANCH  14  15
HETATM   15  C   UNL     1      -9.744   6.725  70.766  1.00  0.00    -0.179 A  
HETATM   16  C   UNL     1      -9.332   5.538  70.146  1.00  0.00    -0.185 A  
HETATM   17  C   UNL     1      -8.039   5.052  70.328  1.00  0.00    -0.085 A  
HETATM   18  F   UNL     1      -6.604   9.068  72.193  1.00  0.00    -0.083 F  
HETATM   19  F   UNL     1      -5.265   7.372  72.354  1.00  0.00    -0.035 F  
HETATM   20  C   UNL     1      -7.143   5.760  71.123  1.00  0.00    -0.069 A  
HETATM   21  C   UNL     1      -8.901   7.336  71.698  1.00  0.00    -0.123 A  
HETATM   22  C   UNL     1      -6.557   7.758  72.562  1.00  0.00    -0.065 C  
HETATM   23  F   UNL     1      -6.742   7.738  73.909  1.00  0.00    -0.080 F  
HETATM   24  C   UNL     1      -7.560   6.912  71.810  1.00  0.00    -0.093 A  
ENDBRANCH  14  15
ENDBRANCH   8  14
BRANCH   9  25
HETATM   25  O   UNL     1     -12.100   9.176  71.956  1.00  0.00    -0.367 OA 
HETATM   26  C   UNL     1     -13.510   9.060  72.095  1.00  0.00    -0.459 C  
ENDBRANCH   9  25
BRANCH  11  27
HETATM   27  N   UNL     1     -10.844  12.657  69.006  1.00  0.00    -0.393 NA 
HETATM   28  H   UNL     1      -9.919  13.077  69.097  1.00  0.00     0.000 HD 
BRANCH  27  29
HETATM   29  C   UNL     1     -11.978  13.504  68.636  1.00  0.00    -0.343 C  
HETATM   30  C   UNL     1     -11.754  14.882  69.264  1.00  0.00    -0.344 C  
BRANCH  29  31
HETATM   31  C   UNL     1     -12.079  13.647  67.106  1.00  0.00    -0.404 C  
BRANCH  31  32
HETATM   32  C   UNL     1     -11.230  14.772  66.502  1.00  0.00    -0.342 C  
BRANCH  32  33
HETATM   33  C   UNL     1      -9.805  14.383  66.097  1.00  0.00    -0.320 C  
HETATM   34  N   UNL     1      -9.787  13.334  65.076  1.00  0.00    -0.559 NA 
HETATM   35  H1  UNL     1      -8.838  13.074  64.806  1.00  0.00     0.000 HD 
HETATM   36  H2  UNL     1     -10.341  13.601  64.263  1.00  0.00     0.000 HD 
ENDBRANCH  32  33
ENDBRANCH  31  32
ENDBRANCH  29  31
ENDBRANCH  27  29
ENDBRANCH  11  27
ENDBRANCH   2   3
TORSDOF 9
ENDMDL
MODEL       73
REMARK 921   NORMALIZED FREE ENERGY PREDICTED BY IDOCK:   -6.18 KCAL/MOL
REMARK 922        TOTAL FREE ENERGY PREDICTED BY IDOCK:  -10.39 KCAL/MOL
REMARK 923 INTER-LIGAND FREE ENERGY PREDICTED BY IDOCK:   -8.74 KCAL/MOL
REMARK 924 INTRA-LIGAND FREE ENERGY PREDICTED BY IDOCK:   -1.66 KCAL/MOL
REMARK 927      BINDING AFFINITY PREDICTED BY RF-SCORE:    0.00 PKD
ROOT
HETATM    1  C   UNL     1      -7.222  13.986  68.913  1.00  0.00    -0.108 C  
HETATM    2  O   UNL     1      -6.515  12.869  69.443  1.00  0.00    -0.107 OA 
ENDROOT
BRANCH   2   3
HETATM    3  C   UNL     1      -7.056  11.662  69.058  1.00  0.00    -0.108 A  
HETATM    4  C   UNL     1      -6.536  10.534  69.643  1.00  0.00    -0.084 A  
HETATM    5  C   UNL     1      -7.116   9.297  69.336  1.00  0.00    -0.053 A  
HETATM    6  C   UNL     1      -8.319   9.255  68.562  1.00  0.00    -0.119 A  
HETATM    7  C   UNL     1      -6.346   8.064  69.733  1.00  0.00    -0.036 C  
HETATM    8  C   UNL     1      -9.253   8.171  68.423  1.00  0.00    -0.135 A  
HETATM    9  C   UNL     1     -10.172   8.161  67.358  1.00  0.00    -0.258 A  
HETATM   10  C   UNL     1      -8.610  10.444  67.847  1.00  0.00    -0.118 A  
HETATM   11  C   UNL     1      -9.543  10.433  66.791  1.00  0.00    -0.171 A  
HETATM   12  N   UNL     1      -8.005  11.620  68.111  1.00  0.00    -0.133 NA 
HETATM   13  C   UNL     1     -10.281   9.279  66.535  1.00  0.00    -0.316 A  
BRANCH   8  14
HETATM   14  O   UNL     1      -9.363   7.115  69.306  1.00  0.00    -0.147 OA 
BRANCH  14  15
HETATM   15  C   UNL     1     -10.118   7.156  70.461  1.00  0.00    -0.195 A  
HETATM   16  C   UNL     1      -9.349   7.036  71.626  1.00  0.00    -0.158 A  
HETATM   17  C   UNL     1      -9.891   7.348  72.871  1.00  0.00    -0.253 A  
HETATM   18  F   UNL     1     -13.569   9.447  70.938  1.00  0.00    -0.333 F  
HETATM   19  F   UNL     1     -13.655   9.074  73.071  1.00  0.00    -0.461 F  
HETATM   20  C   UNL     1     -11.205   7.798  72.956  1.00  0.00    -0.380 A  
HETATM   21  C   UNL     1     -11.482   7.440  70.570  1.00  0.00    -0.281 A  
HETATM   22  C   UNL     1     -13.391   8.473  71.875  1.00  0.00    -0.372 C  
HETATM   23  F   UNL     1     -14.391   7.573  71.679  1.00  0.00    -0.448 F  
HETATM   24  C   UNL     1     -12.012   7.857  71.809  1.00  0.00    -0.337 A  
ENDBRANCH  14  15
ENDBRANCH   8  14
BRANCH   9  25
HETATM   25  O   UNL     1     -11.072   7.179  67.031  1.00  0.00    -0.345 OA 
HETATM   26  C   UNL     1     -10.565   5.962  66.500  1.00  0.00    -0.201 C  
ENDBRANCH   9  25
BRANCH  11  27
HETATM   27  N   UNL     1      -9.760  11.621  66.060  1.00  0.00    -0.226 NA 
HETATM   28  H   UNL     1      -9.306  11.737  65.154  1.00  0.00     0.000 HD 
BRANCH  27  29
HETATM   29  C   UNL     1     -10.620  12.691  66.568  1.00  0.00    -0.253 C  
HETATM   30  C   UNL     1      -9.930  14.024  66.267  1.00  0.00    -0.317 C  
BRANCH  29  31
HETATM   31  C   UNL     1     -11.998  12.660  65.880  1.00  0.00    -0.497 C  
BRANCH  31  32
HETATM   32  C   UNL     1     -12.031  11.945  64.524  1.00  0.00    -0.281 C  
BRANCH  32  33
HETATM   33  C   UNL     1     -11.883  12.848  63.296  1.00  0.00    -0.398 C  
HETATM   34  N   UNL     1     -12.427  14.188  63.525  1.00  0.00    -1.106 NA 
HETATM   35  H1  UNL     1     -12.328  14.790  62.708  1.00  0.00     0.000 HD 
HETATM   36  H2  UNL     1     -12.012  14.619  64.351  1.00  0.00     0.000 HD 
ENDBRANCH  32  33
ENDBRANCH  31  32
ENDBRANCH  29  31
ENDBRANCH  27  29
ENDBRANCH  11  27
ENDBRANCH   2   3
TORSDOF 9
ENDMDL
MODEL       74
REMARK 921   NORMALIZED FREE ENERGY PREDICTED BY IDOCK:   -6.14 KCAL/MOL
REMARK 922        TOTAL FREE ENERGY PREDICTED BY IDOCK:  -10.34 KCAL/MOL
REMARK 923 INTER-LIGAND FREE ENERGY PREDICTED BY IDOCK:   -9.21 KCAL/MOL
REMARK 924 INTRA-LIGAND FREE ENERGY PREDICTED BY IDOCK:   -1.14 KCAL/MOL
REMARK 927      BINDING AFFINITY PREDICTED BY RF-SCORE:    0.00 PKD
ROOT
HETATM    1  C   UNL     1      -9.899   5.068  67.306  1.00  0.00    -0.179 C  
HETATM    2  O   UNL     1      -9.582   6.157  66.444  1.00  0.00    -0.158 OA 
ENDROOT
BRANCH   2   3
HETATM    3  C   UNL     1      -9.867   7.383  67.004  1.00  0.00    -0.209 A  
HETATM    4  C   UNL     1      -9.755   8.480  66.185  1.00  0.00    -0.259 A  
HETATM    5  C   UNL     1     -10.114   9.732  66.698  1.00  0.00    -0.303 A  
HETATM    6  C   UNL     1     -10.734   9.815  67.987  1.00  0.00    -0.298 A  
HETATM    7  C   UNL     1      -9.694  10.942  65.905  1.00  0.00    -0.269 C  
HETATM    8  C   UNL     1     -11.480  10.908  68.549  1.00  0.00    -0.310 A  
HETATM    9  C   UNL     1     -11.703  10.973  69.936  1.00  0.00    -0.346 A  
HETATM   10  C   UNL     1     -10.581   8.662  68.797  1.00  0.00    -0.140 A  
HETATM   11  C   UNL     1     -10.821   8.727  70.184  1.00  0.00    -0.227 A  
HETATM   12  N   UNL     1     -10.179   7.473  68.305  1.00  0.00    -0.181 NA 
HETATM   13  C   UNL     1     -11.340   9.895  70.740  1.00  0.00    -0.430 A  
BRANCH   8  14
HETATM   14  O   UNL     1     -12.059  11.922  67.811  1.00  0.00    -0.564 OA 
BRANCH  14  15
HETATM   15  C   UNL     1     -11.452  13.138  67.570  1.00  0.00    -0.328 A  
HETATM   16  C   UNL     1     -11.806  13.695  66.334  1.00  0.00    -0.433 A  
HETATM   17  C   UNL     1     -11.531  15.032  66.052  1.00  0.00    -0.221 A  
HETATM   18  F   UNL     1     -10.579  15.959  70.513  1.00  0.00    -0.295 F  
HETATM   19  F   UNL     1     -10.066  17.481  69.059  1.00  0.00    -0.294 F  
HETATM   20  C   UNL     1     -10.911  15.825  67.013  1.00  0.00    -0.273 A  
HETATM   21  C   UNL     1     -10.678  13.887  68.460  1.00  0.00    -0.268 A  
HETATM   22  C   UNL     1      -9.937  16.149  69.326  1.00  0.00    -0.253 C  
HETATM   23  F   UNL     1      -8.617  15.942  69.573  1.00  0.00    -0.241 F  
HETATM   24  C   UNL     1     -10.485  15.265  68.229  1.00  0.00    -0.244 A  
ENDBRANCH  14  15
ENDBRANCH   8  14
BRANCH   9  25
HETATM   25  O   UNL     1     -12.320  11.972  70.645  1.00  0.00    -0.356 OA 
HETATM   26  C   UNL     1     -13.104  11.601  71.770  1.00  0.00    -0.382 C  
ENDBRANCH   9  25
BRANCH  11  27
HETATM   27  N   UNL     1     -10.597   7.576  70.970  1.00  0.00    -0.219 NA 
HETATM   28  H   UNL     1      -9.987   6.841  70.613  1.00  0.00     0.000 HD 
BRANCH  27  29
HETATM   29  C   UNL     1     -11.218   7.410  72.285  1.00  0.00    -0.272 C  
HETATM   30  C   UNL     1     -12.216   6.253  72.185  1.00  0.00    -0.255 C  
BRANCH  29  31
HETATM   31  C   UNL     1     -10.158   7.081  73.354  1.00  0.00    -0.320 C  
BRANCH  31  32
HETATM   32  C   UNL     1      -8.707   7.113  72.861  1.00  0.00    -0.144 C  
BRANCH  32  33
HETATM   33  C   UNL     1      -7.646   7.350  73.939  1.00  0.00    -0.111 C  
HETATM   34  N   UNL     1      -7.560   8.758  74.332  1.00  0.00    -0.422 NA 
HETATM   35  H1  UNL     1      -6.854   8.917  75.050  1.00  0.00     0.000 HD 
HETATM   36  H2  UNL     1      -8.470   9.116  74.624  1.00  0.00     0.000 HD 
ENDBRANCH  32  33
ENDBRANCH  31  32
ENDBRANCH  29  31
ENDBRANCH  27  29
ENDBRANCH  11  27
ENDBRANCH   2   3
TORSDOF 9
ENDMDL
MODEL       75
REMARK 921   NORMALIZED FREE ENERGY PREDICTED BY IDOCK:   -6.14 KCAL/MOL
REMARK 922        TOTAL FREE ENERGY PREDICTED BY IDOCK:  -10.34 KCAL/MOL
REMARK 923 INTER-LIGAND FREE ENERGY PREDICTED BY IDOCK:   -9.79 KCAL/MOL
REMARK 924 INTRA-LIGAND FREE ENERGY PREDICTED BY IDOCK:   -0.55 KCAL/MOL
REMARK 927      BINDING AFFINITY PREDICTED BY RF-SCORE:    0.00 PKD
ROOT
HETATM    1  C   UNL     1     -14.342  15.267  71.836  1.00  0.00    -0.589 C  
HETATM    2  O   UNL     1     -13.270  15.843  71.094  1.00  0.00    -0.518 OA 
ENDROOT
BRANCH   2   3
HETATM    3  C   UNL     1     -12.587  14.917  70.335  1.00  0.00    -0.343 A  
HETATM    4  C   UNL     1     -12.681  13.604  70.726  1.00  0.00    -0.338 A  
HETATM    5  C   UNL     1     -12.067  12.629  69.932  1.00  0.00    -0.322 A  
HETATM    6  C   UNL     1     -11.505  12.999  68.668  1.00  0.00    -0.344 A  
HETATM    7  C   UNL     1     -11.914  11.255  70.533  1.00  0.00    -0.467 C  
HETATM    8  C   UNL     1     -11.150  12.146  67.567  1.00  0.00    -0.275 A  
HETATM    9  C   UNL     1     -10.286  12.614  66.560  1.00  0.00    -0.242 A  
HETATM   10  C   UNL     1     -11.278  14.387  68.501  1.00  0.00    -0.265 A  
HETATM   11  C   UNL     1     -10.425  14.854  67.480  1.00  0.00    -0.254 A  
HETATM   12  N   UNL     1     -11.828  15.319  69.305  1.00  0.00    -0.328 NA 
HETATM   13  C   UNL     1      -9.908  13.955  66.549  1.00  0.00    -0.296 A  
BRANCH   8  14
HETATM   14  O   UNL     1     -11.636  10.867  67.377  1.00  0.00    -0.509 OA 
BRANCH  14  15
HETATM   15  C   UNL     1     -10.908   9.724  67.640  1.00  0.00    -0.239 A  
HETATM   16  C   UNL     1     -10.658   8.954  66.496  1.00  0.00    -0.051 A  
HETATM   17  C   UNL     1      -9.704   7.940  66.515  1.00  0.00    -0.279 A  
HETATM   18  F   UNL     1      -7.942   9.438  70.555  1.00  0.00    -0.117 F  
HETATM   19  F   UNL     1      -7.280   7.499  69.850  1.00  0.00    -0.070 F  
HETATM   20  C   UNL     1      -8.982   7.697  67.681  1.00  0.00    -0.127 A  
HETATM   21  C   UNL     1     -10.309   9.363  68.849  1.00  0.00    -0.230 A  
HETATM   22  C   UNL     1      -8.398   8.245  70.081  1.00  0.00    -0.124 C  
HETATM   23  F   UNL     1      -9.040   7.647  71.119  1.00  0.00    -0.141 F  
HETATM   24  C   UNL     1      -9.269   8.409  68.857  1.00  0.00    -0.147 A  
ENDBRANCH  14  15
ENDBRANCH   8  14
BRANCH   9  25
HETATM   25  O   UNL     1      -9.785  11.919  65.489  1.00  0.00    -0.233 OA 
HETATM   26  C   UNL     1     -10.491  11.996  64.257  1.00  0.00    -0.328 C  
ENDBRANCH   9  25
BRANCH  11  27
HETATM   27  N   UNL     1     -10.171  16.239  67.383  1.00  0.00    -0.269 NA 
HETATM   28  H   UNL     1     -10.567  16.763  66.602  1.00  0.00     0.000 HD 
BRANCH  27  29
HETATM   29  C   UNL     1      -9.354  16.943  68.372  1.00  0.00    -0.255 C  
HETATM   30  C   UNL     1      -7.893  16.553  68.130  1.00  0.00    -0.168 C  
BRANCH  29  31
HETATM   31  C   UNL     1      -9.509  18.468  68.226  1.00  0.00    -0.360 C  
BRANCH  31  32
HETATM   32  C   UNL     1     -10.711  18.922  67.390  1.00  0.00    -0.519 C  
BRANCH  32  33
HETATM   33  C   UNL     1     -10.440  20.062  66.403  1.00  0.00    -0.417 C  
HETATM   34  N   UNL     1      -9.300  20.887  66.811  1.00  0.00    -0.625 NA 
HETATM   35  H1  UNL     1      -9.119  21.646  66.154  1.00  0.00     0.000 HD 
HETATM   36  H2  UNL     1      -8.466  20.318  66.956  1.00  0.00     0.000 HD 
ENDBRANCH  32  33
ENDBRANCH  31  32
ENDBRANCH  29  31
ENDBRANCH  27  29
ENDBRANCH  11  27
ENDBRANCH   2   3
TORSDOF 9
ENDMDL
MODEL       76
REMARK 921   NORMALIZED FREE ENERGY PREDICTED BY IDOCK:   -6.12 KCAL/MOL
REMARK 922        TOTAL FREE ENERGY PREDICTED BY IDOCK:  -10.31 KCAL/MOL
REMARK 923 INTER-LIGAND FREE ENERGY PREDICTED BY IDOCK:   -8.56 KCAL/MOL
REMARK 924 INTRA-LIGAND FREE ENERGY PREDICTED BY IDOCK:   -1.75 KCAL/MOL
REMARK 927      BINDING AFFINITY PREDICTED BY RF-SCORE:    0.00 PKD
ROOT
HETATM    1  C   UNL     1      -7.094  10.318  65.020  1.00  0.00    -0.111 C  
HETATM    2  O   UNL     1      -8.452  10.514  64.638  1.00  0.00    -0.174 OA 
ENDROOT
BRANCH   2   3
HETATM    3  C   UNL     1      -9.336  10.295  65.673  1.00  0.00    -0.192 A  
HETATM    4  C   UNL     1      -9.580   8.988  66.015  1.00  0.00    -0.342 A  
HETATM    5  C   UNL     1     -10.408   8.731  67.113  1.00  0.00    -0.364 A  
HETATM    6  C   UNL     1     -10.843   9.818  67.939  1.00  0.00    -0.298 A  
HETATM    7  C   UNL     1     -10.909   7.320  67.277  1.00  0.00    -0.354 C  
HETATM    8  C   UNL     1     -11.387   9.766  69.268  1.00  0.00    -0.014 A  
HETATM    9  C   UNL     1     -12.091  10.867  69.788  1.00  0.00    -0.338 A  
HETATM   10  C   UNL     1     -10.712  11.101  67.351  1.00  0.00    -0.250 A  
HETATM   11  C   UNL     1     -11.407  12.205  67.885  1.00  0.00    -0.300 A  
HETATM   12  N   UNL     1      -9.956  11.330  66.259  1.00  0.00    -0.214 NA 
HETATM   13  C   UNL     1     -12.121  12.062  69.074  1.00  0.00    -0.223 A  
BRANCH   8  14
HETATM   14  O   UNL     1     -11.234   8.702  70.136  1.00  0.00    -0.237 OA 
BRANCH  14  15
HETATM   15  C   UNL     1     -10.293   8.663  71.144  1.00  0.00    -0.230 A  
HETATM   16  C   UNL     1     -10.784   8.118  72.337  1.00  0.00    -0.404 A  
HETATM   17  C   UNL     1      -9.914   7.730  73.354  1.00  0.00    -0.348 A  
HETATM   18  F   UNL     1      -6.219   8.016  70.538  1.00  0.00    -0.035 F  
HETATM   19  F   UNL     1      -5.828   7.780  72.656  1.00  0.00    -0.040 F  
HETATM   20  C   UNL     1      -8.541   7.875  73.177  1.00  0.00    -0.258 A  
HETATM   21  C   UNL     1      -8.932   8.966  71.042  1.00  0.00    -0.298 A  
HETATM   22  C   UNL     1      -6.545   8.519  71.761  1.00  0.00    -0.072 C  
HETATM   23  F   UNL     1      -6.021   9.773  71.806  1.00  0.00    -0.065 F  
HETATM   24  C   UNL     1      -8.034   8.485  72.018  1.00  0.00    -0.160 A  
ENDBRANCH  14  15
ENDBRANCH   8  14
BRANCH   9  25
HETATM   25  O   UNL     1     -12.737  10.961  70.994  1.00  0.00    -0.363 OA 
HETATM   26  C   UNL     1     -12.929  12.257  71.546  1.00  0.00    -0.289 C  
ENDBRANCH   9  25
BRANCH  11  27
HETATM   27  N   UNL     1     -11.304  13.455  67.236  1.00  0.00    -0.305 NA 
HETATM   28  H   UNL     1     -11.934  13.667  66.463  1.00  0.00     0.000 HD 
BRANCH  27  29
HETATM   29  C   UNL     1     -10.316  14.455  67.645  1.00  0.00    -0.237 C  
HETATM   30  C   UNL     1      -9.768  15.113  66.376  1.00  0.00    -0.300 C  
BRANCH  29  31
HETATM   31  C   UNL     1     -10.961  15.528  68.542  1.00  0.00    -0.288 C  
BRANCH  31  32
HETATM   32  C   UNL     1     -10.709  15.356  70.045  1.00  0.00    -0.323 C  
BRANCH  32  33
HETATM   33  C   UNL     1     -11.865  15.768  70.962  1.00  0.00    -0.420 C  
HETATM   34  N   UNL     1     -13.165  15.654  70.298  1.00  0.00    -0.713 NA 
HETATM   35  H1  UNL     1     -13.935  15.928  70.909  1.00  0.00     0.000 HD 
HETATM   36  H2  UNL     1     -13.308  14.716  69.924  1.00  0.00     0.000 HD 
ENDBRANCH  32  33
ENDBRANCH  31  32
ENDBRANCH  29  31
ENDBRANCH  27  29
ENDBRANCH  11  27
ENDBRANCH   2   3
TORSDOF 9
ENDMDL
MODEL       77
REMARK 921   NORMALIZED FREE ENERGY PREDICTED BY IDOCK:   -6.12 KCAL/MOL
REMARK 922        TOTAL FREE ENERGY PREDICTED BY IDOCK:  -10.30 KCAL/MOL
REMARK 923 INTER-LIGAND FREE ENERGY PREDICTED BY IDOCK:   -8.69 KCAL/MOL
REMARK 924 INTRA-LIGAND FREE ENERGY PREDICTED BY IDOCK:   -1.61 KCAL/MOL
REMARK 927      BINDING AFFINITY PREDICTED BY RF-SCORE:    0.00 PKD
ROOT
HETATM    1  C   UNL     1      -8.173   5.785  68.089  1.00  0.00    -0.104 C  
HETATM    2  O   UNL     1      -7.940   6.364  69.370  1.00  0.00    -0.106 OA 
ENDROOT
BRANCH   2   3
HETATM    3  C   UNL     1      -8.415   7.653  69.469  1.00  0.00    -0.132 A  
HETATM    4  C   UNL     1      -7.498   8.665  69.322  1.00  0.00    -0.082 A  
HETATM    5  C   UNL     1      -7.958   9.987  69.336  1.00  0.00    -0.145 A  
HETATM    6  C   UNL     1      -9.367  10.243  69.339  1.00  0.00    -0.217 A  
HETATM    7  C   UNL     1      -6.922  11.070  69.488  1.00  0.00    -0.126 C  
HETATM    8  C   UNL     1     -10.051  11.465  69.012  1.00  0.00    -0.090 A  
HETATM    9  C   UNL     1     -11.387  11.655  69.412  1.00  0.00    -0.278 A  
HETATM   10  C   UNL     1     -10.173   9.140  69.715  1.00  0.00    -0.207 A  
HETATM   11  C   UNL     1     -11.515   9.333  70.099  1.00  0.00    -0.108 A  
HETATM   12  N   UNL     1      -9.706   7.875  69.754  1.00  0.00    -0.175 NA 
HETATM   13  C   UNL     1     -12.091  10.597  69.981  1.00  0.00    -0.393 A  
BRANCH   8  14
HETATM   14  O   UNL     1      -9.506  12.494  68.271  1.00  0.00    -0.210 OA 
BRANCH  14  15
HETATM   15  C   UNL     1      -9.697  12.645  66.912  1.00  0.00    -0.234 A  
HETATM   16  C   UNL     1      -9.096  11.631  66.155  1.00  0.00    -0.209 A  
HETATM   17  C   UNL     1      -9.426  11.455  64.813  1.00  0.00    -0.176 A  
HETATM   18  F   UNL     1     -13.137  14.241  65.181  1.00  0.00    -0.429 F  
HETATM   19  F   UNL     1     -12.534  13.661  63.182  1.00  0.00    -0.556 F  
HETATM   20  C   UNL     1     -10.373  12.287  64.222  1.00  0.00    -0.375 A  
HETATM   21  C   UNL     1     -10.512  13.583  66.272  1.00  0.00    -0.290 A  
HETATM   22  C   UNL     1     -12.057  14.171  64.353  1.00  0.00    -0.463 C  
HETATM   23  F   UNL     1     -11.703  15.456  64.086  1.00  0.00    -0.369 F  
HETATM   24  C   UNL     1     -10.931  13.354  64.945  1.00  0.00    -0.353 A  
ENDBRANCH  14  15
ENDBRANCH   8  14
BRANCH   9  25
HETATM   25  O   UNL     1     -12.161  12.777  69.255  1.00  0.00    -0.262 OA 
HETATM   26  C   UNL     1     -12.245  13.684  70.346  1.00  0.00    -0.363 C  
ENDBRANCH   9  25
BRANCH  11  27
HETATM   27  N   UNL     1     -12.269   8.220  70.529  1.00  0.00    -0.469 NA 
HETATM   28  H   UNL     1     -12.448   7.458  69.875  1.00  0.00     0.000 HD 
BRANCH  27  29
HETATM   29  C   UNL     1     -12.802   8.131  71.889  1.00  0.00    -0.335 C  
HETATM   30  C   UNL     1     -14.142   7.393  71.816  1.00  0.00    -0.510 C  
BRANCH  29  31
HETATM   31  C   UNL     1     -11.838   7.355  72.806  1.00  0.00    -0.107 C  
BRANCH  31  32
HETATM   32  C   UNL     1     -11.416   5.976  72.285  1.00  0.00    -0.364 C  
BRANCH  32  33
HETATM   33  C   UNL     1     -10.281   5.295  73.056  1.00  0.00    -0.183 C  
HETATM   34  N   UNL     1     -10.775   4.516  74.193  1.00  0.00    -0.273 NA 
HETATM   35  H1  UNL     1     -10.019   4.062  74.707  1.00  0.00     0.000 HD 
HETATM   36  H2  UNL     1     -11.478   3.839  73.899  1.00  0.00     0.000 HD 
ENDBRANCH  32  33
ENDBRANCH  31  32
ENDBRANCH  29  31
ENDBRANCH  27  29
ENDBRANCH  11  27
ENDBRANCH   2   3
TORSDOF 9
ENDMDL
MODEL       78
REMARK 921   NORMALIZED FREE ENERGY PREDICTED BY IDOCK:   -6.10 KCAL/MOL
REMARK 922        TOTAL FREE ENERGY PREDICTED BY IDOCK:  -10.28 KCAL/MOL
REMARK 923 INTER-LIGAND FREE ENERGY PREDICTED BY IDOCK:   -9.09 KCAL/MOL
REMARK 924 INTRA-LIGAND FREE ENERGY PREDICTED BY IDOCK:   -1.19 KCAL/MOL
REMARK 927      BINDING AFFINITY PREDICTED BY RF-SCORE:    0.00 PKD
ROOT
HETATM    1  C   UNL     1      -9.513   5.440  65.749  1.00  0.00    -0.087 C  
HETATM    2  O   UNL     1      -8.529   6.163  66.482  1.00  0.00    -0.114 OA 
ENDROOT
BRANCH   2   3
HETATM    3  C   UNL     1      -9.034   7.295  67.083  1.00  0.00    -0.126 A  
HETATM    4  C   UNL     1      -9.301   8.366  66.266  1.00  0.00    -0.283 A  
HETATM    5  C   UNL     1      -9.890   9.503  66.830  1.00  0.00    -0.277 A  
HETATM    6  C   UNL     1     -10.343   9.463  68.188  1.00  0.00    -0.255 A  
HETATM    7  C   UNL     1      -9.885  10.759  65.998  1.00  0.00    -0.285 C  
HETATM    8  C   UNL     1     -11.258  10.353  68.849  1.00  0.00    -0.235 A  
HETATM    9  C   UNL     1     -11.313  10.395  70.254  1.00  0.00    -0.328 A  
HETATM   10  C   UNL     1      -9.809   8.404  68.963  1.00  0.00    -0.183 A  
HETATM   11  C   UNL     1      -9.881   8.441  70.370  1.00  0.00    -0.181 A  
HETATM   12  N   UNL     1      -9.192   7.337  68.415  1.00  0.00    -0.138 NA 
HETATM   13  C   UNL     1     -10.597   9.459  70.997  1.00  0.00    -0.400 A  
BRANCH   8  14
HETATM   14  O   UNL     1     -12.158  11.175  68.200  1.00  0.00    -0.633 OA 
BRANCH  14  15
HETATM   15  C   UNL     1     -11.874  12.469  67.813  1.00  0.00    -0.313 A  
HETATM   16  C   UNL     1     -11.104  13.168  68.752  1.00  0.00    -0.309 A  
HETATM   17  C   UNL     1     -10.479  14.366  68.410  1.00  0.00    -0.246 A  
HETATM   18  F   UNL     1     -11.232  13.661  63.870  1.00  0.00    -0.365 F  
HETATM   19  F   UNL     1     -10.537  15.627  64.461  1.00  0.00    -0.393 F  
HETATM   20  C   UNL     1     -10.611  14.866  67.117  1.00  0.00    -0.285 A  
HETATM   21  C   UNL     1     -12.145  13.061  66.577  1.00  0.00    -0.410 A  
HETATM   22  C   UNL     1     -11.474  14.678  64.745  1.00  0.00    -0.410 C  
HETATM   23  F   UNL     1     -12.671  15.211  64.384  1.00  0.00    -0.414 F  
HETATM   24  C   UNL     1     -11.437  14.217  66.185  1.00  0.00    -0.350 A  
ENDBRANCH  14  15
ENDBRANCH   8  14
BRANCH   9  25
HETATM   25  O   UNL     1     -12.063  11.229  71.043  1.00  0.00    -0.319 OA 
HETATM   26  C   UNL     1     -13.103  10.651  71.821  1.00  0.00    -0.466 C  
ENDBRANCH   9  25
BRANCH  11  27
HETATM   27  N   UNL     1      -9.282   7.400  71.112  1.00  0.00    -0.154 NA 
HETATM   28  H   UNL     1      -8.268   7.388  71.223  1.00  0.00     0.000 HD 
BRANCH  27  29
HETATM   29  C   UNL     1     -10.078   6.337  71.727  1.00  0.00    -0.186 C  
HETATM   30  C   UNL     1     -11.435   6.305  71.019  1.00  0.00    -0.370 C  
BRANCH  29  31
HETATM   31  C   UNL     1      -9.384   4.971  71.569  1.00  0.00    -0.191 C  
BRANCH  31  32
HETATM   32  C   UNL     1      -9.584   4.295  70.208  1.00  0.00    -0.269 C  
BRANCH  32  33
HETATM   33  C   UNL     1      -8.312   4.078  69.382  1.00  0.00    -0.061 C  
HETATM   34  N   UNL     1      -7.380   5.202  69.497  1.00  0.00    -0.056 NA 
HETATM   35  H1  UNL     1      -6.533   5.058  68.948  1.00  0.00     0.000 HD 
HETATM   36  H2  UNL     1      -7.158   5.399  70.472  1.00  0.00     0.000 HD 
ENDBRANCH  32  33
ENDBRANCH  31  32
ENDBRANCH  29  31
ENDBRANCH  27  29
ENDBRANCH  11  27
ENDBRANCH   2   3
TORSDOF 9
ENDMDL
MODEL       79
REMARK 921   NORMALIZED FREE ENERGY PREDICTED BY IDOCK:   -6.10 KCAL/MOL
REMARK 922        TOTAL FREE ENERGY PREDICTED BY IDOCK:  -10.28 KCAL/MOL
REMARK 923 INTER-LIGAND FREE ENERGY PREDICTED BY IDOCK:   -8.22 KCAL/MOL
REMARK 924 INTRA-LIGAND FREE ENERGY PREDICTED BY IDOCK:   -2.06 KCAL/MOL
REMARK 927      BINDING AFFINITY PREDICTED BY RF-SCORE:    0.00 PKD
ROOT
HETATM    1  C   UNL     1      -8.065   8.906  65.254  1.00  0.00    -0.126 C  
HETATM    2  O   UNL     1      -7.956   9.586  66.501  1.00  0.00    -0.110 OA 
ENDROOT
BRANCH   2   3
HETATM    3  C   UNL     1      -8.999   9.305  67.357  1.00  0.00    -0.124 A  
HETATM    4  C   UNL     1      -9.392   7.993  67.446  1.00  0.00    -0.173 A  
HETATM    5  C   UNL     1     -10.394   7.659  68.365  1.00  0.00    -0.228 A  
HETATM    6  C   UNL     1     -10.862   8.649  69.288  1.00  0.00    -0.082 A  
HETATM    7  C   UNL     1     -11.020   6.296  68.229  1.00  0.00    -0.408 C  
HETATM    8  C   UNL     1     -11.603   8.454  70.505  1.00  0.00    -0.128 A  
HETATM    9  C   UNL     1     -12.291   9.530  71.094  1.00  0.00    -0.326 A  
HETATM   10  C   UNL     1     -10.547   9.986  68.939  1.00  0.00    -0.218 A  
HETATM   11  C   UNL     1     -11.227  11.062  69.544  1.00  0.00    -0.279 A  
HETATM   12  N   UNL     1      -9.619  10.298  68.011  1.00  0.00    -0.145 NA 
HETATM   13  C   UNL     1     -12.121  10.815  70.585  1.00  0.00    -0.467 A  
BRANCH   8  14
HETATM   14  O   UNL     1     -11.665   7.263  71.201  1.00  0.00    -0.280 OA 
BRANCH  14  15
HETATM   15  C   UNL     1     -10.629   6.768  71.967  1.00  0.00    -0.213 A  
HETATM   16  C   UNL     1     -10.542   7.368  73.231  1.00  0.00    -0.442 A  
HETATM   17  C   UNL     1      -9.761   6.801  74.235  1.00  0.00    -0.328 A  
HETATM   18  F   UNL     1      -9.315   2.812  71.877  1.00  0.00    -0.132 F  
HETATM   19  F   UNL     1      -8.048   3.077  73.614  1.00  0.00    -0.067 F  
HETATM   20  C   UNL     1      -9.070   5.618  73.985  1.00  0.00    -0.126 A  
HETATM   21  C   UNL     1      -9.801   5.683  71.669  1.00  0.00    -0.213 A  
HETATM   22  C   UNL     1      -8.455   3.690  72.466  1.00  0.00    -0.086 C  
HETATM   23  F   UNL     1      -7.361   3.745  71.661  1.00  0.00    -0.045 F  
HETATM   24  C   UNL     1      -9.088   5.042  72.704  1.00  0.00    -0.141 A  
ENDBRANCH  14  15
ENDBRANCH   8  14
BRANCH   9  25
HETATM   25  O   UNL     1     -13.102   9.507  72.200  1.00  0.00    -0.404 OA 
HETATM   26  C   UNL     1     -14.290   8.729  72.137  1.00  0.00    -0.393 C  
ENDBRANCH   9  25
BRANCH  11  27
HETATM   27  N   UNL     1     -10.932  12.378  69.126  1.00  0.00    -0.402 NA 
HETATM   28  H   UNL     1      -9.971  12.618  68.883  1.00  0.00     0.000 HD 
BRANCH  27  29
HETATM   29  C   UNL     1     -11.969  13.406  69.033  1.00  0.00    -0.315 C  
HETATM   30  C   UNL     1     -11.595  14.532  70.001  1.00  0.00    -0.339 C  
BRANCH  29  31
HETATM   31  C   UNL     1     -12.057  13.968  67.601  1.00  0.00    -0.344 C  
BRANCH  31  32
HETATM   32  C   UNL     1     -11.767  12.955  66.488  1.00  0.00    -0.453 C  
BRANCH  32  33
HETATM   33  C   UNL     1     -10.564  13.277  65.597  1.00  0.00    -0.283 C  
HETATM   34  N   UNL     1      -9.323  12.694  66.112  1.00  0.00    -0.402 NA 
HETATM   35  H1  UNL     1      -8.521  12.908  65.519  1.00  0.00     0.000 HD 
HETATM   36  H2  UNL     1      -9.418  11.689  66.255  1.00  0.00     0.000 HD 
ENDBRANCH  32  33
ENDBRANCH  31  32
ENDBRANCH  29  31
ENDBRANCH  27  29
ENDBRANCH  11  27
ENDBRANCH   2   3
TORSDOF 9
ENDMDL
MODEL       80
REMARK 921   NORMALIZED FREE ENERGY PREDICTED BY IDOCK:   -6.09 KCAL/MOL
REMARK 922        TOTAL FREE ENERGY PREDICTED BY IDOCK:  -10.27 KCAL/MOL
REMARK 923 INTER-LIGAND FREE ENERGY PREDICTED BY IDOCK:   -8.56 KCAL/MOL
REMARK 924 INTRA-LIGAND FREE ENERGY PREDICTED BY IDOCK:   -1.70 KCAL/MOL
REMARK 927      BINDING AFFINITY PREDICTED BY RF-SCORE:    0.00 PKD
ROOT
HETATM    1  C   UNL     1      -6.166  14.907  69.731  1.00  0.00    -0.144 C  
HETATM    2  O   UNL     1      -6.091  13.494  69.561  1.00  0.00    -0.100 OA 
ENDROOT
BRANCH   2   3
HETATM    3  C   UNL     1      -6.952  13.025  68.593  1.00  0.00    -0.102 A  
HETATM    4  C   UNL     1      -6.665  11.797  68.050  1.00  0.00    -0.069 A  
HETATM    5  C   UNL     1      -7.562  11.254  67.123  1.00  0.00    -0.137 A  
HETATM    6  C   UNL     1      -8.816  11.905  66.889  1.00  0.00    -0.197 A  
HETATM    7  C   UNL     1      -7.083  10.073  66.318  1.00  0.00    -0.105 C  
HETATM    8  C   UNL     1      -9.998  11.369  66.271  1.00  0.00    -0.224 A  
HETATM    9  C   UNL     1     -11.000  12.233  65.794  1.00  0.00    -0.301 A  
HETATM   10  C   UNL     1      -8.879  13.251  67.330  1.00  0.00    -0.204 A  
HETATM   11  C   UNL     1      -9.895  14.109  66.863  1.00  0.00    -0.265 A  
HETATM   12  N   UNL     1      -7.978  13.783  68.180  1.00  0.00    -0.138 NA 
HETATM   13  C   UNL     1     -10.919  13.596  66.067  1.00  0.00    -0.288 A  
BRANCH   8  14
HETATM   14  O   UNL     1     -10.269  10.022  66.137  1.00  0.00    -0.247 OA 
BRANCH  14  15
HETATM   15  C   UNL     1     -10.532   9.183  67.201  1.00  0.00    -0.255 A  
HETATM   16  C   UNL     1     -10.604   7.833  66.835  1.00  0.00    -0.347 A  
HETATM   17  C   UNL     1     -10.566   6.830  67.801  1.00  0.00    -0.307 A  
HETATM   18  F   UNL     1      -9.162   9.812  71.088  1.00  0.00    -0.185 F  
HETATM   19  F   UNL     1      -9.783   7.842  71.744  1.00  0.00    -0.175 F  
HETATM   20  C   UNL     1     -10.442   7.174  69.144  1.00  0.00    -0.219 A  
HETATM   21  C   UNL     1     -10.583   9.526  68.555  1.00  0.00    -0.247 A  
HETATM   22  C   UNL     1     -10.168   8.900  70.974  1.00  0.00    -0.254 C  
HETATM   23  F   UNL     1     -11.245   9.446  71.598  1.00  0.00    -0.389 F  
HETATM   24  C   UNL     1     -10.441   8.522  69.536  1.00  0.00    -0.222 A  
ENDBRANCH  14  15
ENDBRANCH   8  14
BRANCH   9  25
HETATM   25  O   UNL     1     -12.145  11.902  65.115  1.00  0.00    -0.319 OA 
HETATM   26  C   UNL     1     -12.136  12.022  63.699  1.00  0.00    -0.527 C  
ENDBRANCH   9  25
BRANCH  11  27
HETATM   27  N   UNL     1      -9.890  15.460  67.273  1.00  0.00    -0.216 NA 
HETATM   28  H   UNL     1      -9.105  16.055  67.012  1.00  0.00     0.000 HD 
BRANCH  27  29
HETATM   29  C   UNL     1     -10.983  16.027  68.064  1.00  0.00    -0.341 C  
HETATM   30  C   UNL     1     -11.002  15.306  69.415  1.00  0.00    -0.271 C  
BRANCH  29  31
HETATM   31  C   UNL     1     -10.770  17.536  68.290  1.00  0.00    -0.309 C  
BRANCH  31  32
HETATM   32  C   UNL     1     -10.167  18.292  67.101  1.00  0.00    -0.387 C  
BRANCH  32  33
HETATM   33  C   UNL     1     -10.139  19.818  67.231  1.00  0.00    -0.418 C  
HETATM   34  N   UNL     1      -9.419  20.454  66.126  1.00  0.00    -0.653 NA 
HETATM   35  H1  UNL     1      -9.400  21.470  66.212  1.00  0.00     0.000 HD 
HETATM   36  H2  UNL     1      -9.799  20.168  65.224  1.00  0.00     0.000 HD 
ENDBRANCH  32  33
ENDBRANCH  31  32
ENDBRANCH  29  31
ENDBRANCH  27  29
ENDBRANCH  11  27
ENDBRANCH   2   3
TORSDOF 9
ENDMDL
MODEL       81
REMARK 921   NORMALIZED FREE ENERGY PREDICTED BY IDOCK:   -6.07 KCAL/MOL
REMARK 922        TOTAL FREE ENERGY PREDICTED BY IDOCK:  -10.23 KCAL/MOL
REMARK 923 INTER-LIGAND FREE ENERGY PREDICTED BY IDOCK:   -8.66 KCAL/MOL
REMARK 924 INTRA-LIGAND FREE ENERGY PREDICTED BY IDOCK:   -1.57 KCAL/MOL
REMARK 927      BINDING AFFINITY PREDICTED BY RF-SCORE:    0.00 PKD
ROOT
HETATM    1  C   UNL     1     -13.277  10.208  71.830  1.00  0.00    -0.452 C  
HETATM    2  O   UNL     1     -12.192   9.286  71.888  1.00  0.00    -0.356 OA 
ENDROOT
BRANCH   2   3
HETATM    3  C   UNL     1     -11.179   9.597  71.007  1.00  0.00    -0.375 A  
HETATM    4  C   UNL     1      -9.919   9.158  71.331  1.00  0.00    -0.373 A  
HETATM    5  C   UNL     1      -8.881   9.385  70.420  1.00  0.00    -0.290 A  
HETATM    6  C   UNL     1      -9.183   9.914  69.124  1.00  0.00    -0.184 A  
HETATM    7  C   UNL     1      -7.475   9.181  70.921  1.00  0.00    -0.136 C  
HETATM    8  C   UNL     1      -8.362   9.904  67.944  1.00  0.00    -0.114 A  
HETATM    9  C   UNL     1      -8.649  10.772  66.875  1.00  0.00    -0.132 A  
HETATM   10  C   UNL     1     -10.457  10.523  69.011  1.00  0.00    -0.217 A  
HETATM   11  C   UNL     1     -10.747  11.380  67.930  1.00  0.00    -0.200 A  
HETATM   12  N   UNL     1     -11.435  10.344  69.923  1.00  0.00    -0.277 NA 
HETATM   13  C   UNL     1      -9.821  11.524  66.898  1.00  0.00    -0.220 A  
BRANCH   8  14
HETATM   14  O   UNL     1      -7.297   9.049  67.738  1.00  0.00    -0.083 OA 
BRANCH  14  15
HETATM   15  C   UNL     1      -7.428   7.683  67.586  1.00  0.00    -0.104 A  
HETATM   16  C   UNL     1      -6.242   6.983  67.841  1.00  0.00    -0.038 A  
HETATM   17  C   UNL     1      -6.256   5.603  68.025  1.00  0.00    -0.037 A  
HETATM   18  F   UNL     1     -10.887   5.536  68.484  1.00  0.00    -0.279 F  
HETATM   19  F   UNL     1      -9.891   3.625  68.264  1.00  0.00    -0.212 F  
HETATM   20  C   UNL     1      -7.464   4.913  67.968  1.00  0.00    -0.075 A  
HETATM   21  C   UNL     1      -8.607   6.968  67.358  1.00  0.00    -0.121 A  
HETATM   22  C   UNL     1      -9.981   4.870  67.715  1.00  0.00    -0.131 C  
HETATM   23  F   UNL     1     -10.567   4.703  66.499  1.00  0.00    -0.283 F  
HETATM   24  C   UNL     1      -8.652   5.587  67.642  1.00  0.00    -0.108 A  
ENDBRANCH  14  15
ENDBRANCH   8  14
BRANCH   9  25
HETATM   25  O   UNL     1      -7.935  10.949  65.718  1.00  0.00    -0.150 OA 
HETATM   26  C   UNL     1      -8.340  10.218  64.568  1.00  0.00    -0.168 C  
ENDBRANCH   9  25
BRANCH  11  27
HETATM   27  N   UNL     1     -12.005  12.019  67.884  1.00  0.00    -0.547 NA 
HETATM   28  H   UNL     1     -12.837  11.464  67.686  1.00  0.00     0.000 HD 
BRANCH  27  29
HETATM   29  C   UNL     1     -12.145  13.458  68.111  1.00  0.00    -0.232 C  
HETATM   30  C   UNL     1     -11.163  13.851  69.219  1.00  0.00    -0.296 C  
BRANCH  29  31
HETATM   31  C   UNL     1     -11.819  14.250  66.831  1.00  0.00    -0.458 C  
BRANCH  31  32
HETATM   32  C   UNL     1     -12.608  13.827  65.587  1.00  0.00    -0.551 C  
BRANCH  32  33
HETATM   33  C   UNL     1     -12.231  14.545  64.288  1.00  0.00    -0.415 C  
HETATM   34  N   UNL     1     -12.437  13.700  63.109  1.00  0.00    -1.045 NA 
HETATM   35  H1  UNL     1     -12.186  14.178  62.243  1.00  0.00     0.000 HD 
HETATM   36  H2  UNL     1     -13.392  13.346  63.071  1.00  0.00     0.000 HD 
ENDBRANCH  32  33
ENDBRANCH  31  32
ENDBRANCH  29  31
ENDBRANCH  27  29
ENDBRANCH  11  27
ENDBRANCH   2   3
TORSDOF 9
ENDMDL
MODEL       82
REMARK 921   NORMALIZED FREE ENERGY PREDICTED BY IDOCK:   -6.05 KCAL/MOL
REMARK 922        TOTAL FREE ENERGY PREDICTED BY IDOCK:  -10.20 KCAL/MOL
REMARK 923 INTER-LIGAND FREE ENERGY PREDICTED BY IDOCK:   -9.01 KCAL/MOL
REMARK 924 INTRA-LIGAND FREE ENERGY PREDICTED BY IDOCK:   -1.19 KCAL/MOL
REMARK 927      BINDING AFFINITY PREDICTED BY RF-SCORE:    0.00 PKD
ROOT
HETATM    1  C   UNL     1     -13.022   9.818  71.800  1.00  0.00    -0.438 C  
HETATM    2  O   UNL     1     -12.609  11.171  71.631  1.00  0.00    -0.351 OA 
ENDROOT
BRANCH   2   3
HETATM    3  C   UNL     1     -12.185  11.445  70.349  1.00  0.00    -0.362 A  
HETATM    4  C   UNL     1     -12.386  12.724  69.890  1.00  0.00    -0.138 A  
HETATM    5  C   UNL     1     -11.895  13.060  68.623  1.00  0.00    -0.353 A  
HETATM    6  C   UNL     1     -11.069  12.129  67.917  1.00  0.00    -0.295 A  
HETATM    7  C   UNL     1     -12.391  14.348  68.018  1.00  0.00     0.001 C  
HETATM    8  C   UNL     1     -10.196  12.378  66.801  1.00  0.00    -0.219 A  
HETATM    9  C   UNL     1      -9.745  11.310  66.005  1.00  0.00    -0.220 A  
HETATM   10  C   UNL     1     -11.133  10.795  68.392  1.00  0.00    -0.266 A  
HETATM   11  C   UNL     1     -10.665   9.730  67.597  1.00  0.00    -0.274 A  
HETATM   12  N   UNL     1     -11.660  10.472  69.591  1.00  0.00    -0.266 NA 
HETATM   13  C   UNL     1     -10.013  10.001  66.395  1.00  0.00    -0.300 A  
BRANCH   8  14
HETATM   14  O   UNL     1      -9.705  13.621  66.454  1.00  0.00    -0.282 OA 
BRANCH  14  15
HETATM   15  C   UNL     1      -9.110  14.488  67.348  1.00  0.00    -0.196 A  
HETATM   16  C   UNL     1      -7.944  13.969  67.925  1.00  0.00    -0.158 A  
HETATM   17  C   UNL     1      -7.061  14.798  68.613  1.00  0.00    -0.112 A  
HETATM   18  F   UNL     1      -9.106  18.638  66.958  1.00  0.00    -0.270 F  
HETATM   19  F   UNL     1      -7.671  18.899  68.560  1.00  0.00    -0.302 F  
HETATM   20  C   UNL     1      -7.334  16.159  68.717  1.00  0.00    -0.184 A  
HETATM   21  C   UNL     1      -9.465  15.815  67.603  1.00  0.00    -0.218 A  
HETATM   22  C   UNL     1      -8.769  18.177  68.195  1.00  0.00    -0.277 C  
HETATM   23  F   UNL     1      -9.769  18.569  69.029  1.00  0.00    -0.349 F  
HETATM   24  C   UNL     1      -8.533  16.684  68.207  1.00  0.00    -0.203 A  
ENDBRANCH  14  15
ENDBRANCH   8  14
BRANCH   9  25
HETATM   25  O   UNL     1      -8.979  11.372  64.868  1.00  0.00    -0.062 OA 
HETATM   26  C   UNL     1      -9.636  11.229  63.616  1.00  0.00    -0.274 C  
ENDBRANCH   9  25
BRANCH  11  27
HETATM   27  N   UNL     1     -10.803   8.408  68.075  1.00  0.00    -0.470 NA 
HETATM   28  H   UNL     1     -11.735   7.999  68.141  1.00  0.00     0.000 HD 
BRANCH  27  29
HETATM   29  C   UNL     1      -9.644   7.612  68.481  1.00  0.00    -0.148 C  
HETATM   30  C   UNL     1      -9.502   7.738  70.000  1.00  0.00    -0.161 C  
BRANCH  29  31
HETATM   31  C   UNL     1      -9.840   6.131  68.105  1.00  0.00    -0.142 C  
BRANCH  31  32
HETATM   32  C   UNL     1     -10.817   5.876  66.952  1.00  0.00    -0.376 C  
BRANCH  32  33
HETATM   33  C   UNL     1     -10.483   4.684  66.051  1.00  0.00    -0.264 C  
HETATM   34  N   UNL     1     -11.511   4.454  65.033  1.00  0.00    -1.079 NA 
HETATM   35  H1  UNL     1     -11.289   3.660  64.433  1.00  0.00     0.000 HD 
HETATM   36  H2  UNL     1     -11.680   5.296  64.483  1.00  0.00     0.000 HD 
ENDBRANCH  32  33
ENDBRANCH  31  32
ENDBRANCH  29  31
ENDBRANCH  27  29
ENDBRANCH  11  27
ENDBRANCH   2   3
TORSDOF 9
ENDMDL
MODEL       83
REMARK 921   NORMALIZED FREE ENERGY PREDICTED BY IDOCK:   -6.03 KCAL/MOL
REMARK 922        TOTAL FREE ENERGY PREDICTED BY IDOCK:  -10.18 KCAL/MOL
REMARK 923 INTER-LIGAND FREE ENERGY PREDICTED BY IDOCK:   -8.64 KCAL/MOL
REMARK 924 INTRA-LIGAND FREE ENERGY PREDICTED BY IDOCK:   -1.54 KCAL/MOL
REMARK 927      BINDING AFFINITY PREDICTED BY RF-SCORE:    0.00 PKD
ROOT
HETATM    1  C   UNL     1      -9.219  10.113  63.233  1.00  0.00    -0.290 C  
HETATM    2  O   UNL     1      -9.781   9.902  64.525  1.00  0.00    -0.291 OA 
ENDROOT
BRANCH   2   3
HETATM    3  C   UNL     1      -9.931  11.069  65.241  1.00  0.00    -0.266 A  
HETATM    4  C   UNL     1     -11.177  11.646  65.235  1.00  0.00    -0.263 A  
HETATM    5  C   UNL     1     -11.386  12.788  66.017  1.00  0.00    -0.363 A  
HETATM    6  C   UNL     1     -10.361  13.225  66.915  1.00  0.00    -0.255 A  
HETATM    7  C   UNL     1     -12.645  13.574  65.756  1.00  0.00    -0.490 C  
HETATM    8  C   UNL     1     -10.476  14.127  68.029  1.00  0.00    -0.240 A  
HETATM    9  C   UNL     1      -9.327  14.727  68.574  1.00  0.00    -0.199 A  
HETATM   10  C   UNL     1      -9.074  12.689  66.657  1.00  0.00    -0.193 A  
HETATM   11  C   UNL     1      -7.927  13.284  67.218  1.00  0.00    -0.125 A  
HETATM   12  N   UNL     1      -8.875  11.622  65.857  1.00  0.00    -0.119 NA 
HETATM   13  C   UNL     1      -8.068  14.322  68.138  1.00  0.00    -0.144 A  
BRANCH   8  14
HETATM   14  O   UNL     1     -11.661  14.435  68.667  1.00  0.00    -0.280 OA 
BRANCH  14  15
HETATM   15  C   UNL     1     -12.050  13.881  69.870  1.00  0.00    -0.344 A  
HETATM   16  C   UNL     1     -12.724  14.786  70.701  1.00  0.00    -0.415 A  
HETATM   17  C   UNL     1     -13.441  14.337  71.808  1.00  0.00    -0.464 A  
HETATM   18  F   UNL     1     -13.246   9.917  70.359  1.00  0.00    -0.247 F  
HETATM   19  F   UNL     1     -13.947  10.262  72.380  1.00  0.00    -0.316 F  
HETATM   20  C   UNL     1     -13.498  12.973  72.084  1.00  0.00    -0.638 A  
HETATM   21  C   UNL     1     -11.967  12.539  70.248  1.00  0.00    -0.364 A  
HETATM   22  C   UNL     1     -12.940  10.572  71.514  1.00  0.00    -0.460 C  
HETATM   23  F   UNL     1     -11.824   9.970  72.005  1.00  0.00    -0.398 F  
HETATM   24  C   UNL     1     -12.771  12.059  71.304  1.00  0.00    -0.382 A  
ENDBRANCH  14  15
ENDBRANCH   8  14
BRANCH   9  25
HETATM   25  O   UNL     1      -9.259  15.662  69.576  1.00  0.00    -0.272 OA 
HETATM   26  C   UNL     1      -9.329  17.034  69.211  1.00  0.00     0.018 C  
ENDBRANCH   9  25
BRANCH  11  27
HETATM   27  N   UNL     1      -6.656  12.763  66.888  1.00  0.00    -0.446 NA 
HETATM   28  H   UNL     1      -6.219  13.040  66.010  1.00  0.00     0.000 HD 
BRANCH  27  29
HETATM   29  C   UNL     1      -5.952  11.835  67.774  1.00  0.00    -0.057 C  
HETATM   30  C   UNL     1      -6.779  11.697  69.055  1.00  0.00    -0.100 C  
BRANCH  29  31
HETATM   31  C   UNL     1      -5.798  10.454  67.110  1.00  0.00    -0.050 C  
BRANCH  31  32
HETATM   32  C   UNL     1      -5.788   9.265  68.079  1.00  0.00    -0.038 C  
BRANCH  32  33
HETATM   33  C   UNL     1      -6.891   8.225  67.862  1.00  0.00    -0.066 C  
HETATM   34  N   UNL     1      -7.652   8.473  66.635  1.00  0.00    -0.082 NA 
HETATM   35  H1  UNL     1      -8.387   7.780  66.490  1.00  0.00     0.000 HD 
HETATM   36  H2  UNL     1      -7.036   8.532  65.825  1.00  0.00     0.000 HD 
ENDBRANCH  32  33
ENDBRANCH  31  32
ENDBRANCH  29  31
ENDBRANCH  27  29
ENDBRANCH  11  27
ENDBRANCH   2   3
TORSDOF 9
ENDMDL
MODEL       84
REMARK 921   NORMALIZED FREE ENERGY PREDICTED BY IDOCK:   -6.03 KCAL/MOL
REMARK 922        TOTAL FREE ENERGY PREDICTED BY IDOCK:  -10.17 KCAL/MOL
REMARK 923 INTER-LIGAND FREE ENERGY PREDICTED BY IDOCK:   -8.09 KCAL/MOL
REMARK 924 INTRA-LIGAND FREE ENERGY PREDICTED BY IDOCK:   -2.08 KCAL/MOL
REMARK 927      BINDING AFFINITY PREDICTED BY RF-SCORE:    0.00 PKD
ROOT
HETATM    1  C   UNL     1     -12.389  13.499  63.342  1.00  0.00    -0.194 C  
HETATM    2  O   UNL     1     -12.362  14.546  64.307  1.00  0.00    -0.597 OA 
ENDROOT
BRANCH   2   3
HETATM    3  C   UNL     1     -11.578  14.247  65.400  1.00  0.00    -0.346 A  
HETATM    4  C   UNL     1     -12.054  13.288  66.260  1.00  0.00    -0.472 A  
HETATM    5  C   UNL     1     -11.247  12.902  67.336  1.00  0.00    -0.331 A  
HETATM    6  C   UNL     1      -9.902  13.387  67.420  1.00  0.00    -0.227 A  
HETATM    7  C   UNL     1     -11.902  12.095  68.427  1.00  0.00    -0.360 C  
HETATM    8  C   UNL     1      -8.816  12.873  68.209  1.00  0.00    -0.168 A  
HETATM    9  C   UNL     1      -7.682  13.668  68.456  1.00  0.00    -0.129 A  
HETATM   10  C   UNL     1      -9.627  14.521  66.615  1.00  0.00    -0.276 A  
HETATM   11  C   UNL     1      -8.481  15.306  66.855  1.00  0.00    -0.252 A  
HETATM   12  N   UNL     1     -10.439  14.921  65.616  1.00  0.00    -0.324 NA 
HETATM   13  C   UNL     1      -7.545  14.890  67.801  1.00  0.00    -0.171 A  
BRANCH   8  14
HETATM   14  O   UNL     1      -8.764  11.596  68.733  1.00  0.00    -0.119 OA 
BRANCH  14  15
HETATM   15  C   UNL     1      -8.713  10.452  67.962  1.00  0.00    -0.123 A  
HETATM   16  C   UNL     1      -7.553  10.365  67.181  1.00  0.00    -0.096 A  
HETATM   17  C   UNL     1      -7.192   9.164  66.575  1.00  0.00    -0.085 A  
HETATM   18  F   UNL     1     -10.253   6.757  69.125  1.00  0.00    -0.161 F  
HETATM   19  F   UNL     1      -9.326   5.722  67.462  1.00  0.00    -0.115 F  
HETATM   20  C   UNL     1      -7.985   8.035  66.759  1.00  0.00    -0.103 A  
HETATM   21  C   UNL     1      -9.593   9.368  67.999  1.00  0.00    -0.156 A  
HETATM   22  C   UNL     1      -9.980   6.872  67.795  1.00  0.00    -0.148 C  
HETATM   23  F   UNL     1     -11.179   6.821  67.157  1.00  0.00    -0.420 F  
HETATM   24  C   UNL     1      -9.188   8.121  67.478  1.00  0.00    -0.154 A  
ENDBRANCH  14  15
ENDBRANCH   8  14
BRANCH   9  25
HETATM   25  O   UNL     1      -6.599  13.371  69.242  1.00  0.00    -0.105 OA 
HETATM   26  C   UNL     1      -6.299  14.249  70.319  1.00  0.00    -0.140 C  
ENDBRANCH   9  25
BRANCH  11  27
HETATM   27  N   UNL     1      -8.272  16.464  66.075  1.00  0.00    -0.280 NA 
HETATM   28  H   UNL     1      -8.685  16.518  65.144  1.00  0.00     0.000 HD 
BRANCH  27  29
HETATM   29  C   UNL     1      -7.477  17.590  66.568  1.00  0.00    -0.274 C  
HETATM   30  C   UNL     1      -6.860  18.289  65.354  1.00  0.00    -0.071 C  
BRANCH  29  31
HETATM   31  C   UNL     1      -8.360  18.587  67.341  1.00  0.00    -0.264 C  
BRANCH  31  32
HETATM   32  C   UNL     1      -9.115  19.597  66.469  1.00  0.00    -0.436 C  
BRANCH  32  33
HETATM   33  C   UNL     1     -10.578  19.254  66.174  1.00  0.00    -0.459 C  
HETATM   34  N   UNL     1     -10.716  17.982  65.462  1.00  0.00    -0.536 NA 
HETATM   35  H1  UNL     1     -11.690  17.753  65.265  1.00  0.00     0.000 HD 
HETATM   36  H2  UNL     1     -10.254  17.225  65.965  1.00  0.00     0.000 HD 
ENDBRANCH  32  33
ENDBRANCH  31  32
ENDBRANCH  29  31
ENDBRANCH  27  29
ENDBRANCH  11  27
ENDBRANCH   2   3
TORSDOF 9
ENDMDL
MODEL       85
REMARK 921   NORMALIZED FREE ENERGY PREDICTED BY IDOCK:   -6.02 KCAL/MOL
REMARK 922        TOTAL FREE ENERGY PREDICTED BY IDOCK:  -10.15 KCAL/MOL
REMARK 923 INTER-LIGAND FREE ENERGY PREDICTED BY IDOCK:   -8.82 KCAL/MOL
REMARK 924 INTRA-LIGAND FREE ENERGY PREDICTED BY IDOCK:   -1.34 KCAL/MOL
REMARK 927      BINDING AFFINITY PREDICTED BY RF-SCORE:    0.00 PKD
ROOT
HETATM    1  C   UNL     1      -5.458  14.825  70.161  1.00  0.00    -0.113 C  
HETATM    2  O   UNL     1      -5.426  13.423  69.910  1.00  0.00    -0.087 OA 
ENDROOT
BRANCH   2   3
HETATM    3  C   UNL     1      -6.482  12.994  69.135  1.00  0.00    -0.108 A  
HETATM    4  C   UNL     1      -6.597  11.640  68.937  1.00  0.00    -0.079 A  
HETATM    5  C   UNL     1      -7.702  11.164  68.223  1.00  0.00    -0.116 A  
HETATM    6  C   UNL     1      -8.753  12.068  67.864  1.00  0.00    -0.170 A  
HETATM    7  C   UNL     1      -7.648   9.734  67.753  1.00  0.00    -0.090 C  
HETATM    8  C   UNL     1     -10.096  11.757  67.455  1.00  0.00    -0.195 A  
HETATM    9  C   UNL     1     -10.876  12.725  66.796  1.00  0.00    -0.264 A  
HETATM   10  C   UNL     1      -8.405  13.441  67.925  1.00  0.00    -0.166 A  
HETATM   11  C   UNL     1      -9.199  14.409  67.277  1.00  0.00    -0.209 A  
HETATM   12  N   UNL     1      -7.307  13.887  68.568  1.00  0.00    -0.109 NA 
HETATM   13  C   UNL     1     -10.403  14.030  66.686  1.00  0.00    -0.278 A  
BRANCH   8  14
HETATM   14  O   UNL     1     -10.731  10.556  67.701  1.00  0.00    -0.232 OA 
BRANCH  14  15
HETATM   15  C   UNL     1     -11.006  10.079  68.967  1.00  0.00    -0.212 A  
HETATM   16  C   UNL     1     -11.737  10.981  69.750  1.00  0.00    -0.410 A  
HETATM   17  C   UNL     1     -12.352  10.565  70.929  1.00  0.00    -0.490 A  
HETATM   18  F   UNL     1     -11.739   6.075  69.866  1.00  0.00    -0.466 F  
HETATM   19  F   UNL     1     -12.385   6.531  71.884  1.00  0.00    -0.360 F  
HETATM   20  C   UNL     1     -12.248   9.235  71.326  1.00  0.00    -0.410 A  
HETATM   21  C   UNL     1     -10.760   8.794  69.457  1.00  0.00    -0.196 A  
HETATM   22  C   UNL     1     -11.456   6.863  70.942  1.00  0.00    -0.323 C  
HETATM   23  F   UNL     1     -10.261   6.429  71.424  1.00  0.00    -0.205 F  
HETATM   24  C   UNL     1     -11.459   8.334  70.593  1.00  0.00    -0.236 A  
ENDBRANCH  14  15
ENDBRANCH   8  14
BRANCH   9  25
HETATM   25  O   UNL     1     -12.135  12.577  66.272  1.00  0.00    -0.574 OA 
HETATM   26  C   UNL     1     -12.755  13.722  65.700  1.00  0.00    -0.478 C  
ENDBRANCH   9  25
BRANCH  11  27
HETATM   27  N   UNL     1      -8.787  15.759  67.305  1.00  0.00    -0.188 NA 
HETATM   28  H   UNL     1      -8.317  16.152  66.490  1.00  0.00     0.000 HD 
BRANCH  27  29
HETATM   29  C   UNL     1      -9.017  16.609  68.474  1.00  0.00    -0.235 C  
HETATM   30  C   UNL     1      -8.029  17.777  68.401  1.00  0.00    -0.293 C  
BRANCH  29  31
HETATM   31  C   UNL     1     -10.458  17.155  68.480  1.00  0.00    -0.377 C  
BRANCH  31  32
HETATM   32  C   UNL     1     -11.509  16.207  69.067  1.00  0.00    -0.323 C  
BRANCH  32  33
HETATM   33  C   UNL     1     -11.252  15.739  70.503  1.00  0.00    -0.374 C  
HETATM   34  N   UNL     1     -11.765  14.389  70.745  1.00  0.00    -0.452 NA 
HETATM   35  H1  UNL     1     -11.594  14.077  71.701  1.00  0.00     0.000 HD 
HETATM   36  H2  UNL     1     -11.391  13.725  70.068  1.00  0.00     0.000 HD 
ENDBRANCH  32  33
ENDBRANCH  31  32
ENDBRANCH  29  31
ENDBRANCH  27  29
ENDBRANCH  11  27
ENDBRANCH   2   3
TORSDOF 9
ENDMDL
MODEL       86
REMARK 921   NORMALIZED FREE ENERGY PREDICTED BY IDOCK:   -6.01 KCAL/MOL
REMARK 922        TOTAL FREE ENERGY PREDICTED BY IDOCK:  -10.14 KCAL/MOL
REMARK 923 INTER-LIGAND FREE ENERGY PREDICTED BY IDOCK:   -8.22 KCAL/MOL
REMARK 924 INTRA-LIGAND FREE ENERGY PREDICTED BY IDOCK:   -1.92 KCAL/MOL
REMARK 927      BINDING AFFINITY PREDICTED BY RF-SCORE:    0.00 PKD
ROOT
HETATM    1  C   UNL     1     -12.292  13.105  63.221  1.00  0.00    -0.283 C  
HETATM    2  O   UNL     1     -12.359  14.112  64.227  1.00  0.00    -0.601 OA 
ENDROOT
BRANCH   2   3
HETATM    3  C   UNL     1     -11.586  13.818  65.329  1.00  0.00    -0.321 A  
HETATM    4  C   UNL     1     -12.053  12.839  66.171  1.00  0.00    -0.429 A  
HETATM    5  C   UNL     1     -11.254  12.459  67.256  1.00  0.00    -0.357 A  
HETATM    6  C   UNL     1      -9.923  12.974  67.367  1.00  0.00    -0.228 A  
HETATM    7  C   UNL     1     -11.908  11.625  68.327  1.00  0.00    -0.335 C  
HETATM    8  C   UNL     1      -8.838  12.477  68.168  1.00  0.00    -0.191 A  
HETATM    9  C   UNL     1      -7.727  13.295  68.441  1.00  0.00    -0.138 A  
HETATM   10  C   UNL     1      -9.661  14.123  66.579  1.00  0.00    -0.296 A  
HETATM   11  C   UNL     1      -8.537  14.931  66.846  1.00  0.00    -0.239 A  
HETATM   12  N   UNL     1     -10.466  14.515  65.571  1.00  0.00    -0.333 NA 
HETATM   13  C   UNL     1      -7.608  14.527  67.802  1.00  0.00    -0.171 A  
BRANCH   8  14
HETATM   14  O   UNL     1      -8.765  11.195  68.679  1.00  0.00    -0.155 OA 
BRANCH  14  15
HETATM   15  C   UNL     1      -8.618  10.066  67.899  1.00  0.00    -0.121 A  
HETATM   16  C   UNL     1      -9.357   8.972  68.368  1.00  0.00    -0.143 A  
HETATM   17  C   UNL     1      -9.565   7.856  67.561  1.00  0.00    -0.190 A  
HETATM   18  F   UNL     1      -8.103  10.113  63.762  1.00  0.00    -0.143 F  
HETATM   19  F   UNL     1      -8.370   7.970  63.593  1.00  0.00    -0.153 F  
HETATM   20  C   UNL     1      -9.045   7.833  66.270  1.00  0.00    -0.221 A  
HETATM   21  C   UNL     1      -7.955   9.966  66.673  1.00  0.00    -0.113 A  
HETATM   22  C   UNL     1      -7.791   8.932  64.367  1.00  0.00    -0.128 C  
HETATM   23  F   UNL     1      -6.449   8.775  64.219  1.00  0.00    -0.070 F  
HETATM   24  C   UNL     1      -8.242   8.889  65.809  1.00  0.00    -0.116 A  
ENDBRANCH  14  15
ENDBRANCH   8  14
BRANCH   9  25
HETATM   25  O   UNL     1      -6.650  13.014  69.243  1.00  0.00    -0.107 OA 
HETATM   26  C   UNL     1      -5.426  12.659  68.611  1.00  0.00    -0.059 C  
ENDBRANCH   9  25
BRANCH  11  27
HETATM   27  N   UNL     1      -8.343  16.103  66.082  1.00  0.00    -0.283 NA 
HETATM   28  H   UNL     1      -8.234  16.025  65.071  1.00  0.00     0.000 HD 
BRANCH  27  29
HETATM   29  C   UNL     1      -8.292  17.427  66.704  1.00  0.00    -0.263 C  
HETATM   30  C   UNL     1      -7.192  18.228  66.002  1.00  0.00    -0.298 C  
BRANCH  29  31
HETATM   31  C   UNL     1      -9.639  18.158  66.547  1.00  0.00    -0.318 C  
BRANCH  31  32
HETATM   32  C   UNL     1      -9.542  19.685  66.452  1.00  0.00    -0.490 C  
BRANCH  32  33
HETATM   33  C   UNL     1      -9.996  20.456  67.695  1.00  0.00    -0.374 C  
HETATM   34  N   UNL     1     -10.385  19.563  68.789  1.00  0.00    -0.556 NA 
HETATM   35  H1  UNL     1     -10.687  20.075  69.617  1.00  0.00     0.000 HD 
HETATM   36  H2  UNL     1      -9.636  18.908  69.014  1.00  0.00     0.000 HD 
ENDBRANCH  32  33
ENDBRANCH  31  32
ENDBRANCH  29  31
ENDBRANCH  27  29
ENDBRANCH  11  27
ENDBRANCH   2   3
TORSDOF 9
ENDMDL
MODEL       87
REMARK 921   NORMALIZED FREE ENERGY PREDICTED BY IDOCK:   -6.00 KCAL/MOL
REMARK 922        TOTAL FREE ENERGY PREDICTED BY IDOCK:  -10.13 KCAL/MOL
REMARK 923 INTER-LIGAND FREE ENERGY PREDICTED BY IDOCK:   -8.89 KCAL/MOL
REMARK 924 INTRA-LIGAND FREE ENERGY PREDICTED BY IDOCK:   -1.25 KCAL/MOL
REMARK 927      BINDING AFFINITY PREDICTED BY RF-SCORE:    0.00 PKD
ROOT
HETATM    1  C   UNL     1     -10.291  14.861  67.523  1.00  0.00    -0.239 C  
HETATM    2  O   UNL     1      -9.070  14.388  66.960  1.00  0.00    -0.214 OA 
ENDROOT
BRANCH   2   3
HETATM    3  C   UNL     1      -8.797  13.081  67.297  1.00  0.00    -0.208 A  
HETATM    4  C   UNL     1      -7.922  12.878  68.336  1.00  0.00    -0.137 A  
HETATM    5  C   UNL     1      -7.684  11.565  68.758  1.00  0.00    -0.124 A  
HETATM    6  C   UNL     1      -8.467  10.496  68.215  1.00  0.00    -0.123 A  
HETATM    7  C   UNL     1      -6.506  11.343  69.671  1.00  0.00    -0.133 C  
HETATM    8  C   UNL     1      -8.638   9.165  68.730  1.00  0.00    -0.131 A  
HETATM    9  C   UNL     1      -9.134   8.143  67.899  1.00  0.00    -0.132 A  
HETATM   10  C   UNL     1      -9.153  10.810  67.015  1.00  0.00    -0.144 A  
HETATM   11  C   UNL     1      -9.664   9.785  66.194  1.00  0.00    -0.246 A  
HETATM   12  N   UNL     1      -9.330  12.076  66.586  1.00  0.00    -0.214 NA 
HETATM   13  C   UNL     1      -9.610   8.461  66.630  1.00  0.00    -0.294 A  
BRANCH   8  14
HETATM   14  O   UNL     1      -8.389   8.792  70.036  1.00  0.00    -0.114 OA 
BRANCH  14  15
HETATM   15  C   UNL     1      -9.380   8.485  70.948  1.00  0.00    -0.174 A  
HETATM   16  C   UNL     1     -10.390   9.453  71.011  1.00  0.00    -0.382 A  
HETATM   17  C   UNL     1     -11.601   9.178  71.644  1.00  0.00    -0.449 A  
HETATM   18  F   UNL     1     -10.684   4.617  71.792  1.00  0.00    -0.236 F  
HETATM   19  F   UNL     1     -12.375   5.321  72.950  1.00  0.00    -0.314 F  
HETATM   20  C   UNL     1     -11.812   7.923  72.208  1.00  0.00    -0.404 A  
HETATM   21  C   UNL     1      -9.530   7.294  71.663  1.00  0.00    -0.161 A  
HETATM   22  C   UNL     1     -11.055   5.560  72.703  1.00  0.00    -0.282 C  
HETATM   23  F   UNL     1     -10.397   5.254  73.853  1.00  0.00    -0.179 F  
HETATM   24  C   UNL     1     -10.785   6.966  72.217  1.00  0.00    -0.253 A  
ENDBRANCH  14  15
ENDBRANCH   8  14
BRANCH   9  25
HETATM   25  O   UNL     1      -9.287   6.814  68.199  1.00  0.00    -0.125 OA 
HETATM   26  C   UNL     1     -10.605   6.282  68.210  1.00  0.00    -0.258 C  
ENDBRANCH   9  25
BRANCH  11  27
HETATM   27  N   UNL     1     -10.285  10.132  64.975  1.00  0.00    -0.259 NA 
HETATM   28  H   UNL     1     -11.284   9.957  64.859  1.00  0.00     0.000 HD 
BRANCH  27  29
HETATM   29  C   UNL     1      -9.534  10.735  63.873  1.00  0.00    -0.274 C  
HETATM   30  C   UNL     1      -9.148   9.613  62.906  1.00  0.00    -0.241 C  
BRANCH  29  31
HETATM   31  C   UNL     1     -10.391  11.778  63.132  1.00  0.00    -0.364 C  
BRANCH  31  32
HETATM   32  C   UNL     1     -11.745  12.087  63.783  1.00  0.00    -0.575 C  
BRANCH  32  33
HETATM   33  C   UNL     1     -11.866  13.468  64.436  1.00  0.00    -0.414 C  
HETATM   34  N   UNL     1     -12.430  14.464  63.522  1.00  0.00    -1.090 NA 
HETATM   35  H1  UNL     1     -12.511  15.383  63.956  1.00  0.00     0.000 HD 
HETATM   36  H2  UNL     1     -13.325  14.154  63.145  1.00  0.00     0.000 HD 
ENDBRANCH  32  33
ENDBRANCH  31  32
ENDBRANCH  29  31
ENDBRANCH  27  29
ENDBRANCH  11  27
ENDBRANCH   2   3
TORSDOF 9
ENDMDL
MODEL       88
REMARK 921   NORMALIZED FREE ENERGY PREDICTED BY IDOCK:   -5.99 KCAL/MOL
REMARK 922        TOTAL FREE ENERGY PREDICTED BY IDOCK:  -10.11 KCAL/MOL
REMARK 923 INTER-LIGAND FREE ENERGY PREDICTED BY IDOCK:   -8.08 KCAL/MOL
REMARK 924 INTRA-LIGAND FREE ENERGY PREDICTED BY IDOCK:   -2.03 KCAL/MOL
REMARK 927      BINDING AFFINITY PREDICTED BY RF-SCORE:    0.00 PKD
ROOT
HETATM    1  C   UNL     1      -8.735   9.994  64.550  1.00  0.00    -0.195 C  
HETATM    2  O   UNL     1      -8.302  10.218  65.888  1.00  0.00    -0.134 OA 
ENDROOT
BRANCH   2   3
HETATM    3  C   UNL     1      -9.173   9.705  66.825  1.00  0.00    -0.149 A  
HETATM    4  C   UNL     1      -9.509   8.380  66.699  1.00  0.00    -0.267 A  
HETATM    5  C   UNL     1     -10.327   7.805  67.679  1.00  0.00    -0.305 A  
HETATM    6  C   UNL     1     -10.652   8.555  68.855  1.00  0.00    -0.166 A  
HETATM    7  C   UNL     1     -10.932   6.462  67.363  1.00  0.00    -0.463 C  
HETATM    8  C   UNL     1     -11.164   8.070  70.108  1.00  0.00    -0.144 A  
HETATM    9  C   UNL     1     -11.766   8.959  71.017  1.00  0.00    -0.289 A  
HETATM   10  C   UNL     1     -10.437   9.952  68.749  1.00  0.00    -0.213 A  
HETATM   11  C   UNL     1     -11.029  10.837  69.672  1.00  0.00    -0.264 A  
HETATM   12  N   UNL     1      -9.694  10.503  67.768  1.00  0.00    -0.159 NA 
HETATM   13  C   UNL     1     -11.721  10.329  70.770  1.00  0.00    -0.453 A  
BRANCH   8  14
HETATM   14  O   UNL     1     -11.073   6.761  70.537  1.00  0.00    -0.260 OA 
BRANCH  14  15
HETATM   15  C   UNL     1      -9.882   6.137  70.849  1.00  0.00    -0.182 A  
HETATM   16  C   UNL     1      -9.161   6.796  71.854  1.00  0.00    -0.142 A  
HETATM   17  C   UNL     1      -8.099   6.165  72.497  1.00  0.00    -0.104 A  
HETATM   18  F   UNL     1      -9.294   2.011  70.771  1.00  0.00    -0.147 F  
HETATM   19  F   UNL     1      -7.362   2.156  71.743  1.00  0.00    -0.035 F  
HETATM   20  C   UNL     1      -7.759   4.861  72.148  1.00  0.00    -0.094 A  
HETATM   21  C   UNL     1      -9.428   4.900  70.384  1.00  0.00    -0.233 A  
HETATM   22  C   UNL     1      -8.152   2.753  70.804  1.00  0.00    -0.049 C  
HETATM   23  F   UNL     1      -7.534   2.550  69.610  1.00  0.00    -0.043 F  
HETATM   24  C   UNL     1      -8.423   4.212  71.094  1.00  0.00    -0.103 A  
ENDBRANCH  14  15
ENDBRANCH   8  14
BRANCH   9  25
HETATM   25  O   UNL     1     -12.371   8.661  72.211  1.00  0.00    -0.360 OA 
HETATM   26  C   UNL     1     -13.668   9.191  72.450  1.00  0.00    -0.480 C  
ENDBRANCH   9  25
BRANCH  11  27
HETATM   27  N   UNL     1     -10.845  12.227  69.499  1.00  0.00    -0.452 NA 
HETATM   28  H   UNL     1      -9.952  12.646  69.757  1.00  0.00     0.000 HD 
BRANCH  27  29
HETATM   29  C   UNL     1     -11.904  13.081  68.959  1.00  0.00    -0.316 C  
HETATM   30  C   UNL     1     -11.794  14.446  69.644  1.00  0.00    -0.372 C  
BRANCH  29  31
HETATM   31  C   UNL     1     -11.743  13.257  67.437  1.00  0.00    -0.419 C  
BRANCH  31  32
HETATM   32  C   UNL     1     -11.163  14.605  66.996  1.00  0.00    -0.348 C  
BRANCH  32  33
HETATM   33  C   UNL     1      -9.718  14.571  66.488  1.00  0.00    -0.285 C  
HETATM   34  N   UNL     1      -9.225  13.203  66.316  1.00  0.00    -0.456 NA 
HETATM   35  H1  UNL     1      -8.263  13.179  65.978  1.00  0.00     0.000 HD 
HETATM   36  H2  UNL     1      -9.841  12.661  65.711  1.00  0.00     0.000 HD 
ENDBRANCH  32  33
ENDBRANCH  31  32
ENDBRANCH  29  31
ENDBRANCH  27  29
ENDBRANCH  11  27
ENDBRANCH   2   3
TORSDOF 9
ENDMDL
MODEL       89
REMARK 921   NORMALIZED FREE ENERGY PREDICTED BY IDOCK:   -5.99 KCAL/MOL
REMARK 922        TOTAL FREE ENERGY PREDICTED BY IDOCK:  -10.11 KCAL/MOL
REMARK 923 INTER-LIGAND FREE ENERGY PREDICTED BY IDOCK:   -8.00 KCAL/MOL
REMARK 924 INTRA-LIGAND FREE ENERGY PREDICTED BY IDOCK:   -2.11 KCAL/MOL
REMARK 927      BINDING AFFINITY PREDICTED BY RF-SCORE:    0.00 PKD
ROOT
HETATM    1  C   UNL     1      -9.425   7.479  70.984  1.00  0.00    -0.160 C  
HETATM    2  O   UNL     1      -8.691   8.356  70.134  1.00  0.00    -0.131 OA 
ENDROOT
BRANCH   2   3
HETATM    3  C   UNL     1      -9.502   9.120  69.324  1.00  0.00    -0.158 A  
HETATM    4  C   UNL     1     -10.484   9.854  69.944  1.00  0.00    -0.309 A  
HETATM    5  C   UNL     1     -11.274  10.703  69.160  1.00  0.00    -0.324 A  
HETATM    6  C   UNL     1     -10.939  10.907  67.783  1.00  0.00    -0.339 A  
HETATM    7  C   UNL     1     -12.526  11.250  69.795  1.00  0.00    -0.193 C  
HETATM    8  C   UNL     1     -11.374  11.960  66.906  1.00  0.00    -0.330 A  
HETATM    9  C   UNL     1     -11.252  11.815  65.512  1.00  0.00    -0.258 A  
HETATM   10  C   UNL     1     -10.068   9.935  67.232  1.00  0.00    -0.211 A  
HETATM   11  C   UNL     1      -9.936   9.804  65.835  1.00  0.00    -0.275 A  
HETATM   12  N   UNL     1      -9.352   9.081  67.992  1.00  0.00    -0.141 NA 
HETATM   13  C   UNL     1     -10.564  10.721  64.993  1.00  0.00    -0.243 A  
BRANCH   8  14
HETATM   14  O   UNL     1     -11.882  13.172  67.329  1.00  0.00    -0.358 OA 
BRANCH  14  15
HETATM   15  C   UNL     1     -11.103  14.201  67.819  1.00  0.00    -0.276 A  
HETATM   16  C   UNL     1     -11.542  14.684  69.058  1.00  0.00    -0.328 A  
HETATM   17  C   UNL     1     -10.724  15.504  69.833  1.00  0.00    -0.321 A  
HETATM   18  F   UNL     1      -6.986  14.517  67.240  1.00  0.00    -0.200 F  
HETATM   19  F   UNL     1      -6.799  16.142  68.661  1.00  0.00    -0.116 F  
HETATM   20  C   UNL     1      -9.452  15.835  69.376  1.00  0.00    -0.275 A  
HETATM   21  C   UNL     1      -9.900  14.676  67.289  1.00  0.00    -0.231 A  
HETATM   22  C   UNL     1      -7.596  15.659  67.665  1.00  0.00    -0.158 C  
HETATM   23  F   UNL     1      -7.494  16.545  66.639  1.00  0.00    -0.215 F  
HETATM   24  C   UNL     1      -9.022  15.419  68.105  1.00  0.00    -0.176 A  
ENDBRANCH  14  15
ENDBRANCH   8  14
BRANCH   9  25
HETATM   25  O   UNL     1     -11.681  12.676  64.535  1.00  0.00    -0.325 OA 
HETATM   26  C   UNL     1     -12.535  12.159  63.522  1.00  0.00    -0.555 C  
ENDBRANCH   9  25
BRANCH  11  27
HETATM   27  N   UNL     1      -9.107   8.782  65.320  1.00  0.00    -0.405 NA 
HETATM   28  H   UNL     1      -9.137   7.856  65.746  1.00  0.00     0.000 HD 
BRANCH  27  29
HETATM   29  C   UNL     1      -8.207   9.018  64.190  1.00  0.00    -0.166 C  
HETATM   30  C   UNL     1      -6.947   9.697  64.734  1.00  0.00    -0.111 C  
BRANCH  29  31
HETATM   31  C   UNL     1      -7.822   7.691  63.510  1.00  0.00    -0.124 C  
BRANCH  31  32
HETATM   32  C   UNL     1      -7.422   6.563  64.468  1.00  0.00    -0.090 C  
BRANCH  32  33
HETATM   33  C   UNL     1      -8.398   5.386  64.549  1.00  0.00    -0.138 C  
HETATM   34  N   UNL     1      -9.505   5.648  65.471  1.00  0.00    -0.366 NA 
HETATM   35  H1  UNL     1     -10.156   4.864  65.526  1.00  0.00     0.000 HD 
HETATM   36  H2  UNL     1      -9.989   6.512  65.230  1.00  0.00     0.000 HD 
ENDBRANCH  32  33
ENDBRANCH  31  32
ENDBRANCH  29  31
ENDBRANCH  27  29
ENDBRANCH  11  27
ENDBRANCH   2   3
TORSDOF 9
ENDMDL
MODEL       90
REMARK 921   NORMALIZED FREE ENERGY PREDICTED BY IDOCK:   -5.99 KCAL/MOL
REMARK 922        TOTAL FREE ENERGY PREDICTED BY IDOCK:  -10.11 KCAL/MOL
REMARK 923 INTER-LIGAND FREE ENERGY PREDICTED BY IDOCK:   -9.41 KCAL/MOL
REMARK 924 INTRA-LIGAND FREE ENERGY PREDICTED BY IDOCK:   -0.70 KCAL/MOL
REMARK 927      BINDING AFFINITY PREDICTED BY RF-SCORE:    0.00 PKD
ROOT
HETATM    1  C   UNL     1     -10.694   7.462  73.302  1.00  0.00    -0.391 C  
HETATM    2  O   UNL     1     -11.856   7.844  72.570  1.00  0.00    -0.354 OA 
ENDROOT
BRANCH   2   3
HETATM    3  C   UNL     1     -11.556   8.470  71.380  1.00  0.00    -0.289 A  
HETATM    4  C   UNL     1     -11.772   9.825  71.320  1.00  0.00    -0.472 A  
HETATM    5  C   UNL     1     -11.404  10.506  70.155  1.00  0.00    -0.400 A  
HETATM    6  C   UNL     1     -10.674   9.816  69.134  1.00  0.00    -0.242 A  
HETATM    7  C   UNL     1     -11.927  11.909  69.988  1.00  0.00    -0.409 C  
HETATM    8  C   UNL     1      -9.912  10.373  68.050  1.00  0.00    -0.155 A  
HETATM    9  C   UNL     1      -9.567   9.575  66.944  1.00  0.00    -0.165 A  
HETATM   10  C   UNL     1     -10.721   8.402  69.221  1.00  0.00    -0.126 A  
HETATM   11  C   UNL     1     -10.359   7.606  68.116  1.00  0.00    -0.204 A  
HETATM   12  N   UNL     1     -11.132   7.752  70.330  1.00  0.00    -0.255 NA 
HETATM   13  C   UNL     1      -9.826   8.207  66.978  1.00  0.00    -0.299 A  
BRANCH   8  14
HETATM   14  O   UNL     1      -9.430  11.667  68.016  1.00  0.00    -0.172 OA 
BRANCH  14  15
HETATM   15  C   UNL     1     -10.057  12.702  67.352  1.00  0.00    -0.218 A  
HETATM   16  C   UNL     1     -11.412  12.451  67.095  1.00  0.00    -0.423 A  
HETATM   17  C   UNL     1     -12.265  13.482  66.707  1.00  0.00    -0.392 A  
HETATM   18  F   UNL     1      -9.154  16.736  67.890  1.00  0.00    -0.212 F  
HETATM   19  F   UNL     1     -10.878  17.388  66.751  1.00  0.00    -0.268 F  
HETATM   20  C   UNL     1     -11.769  14.777  66.586  1.00  0.00    -0.293 A  
HETATM   21  C   UNL     1      -9.530  13.963  67.062  1.00  0.00    -0.256 A  
HETATM   22  C   UNL     1      -9.884  16.455  66.774  1.00  0.00    -0.256 C  
HETATM   23  F   UNL     1      -9.079  16.736  65.715  1.00  0.00    -0.285 F  
HETATM   24  C   UNL     1     -10.400  15.034  66.769  1.00  0.00    -0.270 A  
ENDBRANCH  14  15
ENDBRANCH   8  14
BRANCH   9  25
HETATM   25  O   UNL     1      -8.918   9.959  65.798  1.00  0.00    -0.143 OA 
HETATM   26  C   UNL     1      -9.693  10.116  64.617  1.00  0.00    -0.309 C  
ENDBRANCH   9  25
BRANCH  11  27
HETATM   27  N   UNL     1     -10.479   6.202  68.217  1.00  0.00    -0.205 NA 
HETATM   28  H   UNL     1     -11.381   5.766  68.026  1.00  0.00     0.000 HD 
BRANCH  27  29
HETATM   29  C   UNL     1      -9.344   5.358  68.590  1.00  0.00    -0.118 C  
HETATM   30  C   UNL     1      -9.874   4.234  69.484  1.00  0.00    -0.224 C  
BRANCH  29  31
HETATM   31  C   UNL     1      -8.680   4.750  67.340  1.00  0.00    -0.103 C  
BRANCH  31  32
HETATM   32  C   UNL     1      -9.567   3.794  66.533  1.00  0.00    -0.189 C  
BRANCH  32  33
HETATM   33  C   UNL     1      -9.940   4.267  65.125  1.00  0.00    -0.204 C  
HETATM   34  N   UNL     1     -11.375   4.524  64.989  1.00  0.00    -1.108 NA 
HETATM   35  H1  UNL     1     -11.624   4.839  64.051  1.00  0.00     0.000 HD 
HETATM   36  H2  UNL     1     -11.701   5.182  65.697  1.00  0.00     0.000 HD 
ENDBRANCH  32  33
ENDBRANCH  31  32
ENDBRANCH  29  31
ENDBRANCH  27  29
ENDBRANCH  11  27
ENDBRANCH   2   3
TORSDOF 9
ENDMDL
MODEL       91
REMARK 921   NORMALIZED FREE ENERGY PREDICTED BY IDOCK:   -5.98 KCAL/MOL
REMARK 922        TOTAL FREE ENERGY PREDICTED BY IDOCK:  -10.10 KCAL/MOL
REMARK 923 INTER-LIGAND FREE ENERGY PREDICTED BY IDOCK:   -8.24 KCAL/MOL
REMARK 924 INTRA-LIGAND FREE ENERGY PREDICTED BY IDOCK:   -1.86 KCAL/MOL
REMARK 927      BINDING AFFINITY PREDICTED BY RF-SCORE:    0.00 PKD
ROOT
HETATM    1  C   UNL     1     -12.380  11.240  69.943  1.00  0.00    -0.233 C  
HETATM    2  O   UNL     1     -12.475  11.288  68.522  1.00  0.00    -0.434 OA 
ENDROOT
BRANCH   2   3
HETATM    3  C   UNL     1     -11.463  12.022  67.942  1.00  0.00    -0.330 A  
HETATM    4  C   UNL     1     -11.778  12.720  66.803  1.00  0.00    -0.459 A  
HETATM    5  C   UNL     1     -10.797  13.541  66.234  1.00  0.00    -0.291 A  
HETATM    6  C   UNL     1      -9.565  13.755  66.931  1.00  0.00    -0.263 A  
HETATM    7  C   UNL     1     -11.052  14.043  64.836  1.00  0.00    -0.378 C  
HETATM    8  C   UNL     1      -8.590  14.791  66.722  1.00  0.00    -0.193 A  
HETATM    9  C   UNL     1      -7.287  14.650  67.231  1.00  0.00    -0.090 A  
HETATM   10  C   UNL     1      -9.288  12.815  67.954  1.00  0.00    -0.208 A  
HETATM   11  C   UNL     1      -7.984  12.687  68.474  1.00  0.00    -0.093 A  
HETATM   12  N   UNL     1     -10.226  11.988  68.459  1.00  0.00    -0.219 NA 
HETATM   13  C   UNL     1      -6.992  13.581  68.074  1.00  0.00    -0.133 A  
BRANCH   8  14
HETATM   14  O   UNL     1      -8.843  15.985  66.075  1.00  0.00    -0.333 OA 
BRANCH  14  15
HETATM   15  C   UNL     1      -8.939  17.201  66.720  1.00  0.00    -0.241 A  
HETATM   16  C   UNL     1      -9.917  17.218  67.722  1.00  0.00    -0.301 A  
HETATM   17  C   UNL     1      -9.955  18.245  68.663  1.00  0.00    -0.410 A  
HETATM   18  F   UNL     1      -5.711  19.734  67.461  1.00  0.00    -0.173 F  
HETATM   19  F   UNL     1      -6.875  21.019  68.761  1.00  0.00    -0.138 F  
HETATM   20  C   UNL     1      -9.001  19.257  68.615  1.00  0.00    -0.419 A  
HETATM   21  C   UNL     1      -8.096  18.306  66.571  1.00  0.00    -0.293 A  
HETATM   22  C   UNL     1      -6.938  20.312  67.596  1.00  0.00    -0.282 C  
HETATM   23  F   UNL     1      -7.033  21.235  66.602  1.00  0.00    -0.325 F  
HETATM   24  C   UNL     1      -8.057  19.296  67.575  1.00  0.00    -0.307 A  
ENDBRANCH  14  15
ENDBRANCH   8  14
BRANCH   9  25
HETATM   25  O   UNL     1      -6.220  15.494  67.062  1.00  0.00    -0.279 OA 
HETATM   26  C   UNL     1      -5.482  15.873  68.217  1.00  0.00    -0.109 C  
ENDBRANCH   9  25
BRANCH  11  27
HETATM   27  N   UNL     1      -7.730  11.696  69.447  1.00  0.00    -0.342 NA 
HETATM   28  H   UNL     1      -8.290  11.683  70.300  1.00  0.00     0.000 HD 
BRANCH  27  29
HETATM   29  C   UNL     1      -6.686  10.688  69.264  1.00  0.00    -0.075 C  
HETATM   30  C   UNL     1      -5.589  10.962  70.297  1.00  0.00    -0.089 C  
BRANCH  29  31
HETATM   31  C   UNL     1      -7.249   9.270  69.478  1.00  0.00    -0.061 C  
BRANCH  31  32
HETATM   32  C   UNL     1      -8.766   9.198  69.685  1.00  0.00    -0.145 C  
BRANCH  32  33
HETATM   33  C   UNL     1      -9.497   8.133  68.862  1.00  0.00    -0.151 C  
HETATM   34  N   UNL     1     -10.668   8.676  68.169  1.00  0.00    -0.441 NA 
HETATM   35  H1  UNL     1     -11.155   7.967  67.621  1.00  0.00     0.000 HD 
HETATM   36  H2  UNL     1     -10.416   9.478  67.592  1.00  0.00     0.000 HD 
ENDBRANCH  32  33
ENDBRANCH  31  32
ENDBRANCH  29  31
ENDBRANCH  27  29
ENDBRANCH  11  27
ENDBRANCH   2   3
TORSDOF 9
ENDMDL
MODEL       92
REMARK 921   NORMALIZED FREE ENERGY PREDICTED BY IDOCK:   -5.97 KCAL/MOL
REMARK 922        TOTAL FREE ENERGY PREDICTED BY IDOCK:  -10.09 KCAL/MOL
REMARK 923 INTER-LIGAND FREE ENERGY PREDICTED BY IDOCK:   -8.39 KCAL/MOL
REMARK 924 INTRA-LIGAND FREE ENERGY PREDICTED BY IDOCK:   -1.69 KCAL/MOL
REMARK 927      BINDING AFFINITY PREDICTED BY RF-SCORE:    0.00 PKD
ROOT
HETATM    1  C   UNL     1      -9.379   3.945  65.646  1.00  0.00    -0.161 C  
HETATM    2  O   UNL     1      -8.616   4.689  66.591  1.00  0.00    -0.109 OA 
ENDROOT
BRANCH   2   3
HETATM    3  C   UNL     1      -9.317   5.746  67.131  1.00  0.00    -0.115 A  
HETATM    4  C   UNL     1     -10.015   5.500  68.287  1.00  0.00    -0.201 A  
HETATM    5  C   UNL     1     -10.672   6.570  68.907  1.00  0.00    -0.318 A  
HETATM    6  C   UNL     1     -10.468   7.901  68.420  1.00  0.00    -0.207 A  
HETATM    7  C   UNL     1     -11.674   6.228  69.979  1.00  0.00    -0.248 C  
HETATM    8  C   UNL     1     -10.746   9.145  69.084  1.00  0.00    -0.172 A  
HETATM    9  C   UNL     1     -10.831  10.338  68.343  1.00  0.00    -0.245 A  
HETATM   10  C   UNL     1      -9.924   7.980  67.114  1.00  0.00    -0.235 A  
HETATM   11  C   UNL     1      -9.997   9.182  66.382  1.00  0.00    -0.288 A  
HETATM   12  N   UNL     1      -9.342   6.930  66.501  1.00  0.00    -0.163 NA 
HETATM   13  C   UNL     1     -10.488  10.334  66.994  1.00  0.00    -0.304 A  
BRANCH   8  14
HETATM   14  O   UNL     1     -10.899   9.288  70.449  1.00  0.00    -0.224 OA 
BRANCH  14  15
HETATM   15  C   UNL     1      -9.930   8.941  71.369  1.00  0.00    -0.308 A  
HETATM   16  C   UNL     1     -10.450   8.300  72.502  1.00  0.00    -0.406 A  
HETATM   17  C   UNL     1      -9.611   7.623  73.384  1.00  0.00    -0.346 A  
HETATM   18  F   UNL     1      -6.059   7.754  70.379  1.00  0.00    -0.029 F  
HETATM   19  F   UNL     1      -5.613   7.128  72.405  1.00  0.00    -0.036 F  
HETATM   20  C   UNL     1      -8.243   7.573  73.131  1.00  0.00    -0.158 A  
HETATM   21  C   UNL     1      -8.545   9.034  71.214  1.00  0.00    -0.221 A  
HETATM   22  C   UNL     1      -6.236   8.104  71.684  1.00  0.00    -0.043 C  
HETATM   23  F   UNL     1      -5.507   9.235  71.874  1.00  0.00    -0.052 F  
HETATM   24  C   UNL     1      -7.696   8.269  72.041  1.00  0.00    -0.153 A  
ENDBRANCH  14  15
ENDBRANCH   8  14
BRANCH   9  25
HETATM   25  O   UNL     1     -11.161  11.590  68.797  1.00  0.00    -0.200 OA 
HETATM   26  C   UNL     1     -11.764  12.492  67.879  1.00  0.00    -0.359 C  
ENDBRANCH   9  25
BRANCH  11  27
HETATM   27  N   UNL     1      -9.501   9.207  65.060  1.00  0.00    -0.450 NA 
HETATM   28  H   UNL     1      -9.442   8.335  64.535  1.00  0.00     0.000 HD 
BRANCH  27  29
HETATM   29  C   UNL     1      -9.068  10.453  64.424  1.00  0.00    -0.234 C  
HETATM   30  C   UNL     1      -7.792  10.152  63.634  1.00  0.00    -0.154 C  
BRANCH  29  31
HETATM   31  C   UNL     1     -10.151  10.984  63.466  1.00  0.00    -0.428 C  
BRANCH  31  32
HETATM   32  C   UNL     1     -10.710  12.366  63.821  1.00  0.00    -0.492 C  
BRANCH  32  33
HETATM   33  C   UNL     1     -12.140  12.644  63.348  1.00  0.00    -0.525 C  
HETATM   34  N   UNL     1     -13.113  12.542  64.437  1.00  0.00    -0.807 NA 
HETATM   35  H1  UNL     1     -14.066  12.727  64.123  1.00  0.00     0.000 HD 
HETATM   36  H2  UNL     1     -12.859  13.148  65.217  1.00  0.00     0.000 HD 
ENDBRANCH  32  33
ENDBRANCH  31  32
ENDBRANCH  29  31
ENDBRANCH  27  29
ENDBRANCH  11  27
ENDBRANCH   2   3
TORSDOF 9
ENDMDL
MODEL       93
REMARK 921   NORMALIZED FREE ENERGY PREDICTED BY IDOCK:   -5.94 KCAL/MOL
REMARK 922        TOTAL FREE ENERGY PREDICTED BY IDOCK:  -10.04 KCAL/MOL
REMARK 923 INTER-LIGAND FREE ENERGY PREDICTED BY IDOCK:   -8.72 KCAL/MOL
REMARK 924 INTRA-LIGAND FREE ENERGY PREDICTED BY IDOCK:   -1.32 KCAL/MOL
REMARK 927      BINDING AFFINITY PREDICTED BY RF-SCORE:    0.00 PKD
ROOT
HETATM    1  C   UNL     1      -5.160   9.825  68.020  1.00  0.00    -0.032 C  
HETATM    2  O   UNL     1      -5.262  11.108  68.632  1.00  0.00    -0.041 OA 
ENDROOT
BRANCH   2   3
HETATM    3  C   UNL     1      -6.428  11.766  68.304  1.00  0.00    -0.051 A  
HETATM    4  C   UNL     1      -6.387  13.138  68.308  1.00  0.00    -0.096 A  
HETATM    5  C   UNL     1      -7.528  13.839  67.902  1.00  0.00    -0.153 A  
HETATM    6  C   UNL     1      -8.636  13.121  67.346  1.00  0.00    -0.204 A  
HETATM    7  C   UNL     1      -7.571  15.313  68.207  1.00  0.00    -0.112 C  
HETATM    8  C   UNL     1      -9.730  13.634  66.566  1.00  0.00    -0.292 A  
HETATM    9  C   UNL     1     -10.904  12.875  66.412  1.00  0.00    -0.274 A  
HETATM   10  C   UNL     1      -8.636  11.728  67.609  1.00  0.00    -0.153 A  
HETATM   11  C   UNL     1      -9.810  10.969  67.437  1.00  0.00    -0.173 A  
HETATM   12  N   UNL     1      -7.547  11.070  68.055  1.00  0.00    -0.090 NA 
HETATM   13  C   UNL     1     -10.941  11.564  66.879  1.00  0.00    -0.350 A  
BRANCH   8  14
HETATM   14  O   UNL     1      -9.713  14.838  65.890  1.00  0.00    -0.310 OA 
BRANCH  14  15
HETATM   15  C   UNL     1     -10.254  16.005  66.390  1.00  0.00    -0.305 A  
HETATM   16  C   UNL     1     -10.760  15.866  67.689  1.00  0.00    -0.312 A  
HETATM   17  C   UNL     1     -11.070  16.987  68.456  1.00  0.00    -0.156 A  
HETATM   18  F   UNL     1      -8.817  19.823  65.531  1.00  0.00    -0.207 F  
HETATM   19  F   UNL     1     -10.062  20.752  67.042  1.00  0.00    -0.584 F  
HETATM   20  C   UNL     1     -10.861  18.259  67.930  1.00  0.00    -0.232 A  
HETATM   21  C   UNL     1     -10.212  17.274  65.806  1.00  0.00    -0.212 A  
HETATM   22  C   UNL     1     -10.065  19.788  66.077  1.00  0.00    -0.477 C  
HETATM   23  F   UNL     1     -10.913  20.229  65.110  1.00  0.00    -0.481 F  
HETATM   24  C   UNL     1     -10.423  18.418  66.605  1.00  0.00    -0.415 A  
ENDBRANCH  14  15
ENDBRANCH   8  14
BRANCH   9  25
HETATM   25  O   UNL     1     -12.063  13.237  65.774  1.00  0.00    -0.393 OA 
HETATM   26  C   UNL     1     -12.347  12.635  64.518  1.00  0.00    -0.464 C  
ENDBRANCH   9  25
BRANCH  11  27
HETATM   27  N   UNL     1      -9.791   9.597  67.770  1.00  0.00    -0.153 NA 
HETATM   28  H   UNL     1      -9.175   8.969  67.253  1.00  0.00     0.000 HD 
BRANCH  27  29
HETATM   29  C   UNL     1     -10.633   9.052  68.836  1.00  0.00    -0.180 C  
HETATM   30  C   UNL     1     -10.259   7.578  69.015  1.00  0.00    -0.208 C  
BRANCH  29  31
HETATM   31  C   UNL     1     -10.397   9.805  70.159  1.00  0.00    -0.335 C  
BRANCH  31  32
HETATM   32  C   UNL     1     -11.669  10.176  70.930  1.00  0.00    -0.468 C  
BRANCH  32  33
HETATM   33  C   UNL     1     -12.447  11.378  70.385  1.00  0.00    -0.261 C  
HETATM   34  N   UNL     1     -11.591  12.550  70.192  1.00  0.00    -0.543 NA 
HETATM   35  H1  UNL     1     -12.109  13.351  69.829  1.00  0.00     0.000 HD 
HETATM   36  H2  UNL     1     -10.791  12.329  69.599  1.00  0.00     0.000 HD 
ENDBRANCH  32  33
ENDBRANCH  31  32
ENDBRANCH  29  31
ENDBRANCH  27  29
ENDBRANCH  11  27
ENDBRANCH   2   3
TORSDOF 9
ENDMDL
MODEL       94
REMARK 921   NORMALIZED FREE ENERGY PREDICTED BY IDOCK:   -5.94 KCAL/MOL
REMARK 922        TOTAL FREE ENERGY PREDICTED BY IDOCK:  -10.04 KCAL/MOL
REMARK 923 INTER-LIGAND FREE ENERGY PREDICTED BY IDOCK:   -8.94 KCAL/MOL
REMARK 924 INTRA-LIGAND FREE ENERGY PREDICTED BY IDOCK:   -1.10 KCAL/MOL
REMARK 927      BINDING AFFINITY PREDICTED BY RF-SCORE:    0.00 PKD
ROOT
HETATM    1  C   UNL     1      -6.966   9.898  70.259  1.00  0.00    -0.146 C  
HETATM    2  O   UNL     1      -5.970  10.821  69.829  1.00  0.00    -0.053 OA 
ENDROOT
BRANCH   2   3
HETATM    3  C   UNL     1      -6.504  11.978  69.303  1.00  0.00    -0.111 A  
HETATM    4  C   UNL     1      -5.918  13.160  69.682  1.00  0.00    -0.116 A  
HETATM    5  C   UNL     1      -6.382  14.348  69.105  1.00  0.00    -0.102 A  
HETATM    6  C   UNL     1      -7.328  14.288  68.031  1.00  0.00    -0.145 A  
HETATM    7  C   UNL     1      -5.952  15.637  69.754  1.00  0.00    -0.151 C  
HETATM    8  C   UNL     1      -7.669  15.315  67.085  1.00  0.00    -0.203 A  
HETATM    9  C   UNL     1      -8.858  15.222  66.338  1.00  0.00    -0.276 A  
HETATM   10  C   UNL     1      -8.004  13.049  67.901  1.00  0.00    -0.157 A  
HETATM   11  C   UNL     1      -9.185  12.956  67.138  1.00  0.00    -0.225 A  
HETATM   12  N   UNL     1      -7.582  11.920  68.507  1.00  0.00    -0.123 NA 
HETATM   13  C   UNL     1      -9.618  14.057  66.400  1.00  0.00    -0.299 A  
BRANCH   8  14
HETATM   14  O   UNL     1      -6.878  16.411  66.799  1.00  0.00    -0.210 OA 
BRANCH  14  15
HETATM   15  C   UNL     1      -7.219  17.708  67.127  1.00  0.00    -0.180 A  
HETATM   16  C   UNL     1      -6.454  18.666  66.449  1.00  0.00    -0.225 A  
HETATM   17  C   UNL     1      -6.847  20.003  66.426  1.00  0.00    -0.253 A  
HETATM   18  F   UNL     1     -11.086  18.967  68.046  1.00  0.00    -0.311 F  
HETATM   19  F   UNL     1     -10.535  21.062  67.995  1.00  0.00    -0.205 F  
HETATM   20  C   UNL     1      -8.018  20.387  67.072  1.00  0.00    -0.359 A  
HETATM   21  C   UNL     1      -8.294  18.126  67.916  1.00  0.00    -0.254 A  
HETATM   22  C   UNL     1     -10.098  19.836  68.403  1.00  0.00    -0.454 C  
HETATM   23  F   UNL     1     -10.098  19.870  69.762  1.00  0.00    -0.465 F  
HETATM   24  C   UNL     1      -8.758  19.454  67.817  1.00  0.00    -0.352 A  
ENDBRANCH  14  15
ENDBRANCH   8  14
BRANCH   9  25
HETATM   25  O   UNL     1      -9.373  16.138  65.458  1.00  0.00    -0.405 OA 
HETATM   26  C   UNL     1     -10.786  16.191  65.305  1.00  0.00    -0.368 C  
ENDBRANCH   9  25
BRANCH  11  27
HETATM   27  N   UNL     1      -9.867  11.721  67.083  1.00  0.00    -0.192 NA 
HETATM   28  H   UNL     1     -10.540  11.492  67.815  1.00  0.00     0.000 HD 
BRANCH  27  29
HETATM   29  C   UNL     1      -9.634  10.761  66.003  1.00  0.00    -0.201 C  
HETATM   30  C   UNL     1      -9.455   9.380  66.640  1.00  0.00    -0.230 C  
BRANCH  29  31
HETATM   31  C   UNL     1     -10.829  10.728  65.032  1.00  0.00    -0.055 C  
BRANCH  31  32
HETATM   32  C   UNL     1     -10.894  11.897  64.042  1.00  0.00    -0.438 C  
BRANCH  32  33
HETATM   33  C   UNL     1     -12.302  12.361  63.658  1.00  0.00    -0.548 C  
HETATM   34  N   UNL     1     -12.334  13.776  63.281  1.00  0.00    -1.124 NA 
HETATM   35  H1  UNL     1     -13.272  14.086  63.025  1.00  0.00     0.000 HD 
HETATM   36  H2  UNL     1     -11.665  13.975  62.538  1.00  0.00     0.000 HD 
ENDBRANCH  32  33
ENDBRANCH  31  32
ENDBRANCH  29  31
ENDBRANCH  27  29
ENDBRANCH  11  27
ENDBRANCH   2   3
TORSDOF 9
ENDMDL
MODEL       95
REMARK 921   NORMALIZED FREE ENERGY PREDICTED BY IDOCK:   -5.94 KCAL/MOL
REMARK 922        TOTAL FREE ENERGY PREDICTED BY IDOCK:  -10.04 KCAL/MOL
REMARK 923 INTER-LIGAND FREE ENERGY PREDICTED BY IDOCK:   -9.78 KCAL/MOL
REMARK 924 INTRA-LIGAND FREE ENERGY PREDICTED BY IDOCK:   -0.26 KCAL/MOL
REMARK 927      BINDING AFFINITY PREDICTED BY RF-SCORE:    0.00 PKD
ROOT
HETATM    1  C   UNL     1      -7.113   9.132  71.054  1.00  0.00    -0.098 C  
HETATM    2  O   UNL     1      -7.716   9.018  69.768  1.00  0.00    -0.069 OA 
ENDROOT
BRANCH   2   3
HETATM    3  C   UNL     1      -8.274  10.200  69.331  1.00  0.00    -0.166 A  
HETATM    4  C   UNL     1      -7.406  11.216  69.016  1.00  0.00    -0.120 A  
HETATM    5  C   UNL     1      -7.933  12.402  68.492  1.00  0.00    -0.110 A  
HETATM    6  C   UNL     1      -9.322  12.467  68.151  1.00  0.00    -0.209 A  
HETATM    7  C   UNL     1      -7.017  13.597  68.449  1.00  0.00    -0.104 C  
HETATM    8  C   UNL     1      -9.990  13.420  67.307  1.00  0.00    -0.232 A  
HETATM    9  C   UNL     1     -11.388  13.561  67.367  1.00  0.00    -0.311 A  
HETATM   10  C   UNL     1     -10.126  11.452  68.729  1.00  0.00    -0.188 A  
HETATM   11  C   UNL     1     -11.528  11.589  68.773  1.00  0.00    -0.287 A  
HETATM   12  N   UNL     1      -9.607  10.338  69.283  1.00  0.00    -0.216 NA 
HETATM   13  C   UNL     1     -12.136  12.664  68.126  1.00  0.00    -0.128 A  
BRANCH   8  14
HETATM   14  O   UNL     1      -9.358  14.214  66.370  1.00  0.00    -0.275 OA 
BRANCH  14  15
HETATM   15  C   UNL     1      -9.054  15.545  66.573  1.00  0.00    -0.302 A  
HETATM   16  C   UNL     1      -7.676  15.793  66.635  1.00  0.00    -0.140 A  
HETATM   17  C   UNL     1      -7.182  17.092  66.539  1.00  0.00    -0.311 A  
HETATM   18  F   UNL     1     -11.281  18.727  65.056  1.00  0.00    -0.178 F  
HETATM   19  F   UNL     1      -9.780  20.187  65.613  1.00  0.00    -0.464 F  
HETATM   20  C   UNL     1      -8.066  18.153  66.366  1.00  0.00    -0.291 A  
HETATM   21  C   UNL     1      -9.942  16.624  66.575  1.00  0.00    -0.296 A  
HETATM   22  C   UNL     1     -10.408  19.058  66.049  1.00  0.00    -0.446 C  
HETATM   23  F   UNL     1     -11.169  19.438  67.110  1.00  0.00    -0.558 F  
HETATM   24  C   UNL     1      -9.453  17.932  66.374  1.00  0.00    -0.278 A  
ENDBRANCH  14  15
ENDBRANCH   8  14
BRANCH   9  25
HETATM   25  O   UNL     1     -12.174  14.464  66.698  1.00  0.00    -0.424 OA 
HETATM   26  C   UNL     1     -12.773  14.048  65.478  1.00  0.00    -0.486 C  
ENDBRANCH   9  25
BRANCH  11  27
HETATM   27  N   UNL     1     -12.292  10.590  69.414  1.00  0.00    -0.668 NA 
HETATM   28  H   UNL     1     -12.782   9.899  68.846  1.00  0.00     0.000 HD 
BRANCH  27  29
HETATM   29  C   UNL     1     -12.399  10.520  70.872  1.00  0.00    -0.390 C  
HETATM   30  C   UNL     1     -13.007  11.839  71.356  1.00  0.00    -0.408 C  
BRANCH  29  31
HETATM   31  C   UNL     1     -13.305   9.350  71.299  1.00  0.00    -0.356 C  
BRANCH  31  32
HETATM   32  C   UNL     1     -12.594   8.221  72.055  1.00  0.00    -0.387 C  
BRANCH  32  33
HETATM   33  C   UNL     1     -12.258   6.978  71.226  1.00  0.00    -0.377 C  
HETATM   34  N   UNL     1     -11.792   7.319  69.880  1.00  0.00    -0.504 NA 
HETATM   35  H1  UNL     1     -11.568   6.491  69.328  1.00  0.00     0.000 HD 
HETATM   36  H2  UNL     1     -11.003   7.963  69.915  1.00  0.00     0.000 HD 
ENDBRANCH  32  33
ENDBRANCH  31  32
ENDBRANCH  29  31
ENDBRANCH  27  29
ENDBRANCH  11  27
ENDBRANCH   2   3
TORSDOF 9
ENDMDL
MODEL       96
REMARK 921   NORMALIZED FREE ENERGY PREDICTED BY IDOCK:   -5.92 KCAL/MOL
REMARK 922        TOTAL FREE ENERGY PREDICTED BY IDOCK:  -10.01 KCAL/MOL
REMARK 923 INTER-LIGAND FREE ENERGY PREDICTED BY IDOCK:   -8.44 KCAL/MOL
REMARK 924 INTRA-LIGAND FREE ENERGY PREDICTED BY IDOCK:   -1.57 KCAL/MOL
REMARK 927      BINDING AFFINITY PREDICTED BY RF-SCORE:    0.00 PKD
ROOT
HETATM    1  C   UNL     1     -13.143  11.751  63.567  1.00  0.00     0.084 C  
HETATM    2  O   UNL     1     -13.156  12.517  64.768  1.00  0.00    -0.853 OA 
ENDROOT
BRANCH   2   3
HETATM    3  C   UNL     1     -11.892  12.817  65.226  1.00  0.00    -0.403 A  
HETATM    4  C   UNL     1     -11.480  14.121  65.099  1.00  0.00    -0.336 A  
HETATM    5  C   UNL     1     -10.234  14.478  65.626  1.00  0.00    -0.379 A  
HETATM    6  C   UNL     1      -9.503  13.532  66.415  1.00  0.00    -0.236 A  
HETATM    7  C   UNL     1      -9.671  15.812  65.208  1.00  0.00    -0.005 C  
HETATM    8  C   UNL     1      -8.410  13.778  67.317  1.00  0.00    -0.174 A  
HETATM    9  C   UNL     1      -7.579  12.719  67.725  1.00  0.00    -0.141 A  
HETATM   10  C   UNL     1      -9.926  12.187  66.274  1.00  0.00    -0.229 A  
HETATM   11  C   UNL     1      -9.097  11.129  66.699  1.00  0.00    -0.170 A  
HETATM   12  N   UNL     1     -11.104  11.847  65.713  1.00  0.00    -0.316 NA 
HETATM   13  C   UNL     1      -7.915  11.411  67.383  1.00  0.00    -0.139 A  
BRANCH   8  14
HETATM   14  O   UNL     1      -8.118  15.006  67.877  1.00  0.00    -0.124 OA 
BRANCH  14  15
HETATM   15  C   UNL     1      -8.992  15.709  68.680  1.00  0.00    -0.202 A  
HETATM   16  C   UNL     1      -9.215  17.020  68.238  1.00  0.00    -0.255 A  
HETATM   17  C   UNL     1     -10.275  17.770  68.741  1.00  0.00    -0.373 A  
HETATM   18  F   UNL     1     -12.242  14.018  70.670  1.00  0.00    -0.351 F  
HETATM   19  F   UNL     1     -13.047  15.951  71.229  1.00  0.00    -0.512 F  
HETATM   20  C   UNL     1     -11.130  17.207  69.684  1.00  0.00     0.438 A  
HETATM   21  C   UNL     1      -9.744  15.213  69.749  1.00  0.00    -0.093 A  
HETATM   22  C   UNL     1     -11.879  15.256  71.111  1.00  0.00    -0.348 C  
HETATM   23  F   UNL     1     -11.414  15.085  72.376  1.00  0.00    -0.464 F  
HETATM   24  C   UNL     1     -10.880  15.922  70.192  1.00  0.00    -0.359 A  
ENDBRANCH  14  15
ENDBRANCH   8  14
BRANCH   9  25
HETATM   25  O   UNL     1      -6.457  12.783  68.511  1.00  0.00    -0.071 OA 
HETATM   26  C   UNL     1      -6.399  11.944  69.657  1.00  0.00    -0.124 C  
ENDBRANCH   9  25
BRANCH  11  27
HETATM   27  N   UNL     1      -9.522   9.800  66.485  1.00  0.00    -0.167 NA 
HETATM   28  H   UNL     1      -9.064   9.242  65.764  1.00  0.00     0.000 HD 
BRANCH  27  29
HETATM   29  C   UNL     1     -10.603   9.202  67.269  1.00  0.00    -0.233 C  
HETATM   30  C   UNL     1     -10.522   7.684  67.090  1.00  0.00    -0.412 C  
BRANCH  29  31
HETATM   31  C   UNL     1     -10.455   9.551  68.762  1.00  0.00    -0.243 C  
BRANCH  31  32
HETATM   32  C   UNL     1     -11.543  10.473  69.325  1.00  0.00    -0.308 C  
BRANCH  32  33
HETATM   33  C   UNL     1     -11.948  10.209  70.778  1.00  0.00    -0.348 C  
HETATM   34  N   UNL     1     -13.299   9.655  70.884  1.00  0.00    -0.596 NA 
HETATM   35  H1  UNL     1     -13.569   9.479  71.852  1.00  0.00     0.000 HD 
HETATM   36  H2  UNL     1     -13.399   8.814  70.316  1.00  0.00     0.000 HD 
ENDBRANCH  32  33
ENDBRANCH  31  32
ENDBRANCH  29  31
ENDBRANCH  27  29
ENDBRANCH  11  27
ENDBRANCH   2   3
TORSDOF 9
ENDMDL
MODEL       97
REMARK 921   NORMALIZED FREE ENERGY PREDICTED BY IDOCK:   -5.91 KCAL/MOL
REMARK 922        TOTAL FREE ENERGY PREDICTED BY IDOCK:   -9.99 KCAL/MOL
REMARK 923 INTER-LIGAND FREE ENERGY PREDICTED BY IDOCK:   -8.82 KCAL/MOL
REMARK 924 INTRA-LIGAND FREE ENERGY PREDICTED BY IDOCK:   -1.17 KCAL/MOL
REMARK 927      BINDING AFFINITY PREDICTED BY RF-SCORE:    0.00 PKD
ROOT
HETATM    1  C   UNL     1      -5.255   5.887  68.327  1.00  0.00    -0.004 C  
HETATM    2  O   UNL     1      -5.323   7.199  67.776  1.00  0.00    -0.018 OA 
ENDROOT
BRANCH   2   3
HETATM    3  C   UNL     1      -6.547   7.800  67.973  1.00  0.00    -0.056 A  
HETATM    4  C   UNL     1      -6.909   8.059  69.272  1.00  0.00    -0.048 A  
HETATM    5  C   UNL     1      -8.109   8.741  69.505  1.00  0.00    -0.105 A  
HETATM    6  C   UNL     1      -8.837   9.286  68.399  1.00  0.00    -0.129 A  
HETATM    7  C   UNL     1      -8.634   8.738  70.917  1.00  0.00    -0.229 C  
HETATM    8  C   UNL     1      -9.869  10.287  68.417  1.00  0.00    -0.156 A  
HETATM    9  C   UNL     1     -10.722  10.443  67.310  1.00  0.00    -0.273 A  
HETATM   10  C   UNL     1      -8.481   8.758  67.133  1.00  0.00    -0.110 A  
HETATM   11  C   UNL     1      -9.331   8.930  66.022  1.00  0.00    -0.242 A  
HETATM   12  N   UNL     1      -7.350   8.053  66.929  1.00  0.00    -0.088 NA 
HETATM   13  C   UNL     1     -10.462   9.737  66.138  1.00  0.00    -0.128 A  
BRANCH   8  14
HETATM   14  O   UNL     1     -10.078  11.178  69.452  1.00  0.00    -0.111 OA 
BRANCH  14  15
HETATM   15  C   UNL     1     -11.286  11.327  70.102  1.00  0.00    -0.164 A  
HETATM   16  C   UNL     1     -11.771  10.131  70.647  1.00  0.00    -0.425 A  
HETATM   17  C   UNL     1     -12.809  10.141  71.576  1.00  0.00    -0.548 A  
HETATM   18  F   UNL     1     -12.412  14.734  72.225  1.00  0.00    -0.344 F  
HETATM   19  F   UNL     1     -14.157  13.766  73.070  1.00  0.00    -0.364 F  
HETATM   20  C   UNL     1     -13.360  11.355  71.978  1.00  0.00    -0.388 A  
HETATM   21  C   UNL     1     -11.956  12.522  70.376  1.00  0.00    -0.335 A  
HETATM   22  C   UNL     1     -13.432  13.884  71.920  1.00  0.00    -0.427 C  
HETATM   23  F   UNL     1     -14.228  14.549  71.041  1.00  0.00    -0.394 F  
HETATM   24  C   UNL     1     -12.936  12.558  71.390  1.00  0.00    -0.347 A  
ENDBRANCH  14  15
ENDBRANCH   8  14
BRANCH   9  25
HETATM   25  O   UNL     1     -11.797  11.285  67.187  1.00  0.00    -0.524 OA 
HETATM   26  C   UNL     1     -11.584  12.550  66.575  1.00  0.00    -0.388 C  
ENDBRANCH   9  25
BRANCH  11  27
HETATM   27  N   UNL     1      -8.975   8.336  64.792  1.00  0.00    -0.378 NA 
HETATM   28  H   UNL     1      -9.295   7.389  64.587  1.00  0.00     0.000 HD 
BRANCH  27  29
HETATM   29  C   UNL     1      -8.160   9.043  63.803  1.00  0.00    -0.164 C  
HETATM   30  C   UNL     1      -7.155   8.041  63.228  1.00  0.00    -0.087 C  
BRANCH  29  31
HETATM   31  C   UNL     1      -9.037   9.599  62.666  1.00  0.00    -0.267 C  
BRANCH  31  32
HETATM   32  C   UNL     1      -8.997  11.123  62.502  1.00  0.00    -0.347 C  
BRANCH  32  33
HETATM   33  C   UNL     1     -10.074  11.900  63.265  1.00  0.00    -0.396 C  
HETATM   34  N   UNL     1     -11.395  11.280  63.145  1.00  0.00    -0.836 NA 
HETATM   35  H1  UNL     1     -12.112  11.797  63.653  1.00  0.00     0.000 HD 
HETATM   36  H2  UNL     1     -11.371  10.302  63.433  1.00  0.00     0.000 HD 
ENDBRANCH  32  33
ENDBRANCH  31  32
ENDBRANCH  29  31
ENDBRANCH  27  29
ENDBRANCH  11  27
ENDBRANCH   2   3
TORSDOF 9
ENDMDL
MODEL       98
REMARK 921   NORMALIZED FREE ENERGY PREDICTED BY IDOCK:   -5.89 KCAL/MOL
REMARK 922        TOTAL FREE ENERGY PREDICTED BY IDOCK:   -9.97 KCAL/MOL
REMARK 923 INTER-LIGAND FREE ENERGY PREDICTED BY IDOCK:   -9.18 KCAL/MOL
REMARK 924 INTRA-LIGAND FREE ENERGY PREDICTED BY IDOCK:   -0.79 KCAL/MOL
REMARK 927      BINDING AFFINITY PREDICTED BY RF-SCORE:    0.00 PKD
ROOT
HETATM    1  C   UNL     1     -12.702  11.899  63.366  1.00  0.00    -0.366 C  
HETATM    2  O   UNL     1     -13.057  12.355  64.669  1.00  0.00    -0.825 OA 
ENDROOT
BRANCH   2   3
HETATM    3  C   UNL     1     -11.984  12.866  65.367  1.00  0.00    -0.426 A  
HETATM    4  C   UNL     1     -12.048  14.192  65.719  1.00  0.00    -0.433 A  
HETATM    5  C   UNL     1     -11.014  14.723  66.499  1.00  0.00    -0.325 A  
HETATM    6  C   UNL     1     -10.017  13.849  67.039  1.00  0.00    -0.258 A  
HETATM    7  C   UNL     1     -10.941  16.224  66.607  1.00  0.00    -0.016 C  
HETATM    8  C   UNL     1      -9.096  14.102  68.113  1.00  0.00    -0.193 A  
HETATM    9  C   UNL     1      -7.958  13.292  68.275  1.00  0.00    -0.144 A  
HETATM   10  C   UNL     1      -9.943  12.575  66.421  1.00  0.00    -0.252 A  
HETATM   11  C   UNL     1      -8.808  11.759  66.600  1.00  0.00    -0.189 A  
HETATM   12  N   UNL     1     -10.919  12.093  65.625  1.00  0.00    -0.285 NA 
HETATM   13  C   UNL     1      -7.812  12.149  67.493  1.00  0.00    -0.162 A  
BRANCH   8  14
HETATM   14  O   UNL     1      -9.259  15.086  69.069  1.00  0.00    -0.201 OA 
BRANCH  14  15
HETATM   15  C   UNL     1      -8.830  16.389  68.909  1.00  0.00    -0.256 A  
HETATM   16  C   UNL     1      -7.475  16.485  68.566  1.00  0.00    -0.193 A  
HETATM   17  C   UNL     1      -6.947  17.679  68.081  1.00  0.00    -0.210 A  
HETATM   18  F   UNL     1     -11.185  19.473  67.387  1.00  0.00    -0.578 F  
HETATM   19  F   UNL     1      -9.503  20.830  67.230  1.00  0.00    -0.539 F  
HETATM   20  C   UNL     1      -7.777  18.785  67.924  1.00  0.00    -0.278 A  
HETATM   21  C   UNL     1      -9.616  17.544  68.914  1.00  0.00    -0.224 A  
HETATM   22  C   UNL     1     -10.057  19.878  68.035  1.00  0.00    -0.440 C  
HETATM   23  F   UNL     1     -10.476  20.529  69.152  1.00  0.00    -0.431 F  
HETATM   24  C   UNL     1      -9.121  18.729  68.330  1.00  0.00    -0.372 A  
ENDBRANCH  14  15
ENDBRANCH   8  14
BRANCH   9  25
HETATM   25  O   UNL     1      -6.944  13.436  69.187  1.00  0.00    -0.104 OA 
HETATM   26  C   UNL     1      -5.609  13.266  68.729  1.00  0.00    -0.073 C  
ENDBRANCH   9  25
BRANCH  11  27
HETATM   27  N   UNL     1      -8.741  10.524  65.918  1.00  0.00    -0.161 NA 
HETATM   28  H   UNL     1      -8.717  10.520  64.898  1.00  0.00     0.000 HD 
BRANCH  27  29
HETATM   29  C   UNL     1      -8.707   9.250  66.637  1.00  0.00    -0.127 C  
HETATM   30  C   UNL     1     -10.147   8.743  66.754  1.00  0.00    -0.359 C  
BRANCH  29  31
HETATM   31  C   UNL     1      -7.859   8.214  65.876  1.00  0.00    -0.094 C  
BRANCH  31  32
HETATM   32  C   UNL     1      -7.181   8.738  64.604  1.00  0.00    -0.095 C  
BRANCH  32  33
HETATM   33  C   UNL     1      -7.845   8.333  63.285  1.00  0.00    -0.149 C  
HETATM   34  N   UNL     1      -9.033   9.139  62.993  1.00  0.00    -0.422 NA 
HETATM   35  H1  UNL     1      -9.476   8.870  62.115  1.00  0.00     0.000 HD 
HETATM   36  H2  UNL     1      -8.816  10.135  63.007  1.00  0.00     0.000 HD 
ENDBRANCH  32  33
ENDBRANCH  31  32
ENDBRANCH  29  31
ENDBRANCH  27  29
ENDBRANCH  11  27
ENDBRANCH   2   3
TORSDOF 9
ENDMDL
MODEL       99
REMARK 921   NORMALIZED FREE ENERGY PREDICTED BY IDOCK:   -5.89 KCAL/MOL
REMARK 922        TOTAL FREE ENERGY PREDICTED BY IDOCK:   -9.95 KCAL/MOL
REMARK 923 INTER-LIGAND FREE ENERGY PREDICTED BY IDOCK:   -8.51 KCAL/MOL
REMARK 924 INTRA-LIGAND FREE ENERGY PREDICTED BY IDOCK:   -1.44 KCAL/MOL
REMARK 927      BINDING AFFINITY PREDICTED BY RF-SCORE:    0.00 PKD
ROOT
HETATM    1  C   UNL     1      -5.285  16.515  69.749  1.00  0.00    -0.149 C  
HETATM    2  O   UNL     1      -6.689  16.760  69.770  1.00  0.00    -0.174 OA 
ENDROOT
BRANCH   2   3
HETATM    3  C   UNL     1      -7.390  15.929  68.923  1.00  0.00    -0.167 A  
HETATM    4  C   UNL     1      -7.228  14.578  69.105  1.00  0.00    -0.138 A  
HETATM    5  C   UNL     1      -7.986  13.705  68.317  1.00  0.00    -0.150 A  
HETATM    6  C   UNL     1      -9.013  14.231  67.469  1.00  0.00    -0.197 A  
HETATM    7  C   UNL     1      -7.573  12.256  68.309  1.00  0.00    -0.133 C  
HETATM    8  C   UNL     1     -10.111  13.532  66.858  1.00  0.00    -0.256 A  
HETATM    9  C   UNL     1     -10.805  14.109  65.780  1.00  0.00    -0.297 A  
HETATM   10  C   UNL     1      -8.918  15.621  67.211  1.00  0.00    -0.199 A  
HETATM   11  C   UNL     1      -9.628  16.199  66.139  1.00  0.00    -0.327 A  
HETATM   12  N   UNL     1      -8.141  16.448  67.940  1.00  0.00    -0.156 NA 
HETATM   13  C   UNL     1     -10.531  15.425  65.412  1.00  0.00    -0.426 A  
BRANCH   8  14
HETATM   14  O   UNL     1     -10.594  12.309  67.282  1.00  0.00    -0.219 OA 
BRANCH  14  15
HETATM   15  C   UNL     1     -10.016  11.100  66.952  1.00  0.00    -0.198 A  
HETATM   16  C   UNL     1     -10.409  10.053  67.795  1.00  0.00    -0.261 A  
HETATM   17  C   UNL     1     -10.167   8.727  67.444  1.00  0.00    -0.318 A  
HETATM   18  F   UNL     1      -9.127   9.900  63.060  1.00  0.00    -0.206 F  
HETATM   19  F   UNL     1      -8.676   7.870  63.671  1.00  0.00     0.048 F  
HETATM   20  C   UNL     1      -9.539   8.440  66.235  1.00  0.00    -0.286 A  
HETATM   21  C   UNL     1      -9.235  10.816  65.830  1.00  0.00    -0.215 A  
HETATM   22  C   UNL     1      -8.517   9.173  64.039  1.00  0.00    -0.184 C  
HETATM   23  F   UNL     1      -7.187   9.434  63.930  1.00  0.00    -0.095 F  
HETATM   24  C   UNL     1      -9.073   9.478  65.411  1.00  0.00    -0.273 A  
ENDBRANCH  14  15
ENDBRANCH   8  14
BRANCH   9  25
HETATM   25  O   UNL     1     -11.815  13.557  65.035  1.00  0.00    -0.328 OA 
HETATM   26  C   UNL     1     -11.467  12.916  63.814  1.00  0.00    -0.459 C  
ENDBRANCH   9  25
BRANCH  11  27
HETATM   27  N   UNL     1      -9.460  17.576  65.872  1.00  0.00    -0.527 NA 
HETATM   28  H   UNL     1      -8.585  17.898  65.458  1.00  0.00     0.000 HD 
BRANCH  27  29
HETATM   29  C   UNL     1     -10.508  18.552  66.174  1.00  0.00    -0.413 C  
HETATM   30  C   UNL     1     -10.907  18.365  67.641  1.00  0.00    -0.295 C  
BRANCH  29  31
HETATM   31  C   UNL     1      -9.996  19.989  65.960  1.00  0.00    -0.542 C  
BRANCH  31  32
HETATM   32  C   UNL     1      -9.354  20.639  67.191  1.00  0.00    -0.464 C  
BRANCH  32  33
HETATM   33  C   UNL     1      -7.822  20.659  67.206  1.00  0.00    -0.291 C  
HETATM   34  N   UNL     1      -7.254  19.335  67.467  1.00  0.00    -0.220 NA 
HETATM   35  H1  UNL     1      -6.235  19.348  67.477  1.00  0.00     0.000 HD 
HETATM   36  H2  UNL     1      -7.607  18.645  66.804  1.00  0.00     0.000 HD 
ENDBRANCH  32  33
ENDBRANCH  31  32
ENDBRANCH  29  31
ENDBRANCH  27  29
ENDBRANCH  11  27
ENDBRANCH   2   3
TORSDOF 9
ENDMDL
MODEL      100
REMARK 921   NORMALIZED FREE ENERGY PREDICTED BY IDOCK:   -5.88 KCAL/MOL
REMARK 922        TOTAL FREE ENERGY PREDICTED BY IDOCK:   -9.94 KCAL/MOL
REMARK 923 INTER-LIGAND FREE ENERGY PREDICTED BY IDOCK:   -8.34 KCAL/MOL
REMARK 924 INTRA-LIGAND FREE ENERGY PREDICTED BY IDOCK:   -1.60 KCAL/MOL
REMARK 927      BINDING AFFINITY PREDICTED BY RF-SCORE:    0.00 PKD
ROOT
HETATM    1  C   UNL     1      -9.881   7.747  70.994  1.00  0.00    -0.174 C  
HETATM    2  O   UNL     1      -9.023   8.227  69.963  1.00  0.00    -0.140 OA 
ENDROOT
BRANCH   2   3
HETATM    3  C   UNL     1      -9.668   9.063  69.077  1.00  0.00    -0.167 A  
HETATM    4  C   UNL     1     -10.554   9.966  69.609  1.00  0.00    -0.273 A  
HETATM    5  C   UNL     1     -11.166  10.884  68.748  1.00  0.00    -0.329 A  
HETATM    6  C   UNL     1     -10.737  10.965  67.384  1.00  0.00    -0.305 A  
HETATM    7  C   UNL     1     -12.349  11.644  69.287  1.00  0.00    -0.088 C  
HETATM    8  C   UNL     1     -10.963  12.027  66.440  1.00  0.00    -0.296 A  
HETATM    9  C   UNL     1     -10.797  11.795  65.063  1.00  0.00    -0.295 A  
HETATM   10  C   UNL     1      -9.999   9.847  66.923  1.00  0.00    -0.212 A  
HETATM   11  C   UNL     1      -9.821   9.627  65.543  1.00  0.00    -0.281 A  
HETATM   12  N   UNL     1      -9.460   8.935  67.758  1.00  0.00    -0.140 NA 
HETATM   13  C   UNL     1     -10.259  10.585  64.630  1.00  0.00    -0.364 A  
BRANCH   8  14
HETATM   14  O   UNL     1     -11.299  13.321  66.783  1.00  0.00    -0.304 OA 
BRANCH  14  15
HETATM   15  C   UNL     1     -10.388  14.259  67.225  1.00  0.00    -0.260 A  
HETATM   16  C   UNL     1      -9.063  13.935  66.903  1.00  0.00    -0.257 A  
HETATM   17  C   UNL     1      -8.053  14.889  67.002  1.00  0.00    -0.200 A  
HETATM   18  F   UNL     1     -11.130  18.357  67.414  1.00  0.00    -0.415 F  
HETATM   19  F   UNL     1      -9.055  18.827  67.825  1.00  0.00    -0.282 F  
HETATM   20  C   UNL     1      -8.366  16.182  67.413  1.00  0.00    -0.191 A  
HETATM   21  C   UNL     1     -10.665  15.502  67.800  1.00  0.00    -0.297 A  
HETATM   22  C   UNL     1     -10.045  17.937  68.123  1.00  0.00    -0.366 C  
HETATM   23  F   UNL     1     -10.348  18.137  69.433  1.00  0.00    -0.356 F  
HETATM   24  C   UNL     1      -9.674  16.505  67.809  1.00  0.00    -0.235 A  
ENDBRANCH  14  15
ENDBRANCH   8  14
BRANCH   9  25
HETATM   25  O   UNL     1     -11.041  12.661  64.027  1.00  0.00    -0.349 OA 
HETATM   26  C   UNL     1     -12.283  12.548  63.346  1.00  0.00    -0.517 C  
ENDBRANCH   9  25
BRANCH  11  27
HETATM   27  N   UNL     1      -9.134   8.469  65.119  1.00  0.00    -0.426 NA 
HETATM   28  H   UNL     1      -9.525   7.552  65.335  1.00  0.00     0.000 HD 
BRANCH  27  29
HETATM   29  C   UNL     1      -7.875   8.549  64.376  1.00  0.00    -0.140 C  
HETATM   30  C   UNL     1      -6.732   8.381  65.381  1.00  0.00    -0.056 C  
BRANCH  29  31
HETATM   31  C   UNL     1      -7.793   7.436  63.314  1.00  0.00    -0.122 C  
BRANCH  31  32
HETATM   32  C   UNL     1      -7.037   6.177  63.751  1.00  0.00    -0.053 C  
BRANCH  32  33
HETATM   33  C   UNL     1      -7.909   4.965  64.095  1.00  0.00    -0.092 C  
HETATM   34  N   UNL     1      -9.195   5.357  64.675  1.00  0.00    -0.355 NA 
HETATM   35  H1  UNL     1      -9.777   4.551  64.904  1.00  0.00     0.000 HD 
HETATM   36  H2  UNL     1      -9.691   6.008  64.067  1.00  0.00     0.000 HD 
ENDBRANCH  32  33
ENDBRANCH  31  32
ENDBRANCH  29  31
ENDBRANCH  27  29
ENDBRANCH  11  27
ENDBRANCH   2   3
TORSDOF 9
ENDMDL
MODEL      101
REMARK 921   NORMALIZED FREE ENERGY PREDICTED BY IDOCK:   -5.85 KCAL/MOL
REMARK 922        TOTAL FREE ENERGY PREDICTED BY IDOCK:   -9.89 KCAL/MOL
REMARK 923 INTER-LIGAND FREE ENERGY PREDICTED BY IDOCK:   -8.55 KCAL/MOL
REMARK 924 INTRA-LIGAND FREE ENERGY PREDICTED BY IDOCK:   -1.35 KCAL/MOL
REMARK 927      BINDING AFFINITY PREDICTED BY RF-SCORE:    0.00 PKD
ROOT
HETATM    1  C   UNL     1     -12.891  11.919  63.301  1.00  0.00    -0.161 C  
HETATM    2  O   UNL     1     -11.697  11.493  63.952  1.00  0.00    -0.327 OA 
ENDROOT
BRANCH   2   3
HETATM    3  C   UNL     1     -11.088  12.501  64.667  1.00  0.00    -0.306 A  
HETATM    4  C   UNL     1     -11.439  13.789  64.344  1.00  0.00    -0.392 A  
HETATM    5  C   UNL     1     -10.902  14.835  65.104  1.00  0.00    -0.417 A  
HETATM    6  C   UNL     1     -10.144  14.534  66.281  1.00  0.00    -0.308 A  
HETATM    7  C   UNL     1     -11.045  16.228  64.548  1.00  0.00    -0.174 C  
HETATM    8  C   UNL     1      -9.804  15.409  67.370  1.00  0.00    -0.216 A  
HETATM    9  C   UNL     1      -8.764  15.067  68.254  1.00  0.00    -0.166 A  
HETATM   10  C   UNL     1      -9.676  13.199  66.364  1.00  0.00    -0.269 A  
HETATM   11  C   UNL     1      -8.646  12.857  67.262  1.00  0.00    -0.205 A  
HETATM   12  N   UNL     1     -10.159  12.207  65.588  1.00  0.00    -0.244 NA 
HETATM   13  C   UNL     1      -8.175  13.808  68.167  1.00  0.00    -0.160 A  
BRANCH   8  14
HETATM   14  O   UNL     1     -10.465  16.585  67.666  1.00  0.00    -0.291 OA 
BRANCH  14  15
HETATM   15  C   UNL     1     -10.070  17.824  67.202  1.00  0.00    -0.338 A  
HETATM   16  C   UNL     1     -10.889  18.868  67.652  1.00  0.00    -0.407 A  
HETATM   17  C   UNL     1     -10.481  20.194  67.532  1.00  0.00    -0.422 A  
HETATM   18  F   UNL     1      -6.107  18.941  66.549  1.00  0.00    -0.168 F  
HETATM   19  F   UNL     1      -6.627  21.023  66.248  1.00  0.00    -0.286 F  
HETATM   20  C   UNL     1      -9.240  20.484  66.972  1.00  0.00    -0.446 A  
HETATM   21  C   UNL     1      -8.910  18.127  66.486  1.00  0.00    -0.286 A  
HETATM   22  C   UNL     1      -7.036  19.752  65.968  1.00  0.00    -0.268 C  
HETATM   23  F   UNL     1      -6.887  19.597  64.626  1.00  0.00    -0.229 F  
HETATM   24  C   UNL     1      -8.438  19.457  66.450  1.00  0.00    -0.361 A  
ENDBRANCH  14  15
ENDBRANCH   8  14
BRANCH   9  25
HETATM   25  O   UNL     1      -8.260  15.812  69.290  1.00  0.00    -0.228 OA 
HETATM   26  C   UNL     1      -6.980  16.407  69.119  1.00  0.00    -0.218 C  
ENDBRANCH   9  25
BRANCH  11  27
HETATM   27  N   UNL     1      -8.161  11.531  67.273  1.00  0.00    -0.145 NA 
HETATM   28  H   UNL     1      -7.615  11.195  66.479  1.00  0.00     0.000 HD 
BRANCH  27  29
HETATM   29  C   UNL     1      -8.421  10.626  68.393  1.00  0.00    -0.132 C  
HETATM   30  C   UNL     1      -9.478   9.615  67.938  1.00  0.00    -0.148 C  
BRANCH  29  31
HETATM   31  C   UNL     1      -7.139   9.878  68.803  1.00  0.00    -0.067 C  
BRANCH  31  32
HETATM   32  C   UNL     1      -6.856   9.851  70.309  1.00  0.00    -0.138 C  
BRANCH  32  33
HETATM   33  C   UNL     1      -5.753  10.797  70.794  1.00  0.00    -0.099 C  
HETATM   34  N   UNL     1      -6.147  12.204  70.689  1.00  0.00    -0.523 NA 
HETATM   35  H1  UNL     1      -5.413  12.835  71.012  1.00  0.00     0.000 HD 
HETATM   36  H2  UNL     1      -7.024  12.380  71.178  1.00  0.00     0.000 HD 
ENDBRANCH  32  33
ENDBRANCH  31  32
ENDBRANCH  29  31
ENDBRANCH  27  29
ENDBRANCH  11  27
ENDBRANCH   2   3
TORSDOF 9
ENDMDL
MODEL      102
REMARK 921   NORMALIZED FREE ENERGY PREDICTED BY IDOCK:   -5.85 KCAL/MOL
REMARK 922        TOTAL FREE ENERGY PREDICTED BY IDOCK:   -9.89 KCAL/MOL
REMARK 923 INTER-LIGAND FREE ENERGY PREDICTED BY IDOCK:   -8.18 KCAL/MOL
REMARK 924 INTRA-LIGAND FREE ENERGY PREDICTED BY IDOCK:   -1.72 KCAL/MOL
REMARK 927      BINDING AFFINITY PREDICTED BY RF-SCORE:    0.00 PKD
ROOT
HETATM    1  C   UNL     1      -9.695   7.685  73.434  1.00  0.00    -0.304 C  
HETATM    2  O   UNL     1      -8.892   8.373  72.480  1.00  0.00    -0.210 OA 
ENDROOT
BRANCH   2   3
HETATM    3  C   UNL     1      -9.630   8.912  71.448  1.00  0.00    -0.289 A  
HETATM    4  C   UNL     1     -10.919   9.286  71.737  1.00  0.00    -0.383 A  
HETATM    5  C   UNL     1     -11.670   9.911  70.735  1.00  0.00    -0.424 A  
HETATM    6  C   UNL     1     -11.036  10.286  69.507  1.00  0.00    -0.310 A  
HETATM    7  C   UNL     1     -13.155  10.027  70.965  1.00  0.00    -0.435 C  
HETATM    8  C   UNL     1     -11.498  11.215  68.512  1.00  0.00    -0.302 A  
HETATM    9  C   UNL     1     -10.949  11.195  67.217  1.00  0.00    -0.296 A  
HETATM   10  C   UNL     1      -9.795   9.648  69.259  1.00  0.00    -0.189 A  
HETATM   11  C   UNL     1      -9.240   9.645  67.963  1.00  0.00    -0.125 A  
HETATM   12  N   UNL     1      -9.104   8.999  70.217  1.00  0.00    -0.184 NA 
HETATM   13  C   UNL     1      -9.848  10.385  66.951  1.00  0.00    -0.236 A  
BRANCH   8  14
HETATM   14  O   UNL     1     -12.443  12.197  68.736  1.00  0.00    -0.022 OA 
BRANCH  14  15
HETATM   15  C   UNL     1     -12.133  13.485  69.124  1.00  0.00    -0.288 A  
HETATM   16  C   UNL     1     -12.172  13.667  70.512  1.00  0.00    -0.438 A  
HETATM   17  C   UNL     1     -11.610  14.799  71.098  1.00  0.00    -0.320 A  
HETATM   18  F   UNL     1      -9.383  15.935  67.170  1.00  0.00    -0.203 F  
HETATM   19  F   UNL     1      -9.416  17.418  68.749  1.00  0.00    -0.261 F  
HETATM   20  C   UNL     1     -10.991  15.753  70.294  1.00  0.00    -0.368 A  
HETATM   21  C   UNL     1     -11.668  14.523  68.312  1.00  0.00    -0.368 A  
HETATM   22  C   UNL     1     -10.219  16.581  68.031  1.00  0.00    -0.271 C  
HETATM   23  F   UNL     1     -11.006  17.382  67.265  1.00  0.00    -0.295 F  
HETATM   24  C   UNL     1     -11.006  15.623  68.896  1.00  0.00    -0.266 A  
ENDBRANCH  14  15
ENDBRANCH   8  14
BRANCH   9  25
HETATM   25  O   UNL     1     -11.320  11.949  66.133  1.00  0.00    -0.332 OA 
HETATM   26  C   UNL     1     -10.306  12.673  65.449  1.00  0.00    -0.291 C  
ENDBRANCH   9  25
BRANCH  11  27
HETATM   27  N   UNL     1      -8.034   8.945  67.739  1.00  0.00    -0.102 NA 
HETATM   28  H   UNL     1      -7.176   9.281  68.175  1.00  0.00     0.000 HD 
BRANCH  27  29
HETATM   29  C   UNL     1      -7.984   7.750  66.895  1.00  0.00    -0.112 C  
HETATM   30  C   UNL     1      -6.718   7.838  66.039  1.00  0.00    -0.049 C  
BRANCH  29  31
HETATM   31  C   UNL     1      -7.933   6.474  67.756  1.00  0.00    -0.115 C  
BRANCH  31  32
HETATM   32  C   UNL     1      -9.265   5.725  67.886  1.00  0.00    -0.108 C  
BRANCH  32  33
HETATM   33  C   UNL     1      -9.270   4.548  68.868  1.00  0.00    -0.134 C  
HETATM   34  N   UNL     1      -9.536   3.272  68.201  1.00  0.00    -0.143 NA 
HETATM   35  H1  UNL     1      -9.540   2.489  68.854  1.00  0.00     0.000 HD 
HETATM   36  H2  UNL     1      -8.881   3.112  67.436  1.00  0.00     0.000 HD 
ENDBRANCH  32  33
ENDBRANCH  31  32
ENDBRANCH  29  31
ENDBRANCH  27  29
ENDBRANCH  11  27
ENDBRANCH   2   3
TORSDOF 9
ENDMDL
MODEL      103
REMARK 921   NORMALIZED FREE ENERGY PREDICTED BY IDOCK:   -5.84 KCAL/MOL
REMARK 922        TOTAL FREE ENERGY PREDICTED BY IDOCK:   -9.88 KCAL/MOL
REMARK 923 INTER-LIGAND FREE ENERGY PREDICTED BY IDOCK:   -8.88 KCAL/MOL
REMARK 924 INTRA-LIGAND FREE ENERGY PREDICTED BY IDOCK:   -1.00 KCAL/MOL
REMARK 927      BINDING AFFINITY PREDICTED BY RF-SCORE:    0.00 PKD
ROOT
HETATM    1  C   UNL     1     -13.554  13.676  72.281  1.00  0.00    -0.571 C  
HETATM    2  O   UNL     1     -14.008  12.335  72.120  1.00  0.00    -0.138 OA 
ENDROOT
BRANCH   2   3
HETATM    3  C   UNL     1     -13.034  11.497  71.623  1.00  0.00    -0.394 A  
HETATM    4  C   UNL     1     -12.940  10.250  72.192  1.00  0.00    -0.410 A  
HETATM    5  C   UNL     1     -12.016   9.344  71.658  1.00  0.00    -0.465 A  
HETATM    6  C   UNL     1     -11.319   9.675  70.452  1.00  0.00    -0.337 A  
HETATM    7  C   UNL     1     -11.710   8.118  72.478  1.00  0.00    -0.457 C  
HETATM    8  C   UNL     1     -10.614   8.795  69.560  1.00  0.00    -0.219 A  
HETATM    9  C   UNL     1      -9.691   9.317  68.635  1.00  0.00    -0.150 A  
HETATM   10  C   UNL     1     -11.339  11.050  70.110  1.00  0.00    -0.251 A  
HETATM   11  C   UNL     1     -10.424  11.566  69.170  1.00  0.00    -0.101 A  
HETATM   12  N   UNL     1     -12.195  11.929  70.670  1.00  0.00    -0.374 NA 
HETATM   13  C   UNL     1      -9.584  10.697  68.476  1.00  0.00    -0.175 A  
BRANCH   8  14
HETATM   14  O   UNL     1     -10.801   7.428  69.497  1.00  0.00    -0.236 OA 
BRANCH  14  15
HETATM   15  C   UNL     1      -9.977   6.513  70.121  1.00  0.00    -0.167 A  
HETATM   16  C   UNL     1     -10.374   5.185  69.915  1.00  0.00    -0.347 A  
HETATM   17  C   UNL     1      -9.513   4.131  70.212  1.00  0.00    -0.251 A  
HETATM   18  F   UNL     1      -5.866   6.996  70.614  1.00  0.00    -0.026 F  
HETATM   19  F   UNL     1      -5.595   4.955  71.288  1.00  0.00    -0.009 F  
HETATM   20  C   UNL     1      -8.240   4.401  70.707  1.00  0.00    -0.077 A  
HETATM   21  C   UNL     1      -8.771   6.770  70.777  1.00  0.00    -0.146 A  
HETATM   22  C   UNL     1      -6.428   6.029  71.393  1.00  0.00    -0.049 C  
HETATM   23  F   UNL     1      -6.319   6.466  72.675  1.00  0.00    -0.053 F  
HETATM   24  C   UNL     1      -7.852   5.721  70.987  1.00  0.00    -0.106 A  
ENDBRANCH  14  15
ENDBRANCH   8  14
BRANCH   9  25
HETATM   25  O   UNL     1      -8.881   8.625  67.771  1.00  0.00    -0.135 OA 
HETATM   26  C   UNL     1      -7.664   9.239  67.366  1.00  0.00    -0.095 C  
ENDBRANCH   9  25
BRANCH  11  27
HETATM   27  N   UNL     1     -10.430  12.952  68.902  1.00  0.00    -0.419 NA 
HETATM   28  H   UNL     1      -9.727  13.547  69.341  1.00  0.00     0.000 HD 
BRANCH  27  29
HETATM   29  C   UNL     1     -11.419  13.559  68.009  1.00  0.00    -0.307 C  
HETATM   30  C   UNL     1     -11.625  15.007  68.460  1.00  0.00    -0.348 C  
BRANCH  29  31
HETATM   31  C   UNL     1     -10.926  13.540  66.551  1.00  0.00    -0.295 C  
BRANCH  31  32
HETATM   32  C   UNL     1     -11.152  14.841  65.772  1.00  0.00    -0.338 C  
BRANCH  32  33
HETATM   33  C   UNL     1     -12.345  14.839  64.811  1.00  0.00    -0.293 C  
HETATM   34  N   UNL     1     -12.215  15.855  63.765  1.00  0.00    -1.141 NA 
HETATM   35  H1  UNL     1     -13.009  15.854  63.125  1.00  0.00     0.000 HD 
HETATM   36  H2  UNL     1     -11.335  15.755  63.260  1.00  0.00     0.000 HD 
ENDBRANCH  32  33
ENDBRANCH  31  32
ENDBRANCH  29  31
ENDBRANCH  27  29
ENDBRANCH  11  27
ENDBRANCH   2   3
TORSDOF 9
ENDMDL
MODEL      104
REMARK 921   NORMALIZED FREE ENERGY PREDICTED BY IDOCK:   -5.83 KCAL/MOL
REMARK 922        TOTAL FREE ENERGY PREDICTED BY IDOCK:   -9.87 KCAL/MOL
REMARK 923 INTER-LIGAND FREE ENERGY PREDICTED BY IDOCK:   -8.26 KCAL/MOL
REMARK 924 INTRA-LIGAND FREE ENERGY PREDICTED BY IDOCK:   -1.60 KCAL/MOL
REMARK 927      BINDING AFFINITY PREDICTED BY RF-SCORE:    0.00 PKD
ROOT
HETATM    1  C   UNL     1     -10.828  19.696  65.761  1.00  0.00    -0.303 C  
HETATM    2  O   UNL     1     -10.789  18.382  65.210  1.00  0.00    -0.624 OA 
ENDROOT
BRANCH   2   3
HETATM    3  C   UNL     1     -10.184  17.469  66.046  1.00  0.00    -0.299 A  
HETATM    4  C   UNL     1     -11.013  16.651  66.773  1.00  0.00     0.078 A  
HETATM    5  C   UNL     1     -10.434  15.658  67.572  1.00  0.00    -0.285 A  
HETATM    6  C   UNL     1      -9.026  15.416  67.486  1.00  0.00    -0.191 A  
HETATM    7  C   UNL     1     -11.326  14.989  68.586  1.00  0.00    -0.311 C  
HETATM    8  C   UNL     1      -8.290  14.263  67.929  1.00  0.00    -0.162 A  
HETATM    9  C   UNL     1      -6.896  14.337  68.103  1.00  0.00    -0.124 A  
HETATM   10  C   UNL     1      -8.277  16.459  66.886  1.00  0.00    -0.218 A  
HETATM   11  C   UNL     1      -6.879  16.521  67.049  1.00  0.00    -0.213 A  
HETATM   12  N   UNL     1      -8.849  17.446  66.165  1.00  0.00    -0.492 NA 
HETATM   13  C   UNL     1      -6.213  15.478  67.692  1.00  0.00    -0.174 A  
BRANCH   8  14
HETATM   14  O   UNL     1      -8.848  13.022  68.167  1.00  0.00    -0.186 OA 
BRANCH  14  15
HETATM   15  C   UNL     1      -9.300  12.181  67.170  1.00  0.00    -0.193 A  
HETATM   16  C   UNL     1      -9.435  10.851  67.590  1.00  0.00    -0.170 A  
HETATM   17  C   UNL     1     -10.148   9.932  66.823  1.00  0.00    -0.292 A  
HETATM   18  F   UNL     1     -11.988  13.297  64.185  1.00  0.00    -0.397 F  
HETATM   19  F   UNL     1     -12.252  11.256  63.506  1.00  0.00    -0.377 F  
HETATM   20  C   UNL     1     -10.742  10.342  65.633  1.00  0.00     0.005 A  
HETATM   21  C   UNL     1      -9.747  12.543  65.897  1.00  0.00    -0.226 A  
HETATM   22  C   UNL     1     -11.310  12.139  63.944  1.00  0.00    -0.426 C  
HETATM   23  F   UNL     1     -10.504  12.388  62.878  1.00  0.00    -0.341 F  
HETATM   24  C   UNL     1     -10.556  11.652  65.160  1.00  0.00    -0.343 A  
ENDBRANCH  14  15
ENDBRANCH   8  14
BRANCH   9  25
HETATM   25  O   UNL     1      -6.055  13.368  68.587  1.00  0.00    -0.077 OA 
HETATM   26  C   UNL     1      -5.495  12.449  67.658  1.00  0.00    -0.114 C  
ENDBRANCH   9  25
BRANCH  11  27
HETATM   27  N   UNL     1      -6.174  17.610  66.491  1.00  0.00    -0.184 NA 
HETATM   28  H   UNL     1      -6.124  17.702  65.476  1.00  0.00     0.000 HD 
BRANCH  27  29
HETATM   29  C   UNL     1      -5.511  18.609  67.331  1.00  0.00    -0.146 C  
HETATM   30  C   UNL     1      -5.420  19.907  66.524  1.00  0.00    -0.178 C  
BRANCH  29  31
HETATM   31  C   UNL     1      -6.315  18.861  68.620  1.00  0.00    -0.255 C  
BRANCH  31  32
HETATM   32  C   UNL     1      -5.682  18.304  69.900  1.00  0.00    -0.246 C  
BRANCH  32  33
HETATM   33  C   UNL     1      -5.353  19.339  70.981  1.00  0.00    -0.255 C  
HETATM   34  N   UNL     1      -6.199  20.531  70.881  1.00  0.00    -0.546 NA 
HETATM   35  H1  UNL     1      -5.981  21.220  71.600  1.00  0.00     0.000 HD 
HETATM   36  H2  UNL     1      -7.188  20.283  70.896  1.00  0.00     0.000 HD 
ENDBRANCH  32  33
ENDBRANCH  31  32
ENDBRANCH  29  31
ENDBRANCH  27  29
ENDBRANCH  11  27
ENDBRANCH   2   3
TORSDOF 9
ENDMDL
MODEL      105
REMARK 921   NORMALIZED FREE ENERGY PREDICTED BY IDOCK:   -5.83 KCAL/MOL
REMARK 922        TOTAL FREE ENERGY PREDICTED BY IDOCK:   -9.86 KCAL/MOL
REMARK 923 INTER-LIGAND FREE ENERGY PREDICTED BY IDOCK:   -8.62 KCAL/MOL
REMARK 924 INTRA-LIGAND FREE ENERGY PREDICTED BY IDOCK:   -1.24 KCAL/MOL
REMARK 927      BINDING AFFINITY PREDICTED BY RF-SCORE:    0.00 PKD
ROOT
HETATM    1  C   UNL     1     -12.471  15.040  64.261  1.00  0.00    -0.107 C  
HETATM    2  O   UNL     1     -12.981  14.181  65.278  1.00  0.00    -0.725 OA 
ENDROOT
BRANCH   2   3
HETATM    3  C   UNL     1     -12.021  13.806  66.192  1.00  0.00    -0.418 A  
HETATM    4  C   UNL     1     -12.394  12.888  67.143  1.00  0.00     0.086 A  
HETATM    5  C   UNL     1     -11.422  12.424  68.037  1.00  0.00    -0.377 A  
HETATM    6  C   UNL     1     -10.051  12.787  67.840  1.00  0.00    -0.231 A  
HETATM    7  C   UNL     1     -11.911  11.671  69.247  1.00  0.00    -0.396 C  
HETATM    8  C   UNL     1      -8.877  12.172  68.398  1.00  0.00    -0.143 A  
HETATM    9  C   UNL     1      -7.651  12.862  68.399  1.00  0.00    -0.133 A  
HETATM   10  C   UNL     1      -9.846  13.896  66.982  1.00  0.00    -0.257 A  
HETATM   11  C   UNL     1      -8.611  14.574  66.975  1.00  0.00    -0.217 A  
HETATM   12  N   UNL     1     -10.806  14.374  66.164  1.00  0.00    -0.304 NA 
HETATM   13  C   UNL     1      -7.543  14.071  67.716  1.00  0.00    -0.177 A  
BRANCH   8  14
HETATM   14  O   UNL     1      -8.834  10.893  68.915  1.00  0.00    -0.163 OA 
BRANCH  14  15
HETATM   15  C   UNL     1      -9.352   9.787  68.271  1.00  0.00    -0.129 A  
HETATM   16  C   UNL     1      -9.071   9.766  66.899  1.00  0.00    -0.162 A  
HETATM   17  C   UNL     1      -9.252   8.603  66.153  1.00  0.00    -0.271 A  
HETATM   18  F   UNL     1      -9.689   6.004  69.990  1.00  0.00    -0.165 F  
HETATM   19  F   UNL     1     -10.204   5.071  68.104  1.00  0.00    -0.217 F  
HETATM   20  C   UNL     1      -9.706   7.447  66.782  1.00  0.00    -0.271 A  
HETATM   21  C   UNL     1      -9.969   8.680  68.858  1.00  0.00    -0.197 A  
HETATM   22  C   UNL     1     -10.423   6.187  68.856  1.00  0.00    -0.238 C  
HETATM   23  F   UNL     1     -11.727   6.134  69.237  1.00  0.00    -0.472 F  
HETATM   24  C   UNL     1     -10.062   7.469  68.140  1.00  0.00    -0.215 A  
ENDBRANCH  14  15
ENDBRANCH   8  14
BRANCH   9  25
HETATM   25  O   UNL     1      -6.461  12.464  68.953  1.00  0.00    -0.077 OA 
HETATM   26  C   UNL     1      -5.294  12.538  68.144  1.00  0.00    -0.069 C  
ENDBRANCH   9  25
BRANCH  11  27
HETATM   27  N   UNL     1      -8.463  15.715  66.155  1.00  0.00    -0.365 NA 
HETATM   28  H   UNL     1      -8.413  15.596  65.143  1.00  0.00     0.000 HD 
BRANCH  27  29
HETATM   29  C   UNL     1      -8.377  17.062  66.720  1.00  0.00    -0.234 C  
HETATM   30  C   UNL     1      -7.090  17.705  66.196  1.00  0.00    -0.347 C  
BRANCH  29  31
HETATM   31  C   UNL     1      -9.587  17.913  66.291  1.00  0.00    -0.252 C  
BRANCH  31  32
HETATM   32  C   UNL     1     -10.612  18.190  67.398  1.00  0.00    -0.406 C  
BRANCH  32  33
HETATM   33  C   UNL     1     -10.029  18.453  68.789  1.00  0.00    -0.375 C  
HETATM   34  N   UNL     1     -10.380  19.782  69.294  1.00  0.00    -0.599 NA 
HETATM   35  H1  UNL     1      -9.992  19.958  70.220  1.00  0.00     0.000 HD 
HETATM   36  H2  UNL     1     -11.389  19.926  69.283  1.00  0.00     0.000 HD 
ENDBRANCH  32  33
ENDBRANCH  31  32
ENDBRANCH  29  31
ENDBRANCH  27  29
ENDBRANCH  11  27
ENDBRANCH   2   3
TORSDOF 9
ENDMDL
MODEL      106
REMARK 921   NORMALIZED FREE ENERGY PREDICTED BY IDOCK:   -5.83 KCAL/MOL
REMARK 922        TOTAL FREE ENERGY PREDICTED BY IDOCK:   -9.86 KCAL/MOL
REMARK 923 INTER-LIGAND FREE ENERGY PREDICTED BY IDOCK:   -9.83 KCAL/MOL
REMARK 924 INTRA-LIGAND FREE ENERGY PREDICTED BY IDOCK:   -0.03 KCAL/MOL
REMARK 927      BINDING AFFINITY PREDICTED BY RF-SCORE:    0.00 PKD
ROOT
HETATM    1  C   UNL     1      -8.436   9.430  62.781  1.00  0.00    -0.201 C  
HETATM    2  O   UNL     1      -9.619  10.223  62.740  1.00  0.00    -0.315 OA 
ENDROOT
BRANCH   2   3
HETATM    3  C   UNL     1      -9.920  10.798  63.955  1.00  0.00    -0.342 A  
HETATM    4  C   UNL     1     -10.065  12.164  63.976  1.00  0.00    -0.357 A  
HETATM    5  C   UNL     1     -10.450  12.773  65.176  1.00  0.00    -0.320 A  
HETATM    6  C   UNL     1     -10.835  11.959  66.289  1.00  0.00    -0.323 A  
HETATM    7  C   UNL     1     -10.299  14.270  65.261  1.00  0.00    -0.417 C  
HETATM    8  C   UNL     1     -11.573  12.343  67.462  1.00  0.00    -0.365 A  
HETATM    9  C   UNL     1     -11.551  11.530  68.609  1.00  0.00    -0.313 A  
HETATM   10  C   UNL     1     -10.426  10.605  66.207  1.00  0.00    -0.203 A  
HETATM   11  C   UNL     1     -10.421   9.788  67.355  1.00  0.00    -0.259 A  
HETATM   12  N   UNL     1     -10.002  10.039  65.058  1.00  0.00    -0.315 NA 
HETATM   13  C   UNL     1     -10.946  10.277  68.551  1.00  0.00    -0.294 A  
BRANCH   8  14
HETATM   14  O   UNL     1     -12.372  13.466  67.551  1.00  0.00    -0.246 OA 
BRANCH  14  15
HETATM   15  C   UNL     1     -11.989  14.632  68.183  1.00  0.00    -0.246 A  
HETATM   16  C   UNL     1     -11.961  14.518  69.580  1.00  0.00    -0.363 A  
HETATM   17  C   UNL     1     -11.324  15.481  70.359  1.00  0.00    -0.360 A  
HETATM   18  F   UNL     1      -9.215  17.340  66.649  1.00  0.00    -0.228 F  
HETATM   19  F   UNL     1      -9.115  18.458  68.502  1.00  0.00    -0.304 F  
HETATM   20  C   UNL     1     -10.697  16.561  69.743  1.00  0.00    -0.298 A  
HETATM   21  C   UNL     1     -11.512  15.800  67.584  1.00  0.00    -0.119 A  
HETATM   22  C   UNL     1      -9.984  17.819  67.667  1.00  0.00    -0.322 C  
HETATM   23  F   UNL     1     -10.766  18.790  67.125  1.00  0.00    -0.423 F  
HETATM   24  C   UNL     1     -10.777  16.729  68.351  1.00  0.00    -0.362 A  
ENDBRANCH  14  15
ENDBRANCH   8  14
BRANCH   9  25
HETATM   25  O   UNL     1     -12.127  11.778  69.829  1.00  0.00    -0.297 OA 
HETATM   26  C   UNL     1     -12.050  10.761  70.819  1.00  0.00    -0.372 C  
ENDBRANCH   9  25
BRANCH  11  27
HETATM   27  N   UNL     1      -9.947   8.462  67.249  1.00  0.00    -0.204 NA 
HETATM   28  H   UNL     1      -9.010   8.298  66.880  1.00  0.00     0.000 HD 
BRANCH  27  29
HETATM   29  C   UNL     1     -10.765   7.318  67.654  1.00  0.00    -0.224 C  
HETATM   30  C   UNL     1     -10.465   6.168  66.689  1.00  0.00    -0.267 C  
BRANCH  29  31
HETATM   31  C   UNL     1     -10.425   6.884  69.092  1.00  0.00    -0.224 C  
BRANCH  31  32
HETATM   32  C   UNL     1     -11.623   6.797  70.044  1.00  0.00    -0.367 C  
BRANCH  32  33
HETATM   33  C   UNL     1     -11.293   6.419  71.492  1.00  0.00    -0.294 C  
HETATM   34  N   UNL     1     -11.104   7.597  72.341  1.00  0.00    -0.284 NA 
HETATM   35  H1  UNL     1     -10.884   7.347  73.305  1.00  0.00     0.000 HD 
HETATM   36  H2  UNL     1     -11.912   8.218  72.297  1.00  0.00     0.000 HD 
ENDBRANCH  32  33
ENDBRANCH  31  32
ENDBRANCH  29  31
ENDBRANCH  27  29
ENDBRANCH  11  27
ENDBRANCH   2   3
TORSDOF 9
ENDMDL
MODEL      107
REMARK 921   NORMALIZED FREE ENERGY PREDICTED BY IDOCK:   -5.81 KCAL/MOL
REMARK 922        TOTAL FREE ENERGY PREDICTED BY IDOCK:   -9.83 KCAL/MOL
REMARK 923 INTER-LIGAND FREE ENERGY PREDICTED BY IDOCK:   -9.02 KCAL/MOL
REMARK 924 INTRA-LIGAND FREE ENERGY PREDICTED BY IDOCK:   -0.82 KCAL/MOL
REMARK 927      BINDING AFFINITY PREDICTED BY RF-SCORE:    0.00 PKD
ROOT
HETATM    1  C   UNL     1     -12.970  11.805  63.220  1.00  0.00     0.063 C  
HETATM    2  O   UNL     1     -13.252  12.329  64.514  1.00  0.00    -0.799 OA 
ENDROOT
BRANCH   2   3
HETATM    3  C   UNL     1     -12.173  12.976  65.076  1.00  0.00    -0.453 A  
HETATM    4  C   UNL     1     -12.042  14.316  64.802  1.00  0.00    -0.457 A  
HETATM    5  C   UNL     1     -11.005  15.023  65.420  1.00  0.00    -0.380 A  
HETATM    6  C   UNL     1     -10.218  14.382  66.431  1.00  0.00    -0.294 A  
HETATM    7  C   UNL     1     -10.690  16.392  64.875  1.00  0.00    -0.213 C  
HETATM    8  C   UNL     1      -9.363  14.989  67.414  1.00  0.00    -0.201 A  
HETATM    9  C   UNL     1      -8.395  14.218  68.082  1.00  0.00    -0.162 A  
HETATM   10  C   UNL     1     -10.307  12.967  66.447  1.00  0.00    -0.281 A  
HETATM   11  C   UNL     1      -9.344  12.199  67.132  1.00  0.00    -0.193 A  
HETATM   12  N   UNL     1     -11.278  12.290  65.802  1.00  0.00    -0.323 NA 
HETATM   13  C   UNL     1      -8.377  12.836  67.906  1.00  0.00    -0.172 A  
BRANCH   8  14
HETATM   14  O   UNL     1      -9.440  16.310  67.810  1.00  0.00    -0.219 OA 
BRANCH  14  15
HETATM   15  C   UNL     1      -8.411  17.217  67.656  1.00  0.00    -0.205 A  
HETATM   16  C   UNL     1      -8.197  17.587  66.322  1.00  0.00    -0.275 A  
HETATM   17  C   UNL     1      -7.414  18.696  66.007  1.00  0.00    -0.265 A  
HETATM   18  F   UNL     1      -7.471  20.201  70.412  1.00  0.00    -0.084 F  
HETATM   19  F   UNL     1      -6.087  21.172  69.056  1.00  0.00    -0.358 F  
HETATM   20  C   UNL     1      -6.850  19.452  67.031  1.00  0.00    -0.206 A  
HETATM   21  C   UNL     1      -7.704  17.873  68.667  1.00  0.00    -0.293 A  
HETATM   22  C   UNL     1      -6.502  19.946  69.488  1.00  0.00    -0.354 C  
HETATM   23  F   UNL     1      -5.456  19.416  70.175  1.00  0.00    -0.205 F  
HETATM   24  C   UNL     1      -6.994  19.055  68.370  1.00  0.00    -0.290 A  
ENDBRANCH  14  15
ENDBRANCH   8  14
BRANCH   9  25
HETATM   25  O   UNL     1      -7.453  14.644  68.983  1.00  0.00    -0.124 OA 
HETATM   26  C   UNL     1      -6.369  13.772  69.275  1.00  0.00    -0.110 C  
ENDBRANCH   9  25
BRANCH  11  27
HETATM   27  N   UNL     1      -9.428  10.790  67.073  1.00  0.00    -0.163 NA 
HETATM   28  H   UNL     1      -9.422  10.330  66.164  1.00  0.00     0.000 HD 
BRANCH  27  29
HETATM   29  C   UNL     1      -9.523   9.975  68.285  1.00  0.00    -0.140 C  
HETATM   30  C   UNL     1     -10.931  10.157  68.858  1.00  0.00    -0.261 C  
BRANCH  29  31
HETATM   31  C   UNL     1      -9.288   8.487  67.963  1.00  0.00    -0.147 C  
BRANCH  31  32
HETATM   32  C   UNL     1     -10.192   7.909  66.869  1.00  0.00    -0.380 C  
BRANCH  32  33
HETATM   33  C   UNL     1     -11.081   6.737  67.294  1.00  0.00    -0.324 C  
HETATM   34  N   UNL     1     -11.176   5.708  66.256  1.00  0.00    -0.749 NA 
HETATM   35  H1  UNL     1     -11.768   4.927  66.539  1.00  0.00     0.000 HD 
HETATM   36  H2  UNL     1     -10.251   5.385  65.972  1.00  0.00     0.000 HD 
ENDBRANCH  32  33
ENDBRANCH  31  32
ENDBRANCH  29  31
ENDBRANCH  27  29
ENDBRANCH  11  27
ENDBRANCH   2   3
TORSDOF 9
ENDMDL
MODEL      108
REMARK 921   NORMALIZED FREE ENERGY PREDICTED BY IDOCK:   -5.77 KCAL/MOL
REMARK 922        TOTAL FREE ENERGY PREDICTED BY IDOCK:   -9.78 KCAL/MOL
REMARK 923 INTER-LIGAND FREE ENERGY PREDICTED BY IDOCK:   -8.68 KCAL/MOL
REMARK 924 INTRA-LIGAND FREE ENERGY PREDICTED BY IDOCK:   -1.10 KCAL/MOL
REMARK 927      BINDING AFFINITY PREDICTED BY RF-SCORE:    0.00 PKD
ROOT
HETATM    1  C   UNL     1     -10.294  18.579  66.217  1.00  0.00    -0.427 C  
HETATM    2  O   UNL     1     -10.644  17.415  65.474  1.00  0.00    -0.595 OA 
ENDROOT
BRANCH   2   3
HETATM    3  C   UNL     1     -10.230  16.249  66.080  1.00  0.00    -0.346 A  
HETATM    4  C   UNL     1      -9.879  16.329  67.405  1.00  0.00    -0.242 A  
HETATM    5  C   UNL     1      -9.531  15.149  68.074  1.00  0.00    -0.199 A  
HETATM    6  C   UNL     1      -9.705  13.889  67.417  1.00  0.00    -0.234 A  
HETATM    7  C   UNL     1      -8.858  15.295  69.414  1.00  0.00    -0.220 C  
HETATM    8  C   UNL     1      -9.747  12.576  68.003  1.00  0.00    -0.215 A  
HETATM    9  C   UNL     1      -9.559  11.437  67.199  1.00  0.00    -0.179 A  
HETATM   10  C   UNL     1      -9.851  13.965  66.009  1.00  0.00    -0.289 A  
HETATM   11  C   UNL     1      -9.678  12.818  65.209  1.00  0.00    -0.007 A  
HETATM   12  N   UNL     1     -10.130  15.117  65.366  1.00  0.00    -0.352 NA 
HETATM   13  C   UNL     1      -9.493  11.576  65.815  1.00  0.00    -0.255 A  
BRANCH   8  14
HETATM   14  O   UNL     1     -10.012  12.321  69.334  1.00  0.00     0.377 OA 
BRANCH  14  15
HETATM   15  C   UNL     1     -11.265  12.431  69.901  1.00  0.00     0.144 A  
HETATM   16  C   UNL     1     -11.766  11.210  70.372  1.00  0.00    -0.415 A  
HETATM   17  C   UNL     1     -12.866  11.174  71.226  1.00  0.00    -0.515 A  
HETATM   18  F   UNL     1     -12.597  15.748  72.046  1.00  0.00    -0.386 F  
HETATM   19  F   UNL     1     -14.380  14.727  72.734  1.00  0.00    -0.439 F  
HETATM   20  C   UNL     1     -13.466  12.365  71.626  1.00  0.00    -0.123 A  
HETATM   21  C   UNL     1     -11.974  13.606  70.164  1.00  0.00    -0.407 A  
HETATM   22  C   UNL     1     -13.578  14.893  71.643  1.00  0.00    -0.419 C  
HETATM   23  F   UNL     1     -14.322  15.574  70.731  1.00  0.00    -0.372 F  
HETATM   24  C   UNL     1     -13.023  13.593  71.107  1.00  0.00    -0.353 A  
ENDBRANCH  14  15
ENDBRANCH   8  14
BRANCH   9  25
HETATM   25  O   UNL     1      -9.491  10.127  67.598  1.00  0.00    -0.146 OA 
HETATM   26  C   UNL     1     -10.027   9.138  66.728  1.00  0.00    -0.254 C  
ENDBRANCH   9  25
BRANCH  11  27
HETATM   27  N   UNL     1      -9.767  12.944  63.806  1.00  0.00    -0.622 NA 
HETATM   28  H   UNL     1      -9.484  13.820  63.367  1.00  0.00     0.000 HD 
BRANCH  27  29
HETATM   29  C   UNL     1     -10.257  11.851  62.965  1.00  0.00    -0.143 C  
HETATM   30  C   UNL     1      -9.088  10.893  62.722  1.00  0.00    -0.351 C  
BRANCH  29  31
HETATM   31  C   UNL     1     -11.404  11.095  63.662  1.00  0.00     0.081 C  
BRANCH  31  32
HETATM   32  C   UNL     1     -12.656  11.933  63.945  1.00  0.00    -0.450 C  
BRANCH  32  33
HETATM   33  C   UNL     1     -12.890  13.116  63.000  1.00  0.00     0.757 C  
HETATM   34  N   UNL     1     -12.518  14.394  63.611  1.00  0.00    -1.086 NA 
HETATM   35  H1  UNL     1     -12.673  15.182  62.982  1.00  0.00     0.000 HD 
HETATM   36  H2  UNL     1     -11.556  14.376  63.949  1.00  0.00     0.000 HD 
ENDBRANCH  32  33
ENDBRANCH  31  32
ENDBRANCH  29  31
ENDBRANCH  27  29
ENDBRANCH  11  27
ENDBRANCH   2   3
TORSDOF 9
ENDMDL
MODEL      109
REMARK 921   NORMALIZED FREE ENERGY PREDICTED BY IDOCK:   -5.77 KCAL/MOL
REMARK 922        TOTAL FREE ENERGY PREDICTED BY IDOCK:   -9.78 KCAL/MOL
REMARK 923 INTER-LIGAND FREE ENERGY PREDICTED BY IDOCK:   -9.30 KCAL/MOL
REMARK 924 INTRA-LIGAND FREE ENERGY PREDICTED BY IDOCK:   -0.47 KCAL/MOL
REMARK 927      BINDING AFFINITY PREDICTED BY RF-SCORE:    0.00 PKD
ROOT
HETATM    1  C   UNL     1     -12.888  11.738  63.089  1.00  0.00     0.056 C  
HETATM    2  O   UNL     1     -13.158  12.109  64.437  1.00  0.00    -0.740 OA 
ENDROOT
BRANCH   2   3
HETATM    3  C   UNL     1     -12.065  12.657  65.071  1.00  0.00    -0.444 A  
HETATM    4  C   UNL     1     -11.968  14.027  65.068  1.00  0.00    -0.409 A  
HETATM    5  C   UNL     1     -10.914  14.621  65.772  1.00  0.00    -0.330 A  
HETATM    6  C   UNL     1     -10.071  13.810  66.598  1.00  0.00    -0.277 A  
HETATM    7  C   UNL     1     -10.646  16.079  65.501  1.00  0.00    -0.415 C  
HETATM    8  C   UNL     1      -9.181  14.228  67.646  1.00  0.00    -0.194 A  
HETATM    9  C   UNL     1      -8.171  13.362  68.103  1.00  0.00    -0.160 A  
HETATM   10  C   UNL     1     -10.137  12.419  66.332  1.00  0.00    -0.236 A  
HETATM   11  C   UNL     1      -9.132  11.552  66.806  1.00  0.00    -0.181 A  
HETATM   12  N   UNL     1     -11.127  11.861  65.605  1.00  0.00    -0.313 NA 
HETATM   13  C   UNL     1      -8.139  12.045  67.652  1.00  0.00    -0.155 A  
BRANCH   8  14
HETATM   14  O   UNL     1      -9.259  15.440  68.304  1.00  0.00    -0.183 OA 
BRANCH  14  15
HETATM   15  C   UNL     1      -8.734  16.616  67.808  1.00  0.00    -0.201 A  
HETATM   16  C   UNL     1      -7.499  16.443  67.170  1.00  0.00    -0.227 A  
HETATM   17  C   UNL     1      -6.968  17.447  66.363  1.00  0.00    -0.314 A  
HETATM   18  F   UNL     1     -11.014  19.746  66.263  1.00  0.00    -0.531 F  
HETATM   19  F   UNL     1      -9.274  20.780  65.490  1.00  0.00     0.058 F  
HETATM   20  C   UNL     1      -7.679  18.629  66.178  1.00  0.00    -0.262 A  
HETATM   21  C   UNL     1      -9.358  17.866  67.759  1.00  0.00    -0.262 A  
HETATM   22  C   UNL     1      -9.725  20.068  66.563  1.00  0.00    -0.443 C  
HETATM   23  F   UNL     1      -9.786  20.948  67.598  1.00  0.00    -0.550 F  
HETATM   24  C   UNL     1      -8.883  18.849  66.866  1.00  0.00    -0.306 A  
ENDBRANCH  14  15
ENDBRANCH   8  14
BRANCH   9  25
HETATM   25  O   UNL     1      -7.195  13.622  69.031  1.00  0.00    -0.107 OA 
HETATM   26  C   UNL     1      -6.074  12.748  69.079  1.00  0.00    -0.089 C  
ENDBRANCH   9  25
BRANCH  11  27
HETATM   27  N   UNL     1      -9.196  10.183  66.469  1.00  0.00    -0.151 NA 
HETATM   28  H   UNL     1      -9.035   9.901  65.502  1.00  0.00     0.000 HD 
BRANCH  27  29
HETATM   29  C   UNL     1      -9.489   9.157  67.470  1.00  0.00    -0.139 C  
HETATM   30  C   UNL     1     -10.756   9.584  68.216  1.00  0.00    -0.241 C  
BRANCH  29  31
HETATM   31  C   UNL     1      -9.723   7.789  66.801  1.00  0.00    -0.296 C  
BRANCH  31  32
HETATM   32  C   UNL     1     -10.972   7.039  67.277  1.00  0.00    -0.372 C  
BRANCH  32  33
HETATM   33  C   UNL     1     -10.774   6.124  68.490  1.00  0.00    -0.300 C  
HETATM   34  N   UNL     1     -11.708   6.434  69.575  1.00  0.00    -0.588 NA 
HETATM   35  H1  UNL     1     -11.577   5.825  70.382  1.00  0.00     0.000 HD 
HETATM   36  H2  UNL     1     -12.674   6.409  69.248  1.00  0.00     0.000 HD 
ENDBRANCH  32  33
ENDBRANCH  31  32
ENDBRANCH  29  31
ENDBRANCH  27  29
ENDBRANCH  11  27
ENDBRANCH   2   3
TORSDOF 9
ENDMDL
MODEL      110
REMARK 921   NORMALIZED FREE ENERGY PREDICTED BY IDOCK:   -5.76 KCAL/MOL
REMARK 922        TOTAL FREE ENERGY PREDICTED BY IDOCK:   -9.76 KCAL/MOL
REMARK 923 INTER-LIGAND FREE ENERGY PREDICTED BY IDOCK:   -8.05 KCAL/MOL
REMARK 924 INTRA-LIGAND FREE ENERGY PREDICTED BY IDOCK:   -1.71 KCAL/MOL
REMARK 927      BINDING AFFINITY PREDICTED BY RF-SCORE:    0.00 PKD
ROOT
HETATM    1  C   UNL     1      -7.880   7.933  72.081  1.00  0.00    -0.106 C  
HETATM    2  O   UNL     1      -9.275   7.645  72.110  1.00  0.00    -0.132 OA 
ENDROOT
BRANCH   2   3
HETATM    3  C   UNL     1     -10.000   8.419  71.230  1.00  0.00    -0.204 A  
HETATM    4  C   UNL     1     -10.969   9.229  71.770  1.00  0.00    -0.383 A  
HETATM    5  C   UNL     1     -11.669  10.088  70.915  1.00  0.00    -0.462 A  
HETATM    6  C   UNL     1     -11.253  10.219  69.551  1.00  0.00    -0.314 A  
HETATM    7  C   UNL     1     -12.920  10.727  71.461  1.00  0.00    -0.562 C  
HETATM    8  C   UNL     1     -11.583  11.259  68.614  1.00  0.00    -0.318 A  
HETATM    9  C   UNL     1     -11.398  11.053  67.235  1.00  0.00    -0.188 A  
HETATM   10  C   UNL     1     -10.411   9.181  69.083  1.00  0.00    -0.212 A  
HETATM   11  C   UNL     1     -10.215   8.988  67.700  1.00  0.00    -0.242 A  
HETATM   12  N   UNL     1      -9.784   8.320  69.910  1.00  0.00    -0.178 NA 
HETATM   13  C   UNL     1     -10.746   9.904  66.794  1.00  0.00    -0.154 A  
BRANCH   8  14
HETATM   14  O   UNL     1     -12.043  12.513  68.966  1.00  0.00    -0.259 OA 
BRANCH  14  15
HETATM   15  C   UNL     1     -11.285  13.662  68.871  1.00  0.00    -0.270 A  
HETATM   16  C   UNL     1     -11.976  14.814  69.270  1.00  0.00    -0.329 A  
HETATM   17  C   UNL     1     -11.294  16.002  69.521  1.00  0.00    -0.344 A  
HETATM   18  F   UNL     1      -7.175  13.834  69.549  1.00  0.00    -0.074 F  
HETATM   19  F   UNL     1      -7.148  16.001  69.519  1.00  0.00    -0.192 F  
HETATM   20  C   UNL     1      -9.909  16.042  69.386  1.00  0.00    -0.254 A  
HETATM   21  C   UNL     1      -9.923  13.754  68.570  1.00  0.00    -0.217 A  
HETATM   22  C   UNL     1      -7.696  14.915  68.902  1.00  0.00    -0.148 C  
HETATM   23  F   UNL     1      -7.173  14.892  67.648  1.00  0.00    -0.127 F  
HETATM   24  C   UNL     1      -9.208  14.919  68.918  1.00  0.00    -0.192 A  
ENDBRANCH  14  15
ENDBRANCH   8  14
BRANCH   9  25
HETATM   25  O   UNL     1     -11.727  11.897  66.206  1.00  0.00    -0.506 OA 
HETATM   26  C   UNL     1     -11.030  11.750  64.976  1.00  0.00    -0.300 C  
ENDBRANCH   9  25
BRANCH  11  27
HETATM   27  N   UNL     1      -9.420   7.904  67.268  1.00  0.00    -0.142 NA 
HETATM   28  H   UNL     1      -8.413   7.931  67.428  1.00  0.00     0.000 HD 
BRANCH  27  29
HETATM   29  C   UNL     1     -10.003   6.742  66.595  1.00  0.00    -0.142 C  
HETATM   30  C   UNL     1      -8.879   6.031  65.838  1.00  0.00    -0.155 C  
BRANCH  29  31
HETATM   31  C   UNL     1     -10.628   5.774  67.617  1.00  0.00    -0.313 C  
BRANCH  31  32
HETATM   32  C   UNL     1      -9.633   4.845  68.323  1.00  0.00    -0.196 C  
BRANCH  32  33
HETATM   33  C   UNL     1      -9.829   4.691  69.835  1.00  0.00    -0.226 C  
HETATM   34  N   UNL     1     -10.927   5.520  70.338  1.00  0.00    -0.207 NA 
HETATM   35  H1  UNL     1     -11.058   5.417  71.344  1.00  0.00     0.000 HD 
HETATM   36  H2  UNL     1     -11.792   5.333  69.832  1.00  0.00     0.000 HD 
ENDBRANCH  32  33
ENDBRANCH  31  32
ENDBRANCH  29  31
ENDBRANCH  27  29
ENDBRANCH  11  27
ENDBRANCH   2   3
TORSDOF 9
ENDMDL
MODEL      111
REMARK 921   NORMALIZED FREE ENERGY PREDICTED BY IDOCK:   -5.76 KCAL/MOL
REMARK 922        TOTAL FREE ENERGY PREDICTED BY IDOCK:   -9.75 KCAL/MOL
REMARK 923 INTER-LIGAND FREE ENERGY PREDICTED BY IDOCK:   -7.59 KCAL/MOL
REMARK 924 INTRA-LIGAND FREE ENERGY PREDICTED BY IDOCK:   -2.17 KCAL/MOL
REMARK 927      BINDING AFFINITY PREDICTED BY RF-SCORE:    0.00 PKD
ROOT
HETATM    1  C   UNL     1     -13.575   9.100  72.404  1.00  0.00    -0.483 C  
HETATM    2  O   UNL     1     -13.299  10.420  71.944  1.00  0.00    -0.412 OA 
ENDROOT
BRANCH   2   3
HETATM    3  C   UNL     1     -12.340  10.452  70.955  1.00  0.00    -0.381 A  
HETATM    4  C   UNL     1     -12.655  11.137  69.807  1.00  0.00    -0.129 A  
HETATM    5  C   UNL     1     -11.675  11.259  68.815  1.00  0.00    -0.405 A  
HETATM    6  C   UNL     1     -10.340  10.815  69.084  1.00  0.00    -0.238 A  
HETATM    7  C   UNL     1     -12.130  11.732  67.459  1.00  0.00     0.143 C  
HETATM    8  C   UNL     1      -9.132  11.144  68.377  1.00  0.00    -0.168 A  
HETATM    9  C   UNL     1      -7.981  10.351  68.538  1.00  0.00    -0.114 A  
HETATM   10  C   UNL     1     -10.215   9.939  70.191  1.00  0.00    -0.273 A  
HETATM   11  C   UNL     1      -9.053   9.159  70.357  1.00  0.00    -0.233 A  
HETATM   12  N   UNL     1     -11.187   9.785  71.113  1.00  0.00    -0.370 NA 
HETATM   13  C   UNL     1      -7.968   9.347  69.503  1.00  0.00    -0.098 A  
BRANCH   8  14
HETATM   14  O   UNL     1      -8.981  12.242  67.553  1.00  0.00    -0.166 OA 
BRANCH  14  15
HETATM   15  C   UNL     1      -8.812  13.531  68.017  1.00  0.00    -0.181 A  
HETATM   16  C   UNL     1      -7.572  14.083  67.672  1.00  0.00    -0.191 A  
HETATM   17  C   UNL     1      -7.344  15.452  67.794  1.00  0.00    -0.180 A  
HETATM   18  F   UNL     1     -11.881  16.333  68.350  1.00  0.00    -0.344 F  
HETATM   19  F   UNL     1     -10.505  17.956  68.757  1.00  0.00    -0.342 F  
HETATM   20  C   UNL     1      -8.365  16.281  68.251  1.00  0.00    -0.185 A  
HETATM   21  C   UNL     1      -9.770  14.338  68.636  1.00  0.00    -0.213 A  
HETATM   22  C   UNL     1     -10.744  16.642  69.034  1.00  0.00    -0.343 C  
HETATM   23  F   UNL     1     -11.070  16.590  70.353  1.00  0.00    -0.351 F  
HETATM   24  C   UNL     1      -9.590  15.736  68.669  1.00  0.00    -0.207 A  
ENDBRANCH  14  15
ENDBRANCH   8  14
BRANCH   9  25
HETATM   25  O   UNL     1      -6.778  10.471  67.890  1.00  0.00    -0.064 OA 
HETATM   26  C   UNL     1      -6.543   9.633  66.765  1.00  0.00    -0.067 C  
ENDBRANCH   9  25
BRANCH  11  27
HETATM   27  N   UNL     1      -8.990   8.251  71.437  1.00  0.00    -0.152 NA 
HETATM   28  H   UNL     1      -9.632   8.365  72.221  1.00  0.00     0.000 HD 
BRANCH  27  29
HETATM   29  C   UNL     1      -8.025   7.150  71.460  1.00  0.00    -0.102 C  
HETATM   30  C   UNL     1      -7.860   6.708  72.916  1.00  0.00    -0.099 C  
BRANCH  29  31
HETATM   31  C   UNL     1      -8.529   5.963  70.617  1.00  0.00    -0.129 C  
BRANCH  31  32
HETATM   32  C   UNL     1      -9.950   5.490  70.944  1.00  0.00    -0.260 C  
BRANCH  32  33
HETATM   33  C   UNL     1     -10.989   5.699  69.838  1.00  0.00    -0.239 C  
HETATM   34  N   UNL     1     -11.855   6.849  70.103  1.00  0.00    -0.613 NA 
HETATM   35  H1  UNL     1     -12.547   6.989  69.366  1.00  0.00     0.000 HD 
HETATM   36  H2  UNL     1     -11.308   7.695  70.259  1.00  0.00     0.000 HD 
ENDBRANCH  32  33
ENDBRANCH  31  32
ENDBRANCH  29  31
ENDBRANCH  27  29
ENDBRANCH  11  27
ENDBRANCH   2   3
TORSDOF 9
ENDMDL
MODEL      112
REMARK 921   NORMALIZED FREE ENERGY PREDICTED BY IDOCK:   -5.72 KCAL/MOL
REMARK 922        TOTAL FREE ENERGY PREDICTED BY IDOCK:   -9.69 KCAL/MOL
REMARK 923 INTER-LIGAND FREE ENERGY PREDICTED BY IDOCK:   -8.69 KCAL/MOL
REMARK 924 INTRA-LIGAND FREE ENERGY PREDICTED BY IDOCK:   -1.01 KCAL/MOL
REMARK 927      BINDING AFFINITY PREDICTED BY RF-SCORE:    0.00 PKD
ROOT
HETATM    1  C   UNL     1      -8.078  16.917  68.580  1.00  0.00    -0.244 C  
HETATM    2  O   UNL     1      -8.783  16.242  67.541  1.00  0.00    -0.179 OA 
ENDROOT
BRANCH   2   3
HETATM    3  C   UNL     1      -8.584  14.879  67.558  1.00  0.00    -0.184 A  
HETATM    4  C   UNL     1      -7.864  14.370  68.611  1.00  0.00    -0.140 A  
HETATM    5  C   UNL     1      -7.712  12.982  68.704  1.00  0.00    -0.069 A  
HETATM    6  C   UNL     1      -8.434  12.131  67.806  1.00  0.00    -0.160 A  
HETATM    7  C   UNL     1      -6.676  12.470  69.670  1.00  0.00     0.079 C  
HETATM    8  C   UNL     1      -8.700  10.724  67.930  1.00  0.00    -0.129 A  
HETATM    9  C   UNL     1      -9.098   9.977  66.806  1.00  0.00    -0.139 A  
HETATM   10  C   UNL     1      -8.943  12.778  66.652  1.00  0.00    -0.150 A  
HETATM   11  C   UNL     1      -9.355  12.026  65.534  1.00  0.00    -0.031 A  
HETATM   12  N   UNL     1      -9.034  14.120  66.548  1.00  0.00    -0.171 NA 
HETATM   13  C   UNL     1      -9.388  10.634  65.613  1.00  0.00    -0.239 A  
BRANCH   8  14
HETATM   14  O   UNL     1      -8.641  10.018  69.115  1.00  0.00    -0.135 OA 
BRANCH  14  15
HETATM   15  C   UNL     1      -9.721   9.837  69.955  1.00  0.00    -0.250 A  
HETATM   16  C   UNL     1     -10.708  10.820  69.803  1.00  0.00    -0.241 A  
HETATM   17  C   UNL     1     -11.980  10.641  70.343  1.00  0.00    -0.436 A  
HETATM   18  F   UNL     1     -11.201   6.118  71.122  1.00  0.00    -0.313 F  
HETATM   19  F   UNL     1     -12.976   6.981  72.017  1.00  0.00    -0.339 F  
HETATM   20  C   UNL     1     -12.277   9.466  71.028  1.00  0.00    -0.354 A  
HETATM   21  C   UNL     1      -9.970   8.744  70.789  1.00  0.00    -0.263 A  
HETATM   22  C   UNL     1     -11.633   7.170  71.874  1.00  0.00    -0.278 C  
HETATM   23  F   UNL     1     -11.096   6.996  73.110  1.00  0.00    -0.281 F  
HETATM   24  C   UNL     1     -11.281   8.502  71.252  1.00  0.00    -0.321 A  
ENDBRANCH  14  15
ENDBRANCH   8  14
BRANCH   9  25
HETATM   25  O   UNL     1      -9.316   8.626  66.727  1.00  0.00    -0.156 OA 
HETATM   26  C   UNL     1     -10.615   8.142  67.044  1.00  0.00    -0.275 C  
ENDBRANCH   9  25
BRANCH  11  27
HETATM   27  N   UNL     1      -9.797  12.706  64.378  1.00  0.00    -0.570 NA 
HETATM   28  H   UNL     1      -9.111  13.166  63.780  1.00  0.00     0.000 HD 
BRANCH  27  29
HETATM   29  C   UNL     1     -11.214  12.769  64.017  1.00  0.00    -0.413 C  
HETATM   30  C   UNL     1     -11.564  11.472  63.283  1.00  0.00    -0.142 C  
BRANCH  29  31
HETATM   31  C   UNL     1     -12.094  12.902  65.273  1.00  0.00    -0.496 C  
BRANCH  31  32
HETATM   32  C   UNL     1     -12.600  14.320  65.566  1.00  0.00    -0.429 C  
BRANCH  32  33
HETATM   33  C   UNL     1     -11.718  15.458  65.044  1.00  0.00    -0.102 C  
HETATM   34  N   UNL     1     -12.183  15.972  63.754  1.00  0.00    -1.134 NA 
HETATM   35  H1  UNL     1     -11.596  16.730  63.406  1.00  0.00     0.000 HD 
HETATM   36  H2  UNL     1     -13.161  16.255  63.800  1.00  0.00     0.000 HD 
ENDBRANCH  32  33
ENDBRANCH  31  32
ENDBRANCH  29  31
ENDBRANCH  27  29
ENDBRANCH  11  27
ENDBRANCH   2   3
TORSDOF 9
ENDMDL
MODEL      113
REMARK 921   NORMALIZED FREE ENERGY PREDICTED BY IDOCK:   -5.71 KCAL/MOL
REMARK 922        TOTAL FREE ENERGY PREDICTED BY IDOCK:   -9.68 KCAL/MOL
REMARK 923 INTER-LIGAND FREE ENERGY PREDICTED BY IDOCK:   -8.00 KCAL/MOL
REMARK 924 INTRA-LIGAND FREE ENERGY PREDICTED BY IDOCK:   -1.67 KCAL/MOL
REMARK 927      BINDING AFFINITY PREDICTED BY RF-SCORE:    0.00 PKD
ROOT
HETATM    1  C   UNL     1     -14.403   8.439  71.549  1.00  0.00    -0.408 C  
HETATM    2  O   UNL     1     -13.370   8.786  72.467  1.00  0.00    -0.399 OA 
ENDROOT
BRANCH   2   3
HETATM    3  C   UNL     1     -12.182   9.097  71.843  1.00  0.00    -0.379 A  
HETATM    4  C   UNL     1     -11.040   8.550  72.374  1.00  0.00    -0.397 A  
HETATM    5  C   UNL     1      -9.825   8.779  71.717  1.00  0.00    -0.391 A  
HETATM    6  C   UNL     1      -9.824   9.431  70.442  1.00  0.00    -0.313 A  
HETATM    7  C   UNL     1      -8.565   8.443  72.473  1.00  0.00    -0.253 C  
HETATM    8  C   UNL     1      -8.777   9.460  69.457  1.00  0.00    -0.161 A  
HETATM    9  C   UNL     1      -8.793  10.430  68.438  1.00  0.00    -0.136 A  
HETATM   10  C   UNL     1     -11.016  10.131  70.130  1.00  0.00    -0.316 A  
HETATM   11  C   UNL     1     -11.032  11.089  69.097  1.00  0.00    -0.237 A  
HETATM   12  N   UNL     1     -12.169   9.945  70.804  1.00  0.00    -0.298 NA 
HETATM   13  C   UNL     1      -9.906  11.254  68.291  1.00  0.00    -0.201 A  
BRANCH   8  14
HETATM   14  O   UNL     1      -7.736   8.555  69.393  1.00  0.00    -0.088 OA 
BRANCH  14  15
HETATM   15  C   UNL     1      -7.858   7.281  68.876  1.00  0.00    -0.118 A  
HETATM   16  C   UNL     1      -7.446   6.282  69.768  1.00  0.00    -0.081 A  
HETATM   17  C   UNL     1      -7.768   4.947  69.539  1.00  0.00    -0.067 A  
HETATM   18  F   UNL     1     -10.878   6.079  66.265  1.00  0.00    -0.261 F  
HETATM   19  F   UNL     1     -10.346   3.986  66.437  1.00  0.00    -0.199 F  
HETATM   20  C   UNL     1      -8.520   4.603  68.419  1.00  0.00    -0.094 A  
HETATM   21  C   UNL     1      -8.459   6.913  67.670  1.00  0.00    -0.122 A  
HETATM   22  C   UNL     1      -9.810   5.236  66.336  1.00  0.00    -0.186 C  
HETATM   23  F   UNL     1      -9.207   5.288  65.118  1.00  0.00    -0.160 F  
HETATM   24  C   UNL     1      -8.880   5.580  67.477  1.00  0.00    -0.105 A  
ENDBRANCH  14  15
ENDBRANCH   8  14
BRANCH   9  25
HETATM   25  O   UNL     1      -7.845  10.651  67.471  1.00  0.00    -0.104 OA 
HETATM   26  C   UNL     1      -8.201  10.389  66.120  1.00  0.00    -0.144 C  
ENDBRANCH   9  25
BRANCH  11  27
HETATM   27  N   UNL     1     -12.220  11.813  68.855  1.00  0.00    -0.326 NA 
HETATM   28  H   UNL     1     -13.059  11.310  68.568  1.00  0.00     0.000 HD 
BRANCH  27  29
HETATM   29  C   UNL     1     -12.277  13.268  69.005  1.00  0.00    -0.116 C  
HETATM   30  C   UNL     1     -12.145  13.587  70.496  1.00  0.00    -0.409 C  
BRANCH  29  31
HETATM   31  C   UNL     1     -11.130  13.945  68.231  1.00  0.00    -0.280 C  
BRANCH  31  32
HETATM   32  C   UNL     1     -11.519  14.522  66.865  1.00  0.00    -0.375 C  
BRANCH  32  33
HETATM   33  C   UNL     1     -11.427  13.550  65.685  1.00  0.00    -0.315 C  
HETATM   34  N   UNL     1     -12.444  12.498  65.754  1.00  0.00    -0.566 NA 
HETATM   35  H1  UNL     1     -12.384  11.851  64.968  1.00  0.00     0.000 HD 
HETATM   36  H2  UNL     1     -13.380  12.895  65.834  1.00  0.00     0.000 HD 
ENDBRANCH  32  33
ENDBRANCH  31  32
ENDBRANCH  29  31
ENDBRANCH  27  29
ENDBRANCH  11  27
ENDBRANCH   2   3
TORSDOF 9
ENDMDL
MODEL      114
REMARK 921   NORMALIZED FREE ENERGY PREDICTED BY IDOCK:   -5.70 KCAL/MOL
REMARK 922        TOTAL FREE ENERGY PREDICTED BY IDOCK:   -9.67 KCAL/MOL
REMARK 923 INTER-LIGAND FREE ENERGY PREDICTED BY IDOCK:   -8.18 KCAL/MOL
REMARK 924 INTRA-LIGAND FREE ENERGY PREDICTED BY IDOCK:   -1.49 KCAL/MOL
REMARK 927      BINDING AFFINITY PREDICTED BY RF-SCORE:    0.00 PKD
ROOT
HETATM    1  C   UNL     1      -9.835   4.114  67.016  1.00  0.00    -0.151 C  
HETATM    2  O   UNL     1      -9.266   4.765  65.884  1.00  0.00    -0.136 OA 
ENDROOT
BRANCH   2   3
HETATM    3  C   UNL     1      -8.808   6.033  66.170  1.00  0.00    -0.148 A  
HETATM    4  C   UNL     1      -8.112   6.680  65.179  1.00  0.00    -0.133 A  
HETATM    5  C   UNL     1      -7.703   7.999  65.406  1.00  0.00    -0.096 A  
HETATM    6  C   UNL     1      -8.152   8.685  66.579  1.00  0.00    -0.103 A  
HETATM    7  C   UNL     1      -6.687   8.573  64.452  1.00  0.00    -0.066 C  
HETATM    8  C   UNL     1      -8.151  10.099  66.841  1.00  0.00    -0.121 A  
HETATM    9  C   UNL     1      -8.282  10.574  68.159  1.00  0.00    -0.114 A  
HETATM   10  C   UNL     1      -8.660   7.846  67.603  1.00  0.00    -0.127 A  
HETATM   11  C   UNL     1      -8.805   8.331  68.918  1.00  0.00    -0.140 A  
HETATM   12  N   UNL     1      -8.999   6.558  67.389  1.00  0.00    -0.111 NA 
HETATM   13  C   UNL     1      -8.574   9.679  69.185  1.00  0.00    -0.146 A  
BRANCH   8  14
HETATM   14  O   UNL     1      -8.073  11.075  65.868  1.00  0.00    -0.150 OA 
BRANCH  14  15
HETATM   15  C   UNL     1      -9.176  11.656  65.275  1.00  0.00    -0.027 A  
HETATM   16  C   UNL     1      -9.683  10.910  64.203  1.00  0.00    -0.347 A  
HETATM   17  C   UNL     1     -10.946  11.181  63.682  1.00  0.00    -0.237 A  
HETATM   18  F   UNL     1     -12.066  13.856  67.323  1.00  0.00    -0.389 F  
HETATM   19  F   UNL     1     -13.394  13.914  65.612  1.00  0.00    -0.491 F  
HETATM   20  C   UNL     1     -11.718  12.195  64.242  1.00  0.00    -0.451 A  
HETATM   21  C   UNL     1      -9.879  12.780  65.717  1.00  0.00    -0.222 A  
HETATM   22  C   UNL     1     -12.081  14.008  65.969  1.00  0.00    -0.439 C  
HETATM   23  F   UNL     1     -11.718  15.296  65.730  1.00  0.00    -0.259 F  
HETATM   24  C   UNL     1     -11.199  13.000  65.268  1.00  0.00    -0.316 A  
ENDBRANCH  14  15
ENDBRANCH   8  14
BRANCH   9  25
HETATM   25  O   UNL     1      -8.224  11.873  68.596  1.00  0.00    -0.140 OA 
HETATM   26  C   UNL     1      -6.942  12.431  68.851  1.00  0.00    -0.091 C  
ENDBRANCH   9  25
BRANCH  11  27
HETATM   27  N   UNL     1      -9.253   7.449  69.925  1.00  0.00    -0.145 NA 
HETATM   28  H   UNL     1      -8.579   6.839  70.388  1.00  0.00     0.000 HD 
BRANCH  27  29
HETATM   29  C   UNL     1     -10.660   7.386  70.323  1.00  0.00    -0.231 C  
HETATM   30  C   UNL     1     -10.964   5.942  70.731  1.00  0.00    -0.343 C  
BRANCH  29  31
HETATM   31  C   UNL     1     -10.936   8.324  71.513  1.00  0.00    -0.312 C  
BRANCH  31  32
HETATM   32  C   UNL     1     -12.216   8.018  72.298  1.00  0.00    -0.366 C  
BRANCH  32  33
HETATM   33  C   UNL     1     -13.363   9.017  72.112  1.00  0.00    -0.455 C  
HETATM   34  N   UNL     1     -14.330   8.958  73.210  1.00  0.00    -1.177 NA 
HETATM   35  H1  UNL     1     -15.094   9.623  73.087  1.00  0.00     0.000 HD 
HETATM   36  H2  UNL     1     -13.873   9.085  74.113  1.00  0.00     0.000 HD 
ENDBRANCH  32  33
ENDBRANCH  31  32
ENDBRANCH  29  31
ENDBRANCH  27  29
ENDBRANCH  11  27
ENDBRANCH   2   3
TORSDOF 9
ENDMDL
MODEL      115
REMARK 921   NORMALIZED FREE ENERGY PREDICTED BY IDOCK:   -5.70 KCAL/MOL
REMARK 922        TOTAL FREE ENERGY PREDICTED BY IDOCK:   -9.67 KCAL/MOL
REMARK 923 INTER-LIGAND FREE ENERGY PREDICTED BY IDOCK:   -7.98 KCAL/MOL
REMARK 924 INTRA-LIGAND FREE ENERGY PREDICTED BY IDOCK:   -1.68 KCAL/MOL
REMARK 927      BINDING AFFINITY PREDICTED BY RF-SCORE:    0.00 PKD
ROOT
HETATM    1  C   UNL     1     -12.282  14.655  64.391  1.00  0.00    -0.452 C  
HETATM    2  O   UNL     1     -12.565  14.423  65.768  1.00  0.00    -0.397 OA 
ENDROOT
BRANCH   2   3
HETATM    3  C   UNL     1     -11.600  13.661  66.391  1.00  0.00    -0.350 A  
HETATM    4  C   UNL     1     -12.013  12.481  66.958  1.00  0.00    -0.295 A  
HETATM    5  C   UNL     1     -11.048  11.643  67.528  1.00  0.00    -0.333 A  
HETATM    6  C   UNL     1      -9.659  11.954  67.365  1.00  0.00    -0.176 A  
HETATM    7  C   UNL     1     -11.545  10.525  68.407  1.00  0.00    -0.205 C  
HETATM    8  C   UNL     1      -8.524  11.092  67.552  1.00  0.00    -0.127 A  
HETATM    9  C   UNL     1      -7.238  11.639  67.706  1.00  0.00    -0.101 A  
HETATM   10  C   UNL     1      -9.390  13.288  66.970  1.00  0.00    -0.242 A  
HETATM   11  C   UNL     1      -8.095  13.828  67.111  1.00  0.00    -0.075 A  
HETATM   12  N   UNL     1     -10.339  14.108  66.474  1.00  0.00    -0.279 NA 
HETATM   13  C   UNL     1      -7.046  13.005  67.517  1.00  0.00    -0.158 A  
BRANCH   8  14
HETATM   14  O   UNL     1      -8.581   9.712  67.548  1.00  0.00    -0.125 OA 
BRANCH  14  15
HETATM   15  C   UNL     1      -8.795   8.951  68.680  1.00  0.00    -0.137 A  
HETATM   16  C   UNL     1      -8.400   9.593  69.860  1.00  0.00    -0.195 A  
HETATM   17  C   UNL     1      -8.805   9.112  71.103  1.00  0.00    -0.233 A  
HETATM   18  F   UNL     1     -11.989   6.317  69.174  1.00  0.00    -0.300 F  
HETATM   19  F   UNL     1     -11.566   6.024  71.279  1.00  0.00    -0.348 F  
HETATM   20  C   UNL     1      -9.623   7.988  71.171  1.00  0.00    -0.189 A  
HETATM   21  C   UNL     1      -9.468   7.729  68.761  1.00  0.00    -0.149 A  
HETATM   22  C   UNL     1     -10.967   6.153  70.061  1.00  0.00    -0.372 C  
HETATM   23  F   UNL     1     -10.416   4.942  69.783  1.00  0.00    -0.333 F  
HETATM   24  C   UNL     1      -9.970   7.289  70.004  1.00  0.00    -0.184 A  
ENDBRANCH  14  15
ENDBRANCH   8  14
BRANCH   9  25
HETATM   25  O   UNL     1      -6.066  10.976  67.968  1.00  0.00    -0.049 OA 
HETATM   26  C   UNL     1      -5.143  10.810  66.899  1.00  0.00    -0.048 C  
ENDBRANCH   9  25
BRANCH  11  27
HETATM   27  N   UNL     1      -7.878  15.180  66.767  1.00  0.00    -0.302 NA 
HETATM   28  H   UNL     1      -8.102  15.495  65.823  1.00  0.00     0.000 HD 
BRANCH  27  29
HETATM   29  C   UNL     1      -7.339  16.142  67.730  1.00  0.00    -0.135 C  
HETATM   30  C   UNL     1      -6.514  17.168  66.949  1.00  0.00    -0.239 C  
BRANCH  29  31
HETATM   31  C   UNL     1      -8.476  16.861  68.480  1.00  0.00    -0.258 C  
BRANCH  31  32
HETATM   32  C   UNL     1      -9.087  18.057  67.741  1.00  0.00    -0.262 C  
BRANCH  32  33
HETATM   33  C   UNL     1     -10.417  17.787  67.031  1.00  0.00    -0.322 C  
HETATM   34  N   UNL     1     -10.226  17.224  65.693  1.00  0.00    -0.613 NA 
HETATM   35  H1  UNL     1     -11.111  17.044  65.220  1.00  0.00     0.000 HD 
HETATM   36  H2  UNL     1      -9.648  16.384  65.725  1.00  0.00     0.000 HD 
ENDBRANCH  32  33
ENDBRANCH  31  32
ENDBRANCH  29  31
ENDBRANCH  27  29
ENDBRANCH  11  27
ENDBRANCH   2   3
TORSDOF 9
ENDMDL
MODEL      116
REMARK 921   NORMALIZED FREE ENERGY PREDICTED BY IDOCK:   -5.69 KCAL/MOL
REMARK 922        TOTAL FREE ENERGY PREDICTED BY IDOCK:   -9.66 KCAL/MOL
REMARK 923 INTER-LIGAND FREE ENERGY PREDICTED BY IDOCK:   -8.67 KCAL/MOL
REMARK 924 INTRA-LIGAND FREE ENERGY PREDICTED BY IDOCK:   -0.99 KCAL/MOL
REMARK 927      BINDING AFFINITY PREDICTED BY RF-SCORE:    0.00 PKD
ROOT
HETATM    1  C   UNL     1      -7.096  17.904  67.589  1.00  0.00    -0.196 C  
HETATM    2  O   UNL     1      -8.482  18.171  67.782  1.00  0.00    -0.242 OA 
ENDROOT
BRANCH   2   3
HETATM    3  C   UNL     1      -9.282  17.093  67.476  1.00  0.00    -0.233 A  
HETATM    4  C   UNL     1      -9.670  16.960  66.165  1.00  0.00    -0.296 A  
HETATM    5  C   UNL     1     -10.416  15.832  65.803  1.00  0.00    -0.384 A  
HETATM    6  C   UNL     1     -10.614  14.782  66.756  1.00  0.00    -0.302 A  
HETATM    7  C   UNL     1     -11.089  15.861  64.455  1.00  0.00    -0.285 C  
HETATM    8  C   UNL     1     -11.028  13.426  66.516  1.00  0.00    -0.290 A  
HETATM    9  C   UNL     1     -11.521  12.639  67.572  1.00  0.00    -0.340 A  
HETATM   10  C   UNL     1     -10.365  15.144  68.103  1.00  0.00    -0.239 A  
HETATM   11  C   UNL     1     -10.846  14.344  69.159  1.00  0.00    -0.257 A  
HETATM   12  N   UNL     1      -9.694  16.263  68.446  1.00  0.00    -0.217 NA 
HETATM   13  C   UNL     1     -11.454  13.122  68.877  1.00  0.00    -0.343 A  
BRANCH   8  14
HETATM   14  O   UNL     1     -10.941  12.785  65.295  1.00  0.00    -0.276 OA 
BRANCH  14  15
HETATM   15  C   UNL     1     -10.116  11.705  65.054  1.00  0.00    -0.263 A  
HETATM   16  C   UNL     1     -10.400  11.054  63.846  1.00  0.00    -0.436 A  
HETATM   17  C   UNL     1      -9.499  10.143  63.300  1.00  0.00    -0.302 A  
HETATM   18  F   UNL     1      -6.109  11.504  66.186  1.00  0.00    -0.132 F  
HETATM   19  F   UNL     1      -5.760   9.701  65.036  1.00  0.00    -0.057 F  
HETATM   20  C   UNL     1      -8.297   9.887  63.955  1.00  0.00    -0.168 A  
HETATM   21  C   UNL     1      -8.995  11.317  65.791  1.00  0.00    -0.191 A  
HETATM   22  C   UNL     1      -6.671  10.310  65.848  1.00  0.00    -0.117 C  
HETATM   23  F   UNL     1      -6.708   9.573  66.989  1.00  0.00    -0.068 F  
HETATM   24  C   UNL     1      -8.028  10.476  65.201  1.00  0.00    -0.094 A  
ENDBRANCH  14  15
ENDBRANCH   8  14
BRANCH   9  25
HETATM   25  O   UNL     1     -12.027  11.366  67.510  1.00  0.00    -0.626 OA 
HETATM   26  C   UNL     1     -11.443  10.377  68.347  1.00  0.00    -0.155 C  
ENDBRANCH   9  25
BRANCH  11  27
HETATM   27  N   UNL     1     -10.634  14.770  70.489  1.00  0.00    -0.485 NA 
HETATM   28  H   UNL     1      -9.731  14.595  70.929  1.00  0.00     0.000 HD 
BRANCH  27  29
HETATM   29  C   UNL     1     -11.679  15.453  71.253  1.00  0.00    -0.380 C  
HETATM   30  C   UNL     1     -12.804  15.815  70.280  1.00  0.00    -0.005 C  
BRANCH  29  31
HETATM   31  C   UNL     1     -12.233  14.540  72.362  1.00  0.00    -0.249 C  
BRANCH  31  32
HETATM   32  C   UNL     1     -13.513  13.779  71.998  1.00  0.00    -0.559 C  
BRANCH  32  33
HETATM   33  C   UNL     1     -13.496  12.275  72.289  1.00  0.00    -0.260 C  
HETATM   34  N   UNL     1     -12.434  11.582  71.556  1.00  0.00    -0.225 NA 
HETATM   35  H1  UNL     1     -12.421  10.581  71.750  1.00  0.00     0.000 HD 
HETATM   36  H2  UNL     1     -11.523  12.004  71.739  1.00  0.00     0.000 HD 
ENDBRANCH  32  33
ENDBRANCH  31  32
ENDBRANCH  29  31
ENDBRANCH  27  29
ENDBRANCH  11  27
ENDBRANCH   2   3
TORSDOF 9
ENDMDL
MODEL      117
REMARK 921   NORMALIZED FREE ENERGY PREDICTED BY IDOCK:   -5.69 KCAL/MOL
REMARK 922        TOTAL FREE ENERGY PREDICTED BY IDOCK:   -9.66 KCAL/MOL
REMARK 923 INTER-LIGAND FREE ENERGY PREDICTED BY IDOCK:   -8.79 KCAL/MOL
REMARK 924 INTRA-LIGAND FREE ENERGY PREDICTED BY IDOCK:   -0.86 KCAL/MOL
REMARK 927      BINDING AFFINITY PREDICTED BY RF-SCORE:    0.00 PKD
ROOT
HETATM    1  C   UNL     1     -11.352  16.967  68.441  1.00  0.00     0.019 C  
HETATM    2  O   UNL     1     -12.231  16.422  69.422  1.00  0.00     0.067 OA 
ENDROOT
BRANCH   2   3
HETATM    3  C   UNL     1     -12.042  15.071  69.617  1.00  0.00    -0.300 A  
HETATM    4  C   UNL     1     -12.594  14.525  70.750  1.00  0.00    -0.418 A  
HETATM    5  C   UNL     1     -12.492  13.142  70.939  1.00  0.00    -0.407 A  
HETATM    6  C   UNL     1     -11.968  12.323  69.888  1.00  0.00    -0.377 A  
HETATM    7  C   UNL     1     -12.818  12.614  72.312  1.00  0.00    -0.110 C  
HETATM    8  C   UNL     1     -12.088  10.900  69.723  1.00  0.00    -0.338 A  
HETATM    9  C   UNL     1     -11.223  10.213  68.852  1.00  0.00    -0.170 A  
HETATM   10  C   UNL     1     -11.242  13.022  68.893  1.00  0.00    -0.278 A  
HETATM   11  C   UNL     1     -10.388  12.329  68.011  1.00  0.00    -0.214 A  
HETATM   12  N   UNL     1     -11.301  14.362  68.752  1.00  0.00    -0.257 NA 
HETATM   13  C   UNL     1     -10.361  10.935  68.031  1.00  0.00    -0.212 A  
BRANCH   8  14
HETATM   14  O   UNL     1     -13.048  10.118  70.337  1.00  0.00    -0.225 OA 
BRANCH  14  15
HETATM   15  C   UNL     1     -12.755   9.086  71.206  1.00  0.00    -0.262 A  
HETATM   16  C   UNL     1     -13.738   8.088  71.228  1.00  0.00    -0.218 A  
HETATM   17  C   UNL     1     -13.481   6.849  71.810  1.00  0.00    -0.250 A  
HETATM   18  F   UNL     1      -8.906   7.690  71.991  1.00  0.00    -0.119 F  
HETATM   19  F   UNL     1      -9.634   5.963  73.078  1.00  0.00    -0.152 F  
HETATM   20  C   UNL     1     -12.228   6.595  72.363  1.00  0.00    -0.078 A  
HETATM   21  C   UNL     1     -11.566   8.888  71.913  1.00  0.00    -0.442 A  
HETATM   22  C   UNL     1      -9.854   7.295  72.886  1.00  0.00    -0.196 C  
HETATM   23  F   UNL     1      -9.538   7.900  74.062  1.00  0.00    -0.319 F  
HETATM   24  C   UNL     1     -11.256   7.607  72.414  1.00  0.00    -0.372 A  
ENDBRANCH  14  15
ENDBRANCH   8  14
BRANCH   9  25
HETATM   25  O   UNL     1     -11.146   8.861  68.634  1.00  0.00     0.040 OA 
HETATM   26  C   UNL     1     -10.365   8.409  67.535  1.00  0.00    -0.265 C  
ENDBRANCH   9  25
BRANCH  11  27
HETATM   27  N   UNL     1      -9.631  13.065  67.074  1.00  0.00    -0.229 NA 
HETATM   28  H   UNL     1      -8.621  13.138  67.198  1.00  0.00     0.000 HD 
BRANCH  27  29
HETATM   29  C   UNL     1     -10.257  13.728  65.929  1.00  0.00    -0.313 C  
HETATM   30  C   UNL     1      -9.514  15.045  65.691  1.00  0.00    -0.179 C  
BRANCH  29  31
HETATM   31  C   UNL     1     -10.162  12.849  64.668  1.00  0.00    -0.321 C  
BRANCH  31  32
HETATM   32  C   UNL     1     -11.374  11.946  64.411  1.00  0.00    -0.395 C  
BRANCH  32  33
HETATM   33  C   UNL     1     -12.318  12.407  63.297  1.00  0.00    -0.391 C  
HETATM   34  N   UNL     1     -12.432  13.865  63.235  1.00  0.00    -1.112 NA 
HETATM   35  H1  UNL     1     -13.061  14.172  62.493  1.00  0.00     0.000 HD 
HETATM   36  H2  UNL     1     -11.516  14.304  63.146  1.00  0.00     0.000 HD 
ENDBRANCH  32  33
ENDBRANCH  31  32
ENDBRANCH  29  31
ENDBRANCH  27  29
ENDBRANCH  11  27
ENDBRANCH   2   3
TORSDOF 9
ENDMDL
MODEL      118
REMARK 921   NORMALIZED FREE ENERGY PREDICTED BY IDOCK:   -5.68 KCAL/MOL
REMARK 922        TOTAL FREE ENERGY PREDICTED BY IDOCK:   -9.63 KCAL/MOL
REMARK 923 INTER-LIGAND FREE ENERGY PREDICTED BY IDOCK:   -7.65 KCAL/MOL
REMARK 924 INTRA-LIGAND FREE ENERGY PREDICTED BY IDOCK:   -1.99 KCAL/MOL
REMARK 927      BINDING AFFINITY PREDICTED BY RF-SCORE:    0.00 PKD
ROOT
HETATM    1  C   UNL     1      -9.023   4.325  63.840  1.00  0.00    -0.141 C  
HETATM    2  O   UNL     1      -8.407   5.510  63.344  1.00  0.00    -0.124 OA 
ENDROOT
BRANCH   2   3
HETATM    3  C   UNL     1      -8.139   6.429  64.334  1.00  0.00    -0.076 A  
HETATM    4  C   UNL     1      -7.749   7.682  63.929  1.00  0.00    -0.126 A  
HETATM    5  C   UNL     1      -7.547   8.664  64.906  1.00  0.00    -0.100 A  
HETATM    6  C   UNL     1      -7.904   8.390  66.266  1.00  0.00    -0.098 A  
HETATM    7  C   UNL     1      -6.829   9.917  64.478  1.00  0.00    -0.124 C  
HETATM    8  C   UNL     1      -8.108   9.324  67.339  1.00  0.00    -0.110 A  
HETATM    9  C   UNL     1      -8.093   8.881  68.674  1.00  0.00    -0.111 A  
HETATM   10  C   UNL     1      -8.071   7.017  66.573  1.00  0.00    -0.111 A  
HETATM   11  C   UNL     1      -8.072   6.579  67.913  1.00  0.00    -0.116 A  
HETATM   12  N   UNL     1      -8.209   6.068  65.624  1.00  0.00    -0.133 NA 
HETATM   13  C   UNL     1      -8.041   7.516  68.944  1.00  0.00    -0.127 A  
BRANCH   8  14
HETATM   14  O   UNL     1      -8.373  10.669  67.168  1.00  0.00    -0.123 OA 
BRANCH  14  15
HETATM   15  C   UNL     1      -9.615  11.169  66.835  1.00  0.00    -0.186 A  
HETATM   16  C   UNL     1     -10.258  11.807  67.904  1.00  0.00    -0.203 A  
HETATM   17  C   UNL     1     -11.369  12.618  67.685  1.00  0.00    -0.362 A  
HETATM   18  F   UNL     1     -10.603  12.724  63.095  1.00  0.00    -0.324 F  
HETATM   19  F   UNL     1     -12.500  13.501  63.796  1.00  0.00    -0.450 F  
HETATM   20  C   UNL     1     -11.838  12.807  66.388  1.00  0.00    -0.472 A  
HETATM   21  C   UNL     1     -10.192  11.222  65.563  1.00  0.00    -0.312 A  
HETATM   22  C   UNL     1     -11.667  12.425  63.892  1.00  0.00    -0.447 C  
HETATM   23  F   UNL     1     -12.314  11.394  63.288  1.00  0.00    -0.525 F  
HETATM   24  C   UNL     1     -11.252  12.119  65.313  1.00  0.00    -0.381 A  
ENDBRANCH  14  15
ENDBRANCH   8  14
BRANCH   9  25
HETATM   25  O   UNL     1      -8.192   9.638  69.814  1.00  0.00    -0.126 OA 
HETATM   26  C   UNL     1      -9.285   9.384  70.687  1.00  0.00    -0.242 C  
ENDBRANCH   9  25
BRANCH  11  27
HETATM   27  N   UNL     1      -8.177   5.196  68.179  1.00  0.00    -0.097 NA 
HETATM   28  H   UNL     1      -7.362   4.600  68.039  1.00  0.00     0.000 HD 
BRANCH  27  29
HETATM   29  C   UNL     1      -9.427   4.597  68.651  1.00  0.00    -0.152 C  
HETATM   30  C   UNL     1      -9.521   3.190  68.054  1.00  0.00    -0.218 C  
BRANCH  29  31
HETATM   31  C   UNL     1      -9.443   4.504  70.188  1.00  0.00    -0.237 C  
BRANCH  31  32
HETATM   32  C   UNL     1     -10.515   5.355  70.879  1.00  0.00    -0.307 C  
BRANCH  32  33
HETATM   33  C   UNL     1     -11.393   6.198  69.949  1.00  0.00    -0.384 C  
HETATM   34  N   UNL     1     -12.374   6.996  70.687  1.00  0.00    -0.601 NA 
HETATM   35  H1  UNL     1     -12.958   7.558  70.068  1.00  0.00     0.000 HD 
HETATM   36  H2  UNL     1     -11.921   7.576  71.393  1.00  0.00     0.000 HD 
ENDBRANCH  32  33
ENDBRANCH  31  32
ENDBRANCH  29  31
ENDBRANCH  27  29
ENDBRANCH  11  27
ENDBRANCH   2   3
TORSDOF 9
ENDMDL
MODEL      119
REMARK 921   NORMALIZED FREE ENERGY PREDICTED BY IDOCK:   -5.64 KCAL/MOL
REMARK 922        TOTAL FREE ENERGY PREDICTED BY IDOCK:   -9.58 KCAL/MOL
REMARK 923 INTER-LIGAND FREE ENERGY PREDICTED BY IDOCK:   -7.66 KCAL/MOL
REMARK 924 INTRA-LIGAND FREE ENERGY PREDICTED BY IDOCK:   -1.92 KCAL/MOL
REMARK 927      BINDING AFFINITY PREDICTED BY RF-SCORE:    0.00 PKD
ROOT
HETATM    1  C   UNL     1     -12.990  12.402  64.002  1.00  0.00    -0.159 C  
HETATM    2  O   UNL     1     -12.833  13.423  64.983  1.00  0.00    -0.685 OA 
ENDROOT
BRANCH   2   3
HETATM    3  C   UNL     1     -11.767  13.196  65.826  1.00  0.00    -0.374 A  
HETATM    4  C   UNL     1     -11.729  11.980  66.464  1.00  0.00    -0.330 A  
HETATM    5  C   UNL     1     -10.619  11.684  67.264  1.00  0.00    -0.265 A  
HETATM    6  C   UNL     1      -9.495  12.571  67.268  1.00  0.00    -0.193 A  
HETATM    7  C   UNL     1     -10.740  10.501  68.189  1.00  0.00    -0.273 C  
HETATM    8  C   UNL     1      -8.155  12.309  67.719  1.00  0.00    -0.155 A  
HETATM    9  C   UNL     1      -7.280  13.377  67.991  1.00  0.00    -0.123 A  
HETATM   10  C   UNL     1      -9.757  13.867  66.759  1.00  0.00    -0.279 A  
HETATM   11  C   UNL     1      -8.869  14.930  67.021  1.00  0.00    -0.232 A  
HETATM   12  N   UNL     1     -10.857  14.159  66.036  1.00  0.00    -0.293 NA 
HETATM   13  C   UNL     1      -7.662  14.677  67.670  1.00  0.00    -0.194 A  
BRANCH   8  14
HETATM   14  O   UNL     1      -7.612  11.049  67.872  1.00  0.00    -0.092 OA 
BRANCH  14  15
HETATM   15  C   UNL     1      -7.419  10.165  66.830  1.00  0.00    -0.104 A  
HETATM   16  C   UNL     1      -7.111   8.867  67.257  1.00  0.00    -0.083 A  
HETATM   17  C   UNL     1      -7.175   7.792  66.372  1.00  0.00    -0.075 A  
HETATM   18  F   UNL     1      -9.476  10.312  63.207  1.00  0.00    -0.258 F  
HETATM   19  F   UNL     1      -8.718   8.385  62.571  1.00  0.00    -0.189 F  
HETATM   20  C   UNL     1      -7.561   8.010  65.053  1.00  0.00    -0.104 A  
HETATM   21  C   UNL     1      -7.636  10.402  65.470  1.00  0.00    -0.144 A  
HETATM   22  C   UNL     1      -8.354   9.539  63.199  1.00  0.00    -0.180 C  
HETATM   23  F   UNL     1      -7.475  10.158  62.368  1.00  0.00    -0.115 F  
HETATM   24  C   UNL     1      -7.803   9.313  64.589  1.00  0.00    -0.120 A  
ENDBRANCH  14  15
ENDBRANCH   8  14
BRANCH   9  25
HETATM   25  O   UNL     1      -6.007  13.314  68.497  1.00  0.00    -0.073 OA 
HETATM   26  C   UNL     1      -5.834  13.532  69.891  1.00  0.00    -0.124 C  
ENDBRANCH   9  25
BRANCH  11  27
HETATM   27  N   UNL     1      -9.194  16.222  66.553  1.00  0.00    -0.246 NA 
HETATM   28  H   UNL     1      -9.176  16.406  65.550  1.00  0.00     0.000 HD 
BRANCH  27  29
HETATM   29  C   UNL     1      -9.557  17.304  67.469  1.00  0.00    -0.259 C  
HETATM   30  C   UNL     1      -9.665  18.592  66.649  1.00  0.00    -0.353 C  
BRANCH  29  31
HETATM   31  C   UNL     1     -10.908  17.015  68.151  1.00  0.00    -0.338 C  
BRANCH  31  32
HETATM   32  C   UNL     1     -10.811  16.475  69.582  1.00  0.00    -0.322 C  
BRANCH  32  33
HETATM   33  C   UNL     1     -11.443  15.099  69.815  1.00  0.00    -0.297 C  
HETATM   34  N   UNL     1     -12.868  15.192  70.140  1.00  0.00    -0.625 NA 
HETATM   35  H1  UNL     1     -13.289  14.276  70.295  1.00  0.00     0.000 HD 
HETATM   36  H2  UNL     1     -13.375  15.715  69.427  1.00  0.00     0.000 HD 
ENDBRANCH  32  33
ENDBRANCH  31  32
ENDBRANCH  29  31
ENDBRANCH  27  29
ENDBRANCH  11  27
ENDBRANCH   2   3
TORSDOF 9
ENDMDL
MODEL      120
REMARK 921   NORMALIZED FREE ENERGY PREDICTED BY IDOCK:   -5.64 KCAL/MOL
REMARK 922        TOTAL FREE ENERGY PREDICTED BY IDOCK:   -9.57 KCAL/MOL
REMARK 923 INTER-LIGAND FREE ENERGY PREDICTED BY IDOCK:   -8.19 KCAL/MOL
REMARK 924 INTRA-LIGAND FREE ENERGY PREDICTED BY IDOCK:   -1.39 KCAL/MOL
REMARK 927      BINDING AFFINITY PREDICTED BY RF-SCORE:    0.00 PKD
ROOT
HETATM    1  C   UNL     1      -6.333  10.004  70.779  1.00  0.00    -0.074 C  
HETATM    2  O   UNL     1      -6.396  10.232  69.374  1.00  0.00    -0.044 OA 
ENDROOT
BRANCH   2   3
HETATM    3  C   UNL     1      -7.319  11.196  69.030  1.00  0.00    -0.120 A  
HETATM    4  C   UNL     1      -6.831  12.449  68.750  1.00  0.00    -0.092 A  
HETATM    5  C   UNL     1      -7.730  13.431  68.318  1.00  0.00    -0.141 A  
HETATM    6  C   UNL     1      -9.084  13.069  68.027  1.00  0.00    -0.210 A  
HETATM    7  C   UNL     1      -7.239  14.856  68.319  1.00  0.00    -0.114 C  
HETATM    8  C   UNL     1     -10.059  13.802  67.266  1.00  0.00    -0.239 A  
HETATM    9  C   UNL     1     -11.426  13.490  67.381  1.00  0.00    -0.336 A  
HETATM   10  C   UNL     1      -9.498  11.826  68.568  1.00  0.00    -0.163 A  
HETATM   11  C   UNL     1     -10.868  11.510  68.666  1.00  0.00    -0.212 A  
HETATM   12  N   UNL     1      -8.628  10.907  69.034  1.00  0.00    -0.139 NA 
HETATM   13  C   UNL     1     -11.815  12.367  68.107  1.00  0.00    -0.372 A  
BRANCH   8  14
HETATM   14  O   UNL     1      -9.757  14.800  66.360  1.00  0.00    -0.261 OA 
BRANCH  14  15
HETATM   15  C   UNL     1      -9.685  16.138  66.689  1.00  0.00    -0.244 A  
HETATM   16  C   UNL     1     -10.514  16.487  67.764  1.00  0.00    -0.308 A  
HETATM   17  C   UNL     1     -10.356  17.707  68.417  1.00  0.00    -0.375 A  
HETATM   18  F   UNL     1      -6.232  18.454  66.393  1.00  0.00    -0.175 F  
HETATM   19  F   UNL     1      -7.122  20.117  67.460  1.00  0.00    -0.264 F  
HETATM   20  C   UNL     1      -9.355  18.583  68.007  1.00  0.00    -0.321 A  
HETATM   21  C   UNL     1      -8.802  17.090  66.172  1.00  0.00    -0.251 A  
HETATM   22  C   UNL     1      -7.389  19.162  66.523  1.00  0.00    -0.236 C  
HETATM   23  F   UNL     1      -7.560  19.826  65.349  1.00  0.00    -0.317 F  
HETATM   24  C   UNL     1      -8.563  18.282  66.887  1.00  0.00    -0.270 A  
ENDBRANCH  14  15
ENDBRANCH   8  14
BRANCH   9  25
HETATM   25  O   UNL     1     -12.488  14.130  66.795  1.00  0.00    -0.396 OA 
HETATM   26  C   UNL     1     -12.681  13.955  65.397  1.00  0.00    -0.490 C  
ENDBRANCH   9  25
BRANCH  11  27
HETATM   27  N   UNL     1     -11.246  10.291  69.268  1.00  0.00    -0.285 NA 
HETATM   28  H   UNL     1     -11.461   9.489  68.675  1.00  0.00     0.000 HD 
BRANCH  27  29
HETATM   29  C   UNL     1     -11.338  10.147  70.722  1.00  0.00    -0.354 C  
HETATM   30  C   UNL     1     -12.737  10.604  71.146  1.00  0.00    -0.522 C  
BRANCH  29  31
HETATM   31  C   UNL     1     -11.128   8.680  71.142  1.00  0.00    -0.324 C  
BRANCH  31  32
HETATM   32  C   UNL     1      -9.673   8.286  71.422  1.00  0.00    -0.237 C  
BRANCH  32  33
HETATM   33  C   UNL     1      -9.009   7.406  70.359  1.00  0.00    -0.150 C  
HETATM   34  N   UNL     1      -9.177   7.947  69.008  1.00  0.00    -0.148 NA 
HETATM   35  H1  UNL     1      -8.734   7.362  68.300  1.00  0.00     0.000 HD 
HETATM   36  H2  UNL     1      -8.843   8.909  68.952  1.00  0.00     0.000 HD 
ENDBRANCH  32  33
ENDBRANCH  31  32
ENDBRANCH  29  31
ENDBRANCH  27  29
ENDBRANCH  11  27
ENDBRANCH   2   3
TORSDOF 9
ENDMDL
MODEL      121
REMARK 921   NORMALIZED FREE ENERGY PREDICTED BY IDOCK:   -5.63 KCAL/MOL
REMARK 922        TOTAL FREE ENERGY PREDICTED BY IDOCK:   -9.56 KCAL/MOL
REMARK 923 INTER-LIGAND FREE ENERGY PREDICTED BY IDOCK:   -7.75 KCAL/MOL
REMARK 924 INTRA-LIGAND FREE ENERGY PREDICTED BY IDOCK:   -1.82 KCAL/MOL
REMARK 927      BINDING AFFINITY PREDICTED BY RF-SCORE:    0.00 PKD
ROOT
HETATM    1  C   UNL     1     -12.872   9.285  72.042  1.00  0.00    -0.415 C  
HETATM    2  O   UNL     1     -12.991  10.121  70.895  1.00  0.00    -0.365 OA 
ENDROOT
BRANCH   2   3
HETATM    3  C   UNL     1     -11.817  10.219  70.180  1.00  0.00    -0.263 A  
HETATM    4  C   UNL     1     -10.689   9.698  70.765  1.00  0.00    -0.401 A  
HETATM    5  C   UNL     1      -9.496   9.708  70.034  1.00  0.00    -0.277 A  
HETATM    6  C   UNL     1      -9.515  10.103  68.658  1.00  0.00    -0.164 A  
HETATM    7  C   UNL     1      -8.225   9.427  70.794  1.00  0.00    -0.173 C  
HETATM    8  C   UNL     1      -8.518   9.867  67.648  1.00  0.00    -0.114 A  
HETATM    9  C   UNL     1      -8.520  10.624  66.463  1.00  0.00    -0.144 A  
HETATM   10  C   UNL     1     -10.671  10.818  68.259  1.00  0.00    -0.213 A  
HETATM   11  C   UNL     1     -10.674  11.562  67.062  1.00  0.00    -0.259 A  
HETATM   12  N   UNL     1     -11.800  10.851  68.997  1.00  0.00    -0.342 NA 
HETATM   13  C   UNL     1      -9.581  11.486  66.200  1.00  0.00    -0.248 A  
BRANCH   8  14
HETATM   14  O   UNL     1      -7.544   8.891  67.723  1.00  0.00    -0.092 OA 
BRANCH  14  15
HETATM   15  C   UNL     1      -7.704   7.609  67.238  1.00  0.00    -0.113 A  
HETATM   16  C   UNL     1      -6.492   6.925  67.076  1.00  0.00    -0.046 A  
HETATM   17  C   UNL     1      -6.474   5.546  66.883  1.00  0.00    -0.044 A  
HETATM   18  F   UNL     1     -10.937   5.136  68.142  1.00  0.00    -0.101 F  
HETATM   19  F   UNL     1     -10.004   3.401  67.241  1.00  0.00    -0.188 F  
HETATM   20  C   UNL     1      -7.672   4.838  66.864  1.00  0.00    -0.091 A  
HETATM   21  C   UNL     1      -8.906   6.923  67.045  1.00  0.00    -0.119 A  
HETATM   22  C   UNL     1     -10.193   4.741  67.071  1.00  0.00    -0.158 C  
HETATM   23  F   UNL     1     -10.997   4.871  65.983  1.00  0.00    -0.336 F  
HETATM   24  C   UNL     1      -8.899   5.515  66.952  1.00  0.00    -0.112 A  
ENDBRANCH  14  15
ENDBRANCH   8  14
BRANCH   9  25
HETATM   25  O   UNL     1      -7.609  10.586  65.438  1.00  0.00    -0.147 OA 
HETATM   26  C   UNL     1      -7.881   9.727  64.338  1.00  0.00    -0.137 C  
ENDBRANCH   9  25
BRANCH  11  27
HETATM   27  N   UNL     1     -11.822  12.313  66.728  1.00  0.00    -0.591 NA 
HETATM   28  H   UNL     1     -12.733  11.854  66.723  1.00  0.00     0.000 HD 
BRANCH  27  29
HETATM   29  C   UNL     1     -11.739  13.734  66.387  1.00  0.00    -0.379 C  
HETATM   30  C   UNL     1     -12.699  13.990  65.222  1.00  0.00    -0.468 C  
BRANCH  29  31
HETATM   31  C   UNL     1     -12.144  14.610  67.588  1.00  0.00    -0.216 C  
BRANCH  31  32
HETATM   32  C   UNL     1     -11.037  15.523  68.128  1.00  0.00    -0.325 C  
BRANCH  32  33
HETATM   33  C   UNL     1     -10.072  14.876  69.125  1.00  0.00    -0.226 C  
HETATM   34  N   UNL     1     -10.297  15.341  70.496  1.00  0.00    -0.482 NA 
HETATM   35  H1  UNL     1      -9.655  14.910  71.160  1.00  0.00     0.000 HD 
HETATM   36  H2  UNL     1     -11.267  15.201  70.778  1.00  0.00     0.000 HD 
ENDBRANCH  32  33
ENDBRANCH  31  32
ENDBRANCH  29  31
ENDBRANCH  27  29
ENDBRANCH  11  27
ENDBRANCH   2   3
TORSDOF 9
ENDMDL
MODEL      122
REMARK 921   NORMALIZED FREE ENERGY PREDICTED BY IDOCK:   -5.63 KCAL/MOL
REMARK 922        TOTAL FREE ENERGY PREDICTED BY IDOCK:   -9.56 KCAL/MOL
REMARK 923 INTER-LIGAND FREE ENERGY PREDICTED BY IDOCK:   -8.38 KCAL/MOL
REMARK 924 INTRA-LIGAND FREE ENERGY PREDICTED BY IDOCK:   -1.18 KCAL/MOL
REMARK 927      BINDING AFFINITY PREDICTED BY RF-SCORE:    0.00 PKD
ROOT
HETATM    1  C   UNL     1      -6.943   9.945  65.019  1.00  0.00    -0.130 C  
HETATM    2  O   UNL     1      -7.983   8.979  64.891  1.00  0.00    -0.113 OA 
ENDROOT
BRANCH   2   3
HETATM    3  C   UNL     1      -8.885   9.022  65.932  1.00  0.00    -0.175 A  
HETATM    4  C   UNL     1      -9.437   7.828  66.324  1.00  0.00    -0.201 A  
HETATM    5  C   UNL     1     -10.295   7.823  67.430  1.00  0.00    -0.354 A  
HETATM    6  C   UNL     1     -10.445   9.014  68.211  1.00  0.00    -0.247 A  
HETATM    7  C   UNL     1     -11.122   6.583  67.649  1.00  0.00    -0.380 C  
HETATM    8  C   UNL     1     -10.975   9.147  69.541  1.00  0.00    -0.123 A  
HETATM    9  C   UNL     1     -11.387  10.406  70.015  1.00  0.00    -0.313 A  
HETATM   10  C   UNL     1     -10.011  10.203  67.574  1.00  0.00    -0.191 A  
HETATM   11  C   UNL     1     -10.412  11.463  68.062  1.00  0.00    -0.188 A  
HETATM   12  N   UNL     1      -9.230  10.199  66.475  1.00  0.00    -0.151 NA 
HETATM   13  C   UNL     1     -11.130  11.544  69.255  1.00  0.00    -0.305 A  
BRANCH   8  14
HETATM   14  O   UNL     1     -11.080   8.112  70.450  1.00  0.00    -0.253 OA 
BRANCH  14  15
HETATM   15  C   UNL     1     -10.008   7.593  71.147  1.00  0.00    -0.177 A  
HETATM   16  C   UNL     1      -9.554   8.436  72.170  1.00  0.00    -0.367 A  
HETATM   17  C   UNL     1      -8.689   7.961  73.153  1.00  0.00    -0.278 A  
HETATM   18  F   UNL     1      -9.447   3.535  71.924  1.00  0.00    -0.153 F  
HETATM   19  F   UNL     1      -7.816   3.911  73.300  1.00  0.00    -0.076 F  
HETATM   20  C   UNL     1      -8.282   6.630  73.126  1.00  0.00    -0.117 A  
HETATM   21  C   UNL     1      -9.461   6.313  71.026  1.00  0.00    -0.187 A  
HETATM   22  C   UNL     1      -8.344   4.314  72.109  1.00  0.00    -0.103 C  
HETATM   23  F   UNL     1      -7.451   3.936  71.156  1.00  0.00    -0.041 F  
HETATM   24  C   UNL     1      -8.669   5.790  72.069  1.00  0.00    -0.137 A  
ENDBRANCH  14  15
ENDBRANCH   8  14
BRANCH   9  25
HETATM   25  O   UNL     1     -11.981  10.700  71.216  1.00  0.00    -0.331 OA 
HETATM   26  C   UNL     1     -13.388  10.525  71.322  1.00  0.00    -0.200 C  
ENDBRANCH   9  25
BRANCH  11  27
HETATM   27  N   UNL     1     -10.013  12.624  67.365  1.00  0.00    -0.203 NA 
HETATM   28  H   UNL     1      -9.285  13.217  67.764  1.00  0.00     0.000 HD 
BRANCH  27  29
HETATM   29  C   UNL     1     -10.617  12.999  66.086  1.00  0.00    -0.277 C  
HETATM   30  C   UNL     1     -12.113  13.223  66.327  1.00  0.00    -0.472 C  
BRANCH  29  31
HETATM   31  C   UNL     1      -9.986  14.293  65.540  1.00  0.00    -0.341 C  
BRANCH  31  32
HETATM   32  C   UNL     1     -10.721  15.584  65.919  1.00  0.00    -0.346 C  
BRANCH  32  33
HETATM   33  C   UNL     1     -11.087  16.505  64.751  1.00  0.00    -0.186 C  
HETATM   34  N   UNL     1     -11.964  15.846  63.780  1.00  0.00    -1.266 NA 
HETATM   35  H1  UNL     1     -12.208  16.459  63.003  1.00  0.00     0.000 HD 
HETATM   36  H2  UNL     1     -12.799  15.473  64.232  1.00  0.00     0.000 HD 
ENDBRANCH  32  33
ENDBRANCH  31  32
ENDBRANCH  29  31
ENDBRANCH  27  29
ENDBRANCH  11  27
ENDBRANCH   2   3
TORSDOF 9
ENDMDL
MODEL      123
REMARK 921   NORMALIZED FREE ENERGY PREDICTED BY IDOCK:   -5.61 KCAL/MOL
REMARK 922        TOTAL FREE ENERGY PREDICTED BY IDOCK:   -9.53 KCAL/MOL
REMARK 923 INTER-LIGAND FREE ENERGY PREDICTED BY IDOCK:   -7.87 KCAL/MOL
REMARK 924 INTRA-LIGAND FREE ENERGY PREDICTED BY IDOCK:   -1.66 KCAL/MOL
REMARK 927      BINDING AFFINITY PREDICTED BY RF-SCORE:    0.00 PKD
ROOT
HETATM    1  C   UNL     1      -5.588   7.879  65.612  1.00  0.00    -0.036 C  
HETATM    2  O   UNL     1      -5.237   9.152  66.146  1.00  0.00    -0.035 OA 
ENDROOT
BRANCH   2   3
HETATM    3  C   UNL     1      -6.335   9.930  66.442  1.00  0.00    -0.071 A  
HETATM    4  C   UNL     1      -6.090  11.200  66.904  1.00  0.00    -0.104 A  
HETATM    5  C   UNL     1      -7.181  12.045  67.137  1.00  0.00    -0.131 A  
HETATM    6  C   UNL     1      -8.492  11.630  66.740  1.00  0.00    -0.177 A  
HETATM    7  C   UNL     1      -6.917  13.300  67.928  1.00  0.00    -0.137 C  
HETATM    8  C   UNL     1      -9.668  12.438  66.563  1.00  0.00    -0.240 A  
HETATM    9  C   UNL     1     -10.940  11.838  66.529  1.00  0.00    -0.295 A  
HETATM   10  C   UNL     1      -8.629  10.240  66.495  1.00  0.00    -0.132 A  
HETATM   11  C   UNL     1      -9.906   9.646  66.445  1.00  0.00    -0.244 A  
HETATM   12  N   UNL     1      -7.571   9.422  66.328  1.00  0.00    -0.096 NA 
HETATM   13  C   UNL     1     -11.044  10.449  66.504  1.00  0.00     0.107 A  
BRANCH   8  14
HETATM   14  O   UNL     1      -9.657  13.806  66.372  1.00  0.00    -0.278 OA 
BRANCH  14  15
HETATM   15  C   UNL     1      -9.929  14.721  67.369  1.00  0.00    -0.223 A  
HETATM   16  C   UNL     1      -9.820  16.051  66.941  1.00  0.00    -0.252 A  
HETATM   17  C   UNL     1     -10.337  17.091  67.710  1.00  0.00    -0.335 A  
HETATM   18  F   UNL     1     -12.733  14.141  70.399  1.00  0.00    -0.376 F  
HETATM   19  F   UNL     1     -12.602  16.198  71.066  1.00  0.00    -0.454 F  
HETATM   20  C   UNL     1     -10.979  16.804  68.911  1.00  0.00    -0.259 A  
HETATM   21  C   UNL     1     -10.417  14.455  68.651  1.00  0.00    -0.247 A  
HETATM   22  C   UNL     1     -11.848  15.153  70.621  1.00  0.00    -0.325 C  
HETATM   23  F   UNL     1     -11.087  14.763  71.678  1.00  0.00    -0.313 F  
HETATM   24  C   UNL     1     -11.034  15.485  69.391  1.00  0.00    -0.276 A  
ENDBRANCH  14  15
ENDBRANCH   8  14
BRANCH   9  25
HETATM   25  O   UNL     1     -12.162  12.456  66.446  1.00  0.00    -0.604 OA 
HETATM   26  C   UNL     1     -12.659  12.774  65.153  1.00  0.00    -0.444 C  
ENDBRANCH   9  25
BRANCH  11  27
HETATM   27  N   UNL     1     -10.002   8.249  66.263  1.00  0.00    -0.458 NA 
HETATM   28  H   UNL     1      -9.549   7.821  65.455  1.00  0.00     0.000 HD 
BRANCH  27  29
HETATM   29  C   UNL     1     -10.735   7.399  67.202  1.00  0.00    -0.330 C  
HETATM   30  C   UNL     1     -10.676   5.964  66.674  1.00  0.00    -0.323 C  
BRANCH  29  31
HETATM   31  C   UNL     1     -10.099   7.457  68.604  1.00  0.00    -0.186 C  
BRANCH  31  32
HETATM   32  C   UNL     1     -11.083   7.692  69.755  1.00  0.00    -0.115 C  
BRANCH  32  33
HETATM   33  C   UNL     1     -10.854   8.966  70.573  1.00  0.00    -0.236 C  
HETATM   34  N   UNL     1      -9.772   9.787  70.027  1.00  0.00    -0.243 NA 
HETATM   35  H1  UNL     1      -9.619  10.636  70.571  1.00  0.00     0.000 HD 
HETATM   36  H2  UNL     1      -9.933  10.004  69.044  1.00  0.00     0.000 HD 
ENDBRANCH  32  33
ENDBRANCH  31  32
ENDBRANCH  29  31
ENDBRANCH  27  29
ENDBRANCH  11  27
ENDBRANCH   2   3
TORSDOF 9
ENDMDL
MODEL      124
REMARK 921   NORMALIZED FREE ENERGY PREDICTED BY IDOCK:   -5.59 KCAL/MOL
REMARK 922        TOTAL FREE ENERGY PREDICTED BY IDOCK:   -9.50 KCAL/MOL
REMARK 923 INTER-LIGAND FREE ENERGY PREDICTED BY IDOCK:   -8.74 KCAL/MOL
REMARK 924 INTRA-LIGAND FREE ENERGY PREDICTED BY IDOCK:   -0.77 KCAL/MOL
REMARK 927      BINDING AFFINITY PREDICTED BY RF-SCORE:    0.00 PKD
ROOT
HETATM    1  C   UNL     1     -12.380  15.052  64.674  1.00  0.00    -0.213 C  
HETATM    2  O   UNL     1     -13.016  13.832  65.043  1.00  0.00    -0.732 OA 
ENDROOT
BRANCH   2   3
HETATM    3  C   UNL     1     -12.123  12.805  65.252  1.00  0.00    -0.457 A  
HETATM    4  C   UNL     1     -11.297  12.478  64.204  1.00  0.00    -0.440 A  
HETATM    5  C   UNL     1     -10.322  11.494  64.408  1.00  0.00    -0.364 A  
HETATM    6  C   UNL     1     -10.106  10.977  65.725  1.00  0.00    -0.305 A  
HETATM    7  C   UNL     1      -9.648  10.936  63.181  1.00  0.00    -0.384 C  
HETATM    8  C   UNL     1      -8.970  10.248  66.221  1.00  0.00    -0.153 A  
HETATM    9  C   UNL     1      -9.072   9.507  67.413  1.00  0.00    -0.130 A  
HETATM   10  C   UNL     1     -11.156  11.226  66.643  1.00  0.00    -0.235 A  
HETATM   11  C   UNL     1     -11.245  10.493  67.843  1.00  0.00    -0.289 A  
HETATM   12  N   UNL     1     -12.125  12.136  66.415  1.00  0.00    -0.587 NA 
HETATM   13  C   UNL     1     -10.221   9.613  68.191  1.00  0.00    -0.225 A  
BRANCH   8  14
HETATM   14  O   UNL     1      -7.722  10.245  65.630  1.00  0.00    -0.137 OA 
BRANCH  14  15
HETATM   15  C   UNL     1      -7.261   9.230  64.816  1.00  0.00    -0.103 A  
HETATM   16  C   UNL     1      -5.914   9.376  64.462  1.00  0.00    -0.076 A  
HETATM   17  C   UNL     1      -5.207   8.315  63.901  1.00  0.00    -0.045 A  
HETATM   18  F   UNL     1      -8.532   5.266  65.049  1.00  0.00    -0.126 F  
HETATM   19  F   UNL     1      -6.984   4.575  63.700  1.00  0.00    -0.040 F  
HETATM   20  C   UNL     1      -5.843   7.093  63.703  1.00  0.00    -0.037 A  
HETATM   21  C   UNL     1      -7.939   8.062  64.457  1.00  0.00    -0.151 A  
HETATM   22  C   UNL     1      -7.870   5.591  63.902  1.00  0.00    -0.100 C  
HETATM   23  F   UNL     1      -8.783   5.499  62.900  1.00  0.00    -0.123 F  
HETATM   24  C   UNL     1      -7.211   6.949  63.985  1.00  0.00    -0.069 A  
ENDBRANCH  14  15
ENDBRANCH   8  14
BRANCH   9  25
HETATM   25  O   UNL     1      -8.123   8.699  67.985  1.00  0.00    -0.109 OA 
HETATM   26  C   UNL     1      -8.459   8.034  69.196  1.00  0.00    -0.136 C  
ENDBRANCH   9  25
BRANCH  11  27
HETATM   27  N   UNL     1     -12.341  10.722  68.704  1.00  0.00    -0.786 NA 
HETATM   28  H   UNL     1     -13.280  10.479  68.389  1.00  0.00     0.000 HD 
BRANCH  27  29
HETATM   29  C   UNL     1     -12.164  11.300  70.037  1.00  0.00    -0.314 C  
HETATM   30  C   UNL     1     -11.211  10.390  70.816  1.00  0.00    -0.293 C  
BRANCH  29  31
HETATM   31  C   UNL     1     -11.562  12.715  69.945  1.00  0.00    -0.248 C  
BRANCH  31  32
HETATM   32  C   UNL     1     -12.300  13.789  70.752  1.00  0.00    -0.451 C  
BRANCH  32  33
HETATM   33  C   UNL     1     -12.293  15.195  70.146  1.00  0.00    -0.341 C  
HETATM   34  N   UNL     1     -11.948  15.183  68.723  1.00  0.00    -0.538 NA 
HETATM   35  H1  UNL     1     -11.943  16.119  68.319  1.00  0.00     0.000 HD 
HETATM   36  H2  UNL     1     -12.563  14.559  68.200  1.00  0.00     0.000 HD 
ENDBRANCH  32  33
ENDBRANCH  31  32
ENDBRANCH  29  31
ENDBRANCH  27  29
ENDBRANCH  11  27
ENDBRANCH   2   3
TORSDOF 9
ENDMDL
MODEL      125
REMARK 921   NORMALIZED FREE ENERGY PREDICTED BY IDOCK:   -5.59 KCAL/MOL
REMARK 922        TOTAL FREE ENERGY PREDICTED BY IDOCK:   -9.50 KCAL/MOL
REMARK 923 INTER-LIGAND FREE ENERGY PREDICTED BY IDOCK:   -8.31 KCAL/MOL
REMARK 924 INTRA-LIGAND FREE ENERGY PREDICTED BY IDOCK:   -1.19 KCAL/MOL
REMARK 927      BINDING AFFINITY PREDICTED BY RF-SCORE:    0.00 PKD
ROOT
HETATM    1  C   UNL     1      -5.445  15.957  70.349  1.00  0.00    -0.158 C  
HETATM    2  O   UNL     1      -6.809  15.851  69.951  1.00  0.00    -0.146 OA 
ENDROOT
BRANCH   2   3
HETATM    3  C   UNL     1      -7.089  14.662  69.312  1.00  0.00    -0.150 A  
HETATM    4  C   UNL     1      -6.408  13.551  69.744  1.00  0.00    -0.087 A  
HETATM    5  C   UNL     1      -6.726  12.313  69.174  1.00  0.00    -0.095 A  
HETATM    6  C   UNL     1      -7.846  12.211  68.287  1.00  0.00    -0.153 A  
HETATM    7  C   UNL     1      -5.769  11.177  69.427  1.00  0.00    -0.045 C  
HETATM    8  C   UNL     1      -8.551  11.028  67.872  1.00  0.00    -0.133 A  
HETATM    9  C   UNL     1      -9.377  11.060  66.735  1.00  0.00    -0.181 A  
HETATM   10  C   UNL     1      -8.304  13.445  67.762  1.00  0.00    -0.178 A  
HETATM   11  C   UNL     1      -9.146  13.472  66.632  1.00  0.00    -0.168 A  
HETATM   12  N   UNL     1      -7.948  14.637  68.283  1.00  0.00    -0.126 NA 
HETATM   13  C   UNL     1      -9.638  12.277  66.109  1.00  0.00    -0.248 A  
BRANCH   8  14
HETATM   14  O   UNL     1      -8.521   9.823  68.545  1.00  0.00    -0.112 OA 
BRANCH  14  15
HETATM   15  C   UNL     1      -9.424   9.472  69.529  1.00  0.00    -0.185 A  
HETATM   16  C   UNL     1      -8.860   8.680  70.538  1.00  0.00    -0.182 A  
HETATM   17  C   UNL     1      -9.529   8.481  71.744  1.00  0.00    -0.328 A  
HETATM   18  F   UNL     1     -12.550  11.902  70.832  1.00  0.00    -0.408 F  
HETATM   19  F   UNL     1     -13.001  10.612  72.513  1.00  0.00    -0.412 F  
HETATM   20  C   UNL     1     -10.765   9.086  71.952  1.00  0.00    -0.401 A  
HETATM   21  C   UNL     1     -10.735   9.931  69.675  1.00  0.00    -0.277 A  
HETATM   22  C   UNL     1     -12.651  10.593  71.195  1.00  0.00    -0.423 C  
HETATM   23  F   UNL     1     -13.728  10.098  70.528  1.00  0.00    -0.341 F  
HETATM   24  C   UNL     1     -11.378   9.823  70.926  1.00  0.00    -0.439 A  
ENDBRANCH  14  15
ENDBRANCH   8  14
BRANCH   9  25
HETATM   25  O   UNL     1     -10.056  10.018  66.157  1.00  0.00    -0.245 OA 
HETATM   26  C   UNL     1      -9.394   9.278  65.139  1.00  0.00    -0.171 C  
ENDBRANCH   9  25
BRANCH  11  27
HETATM   27  N   UNL     1      -9.531  14.721  66.097  1.00  0.00    -0.382 NA 
HETATM   28  H   UNL     1      -8.886  15.219  65.484  1.00  0.00     0.000 HD 
BRANCH  27  29
HETATM   29  C   UNL     1     -10.832  15.320  66.401  1.00  0.00    -0.317 C  
HETATM   30  C   UNL     1     -11.559  14.383  67.369  1.00  0.00    -0.398 C  
BRANCH  29  31
HETATM   31  C   UNL     1     -10.659  16.703  67.056  1.00  0.00    -0.247 C  
BRANCH  31  32
HETATM   32  C   UNL     1      -9.771  17.683  66.281  1.00  0.00    -0.275 C  
BRANCH  32  33
HETATM   33  C   UNL     1     -10.357  19.081  66.067  1.00  0.00    -0.446 C  
HETATM   34  N   UNL     1     -10.901  19.648  67.303  1.00  0.00    -0.458 NA 
HETATM   35  H1  UNL     1     -11.292  20.579  67.160  1.00  0.00     0.000 HD 
HETATM   36  H2  UNL     1     -10.203  19.651  68.046  1.00  0.00     0.000 HD 
ENDBRANCH  32  33
ENDBRANCH  31  32
ENDBRANCH  29  31
ENDBRANCH  27  29
ENDBRANCH  11  27
ENDBRANCH   2   3
TORSDOF 9
ENDMDL
MODEL      126
REMARK 921   NORMALIZED FREE ENERGY PREDICTED BY IDOCK:   -5.58 KCAL/MOL
REMARK 922        TOTAL FREE ENERGY PREDICTED BY IDOCK:   -9.48 KCAL/MOL
REMARK 923 INTER-LIGAND FREE ENERGY PREDICTED BY IDOCK:   -8.63 KCAL/MOL
REMARK 924 INTRA-LIGAND FREE ENERGY PREDICTED BY IDOCK:   -0.85 KCAL/MOL
REMARK 927      BINDING AFFINITY PREDICTED BY RF-SCORE:    0.00 PKD
ROOT
HETATM    1  C   UNL     1      -7.127  18.147  65.998  1.00  0.00    -0.283 C  
HETATM    2  O   UNL     1      -8.399  17.583  65.690  1.00  0.00    -0.479 OA 
ENDROOT
BRANCH   2   3
HETATM    3  C   UNL     1      -8.652  16.422  66.388  1.00  0.00    -0.323 A  
HETATM    4  C   UNL     1      -8.397  16.441  67.737  1.00  0.00    -0.172 A  
HETATM    5  C   UNL     1      -8.719  15.307  68.491  1.00  0.00    -0.176 A  
HETATM    6  C   UNL     1      -9.444  14.235  67.878  1.00  0.00    -0.212 A  
HETATM    7  C   UNL     1      -8.153  15.229  69.885  1.00  0.00     0.121 C  
HETATM    8  C   UNL     1     -10.164  13.166  68.515  1.00  0.00    -0.215 A  
HETATM    9  C   UNL     1     -10.505  12.011  67.788  1.00  0.00    -0.203 A  
HETATM   10  C   UNL     1      -9.438  14.245  66.460  1.00  0.00    -0.287 A  
HETATM   11  C   UNL     1      -9.796  13.091  65.736  1.00  0.00    -0.209 A  
HETATM   12  N   UNL     1      -9.072  15.325  65.740  1.00  0.00    -0.122 NA 
HETATM   13  C   UNL     1     -10.285  11.975  66.413  1.00  0.00    -0.243 A  
BRANCH   8  14
HETATM   14  O   UNL     1     -10.609  13.192  69.822  1.00  0.00     0.395 OA 
BRANCH  14  15
HETATM   15  C   UNL     1     -11.464  14.153  70.322  1.00  0.00    -0.130 A  
HETATM   16  C   UNL     1     -12.658  14.260  69.596  1.00  0.00    -0.095 A  
HETATM   17  C   UNL     1     -13.747  14.955  70.117  1.00  0.00     0.856 A  
HETATM   18  F   UNL     1     -11.851  15.087  74.366  1.00  0.00    -0.637 F  
HETATM   19  F   UNL     1     -13.598  16.323  74.028  1.00  0.00    -0.313 F  
HETATM   20  C   UNL     1     -13.653  15.537  71.378  1.00  0.00    -0.561 A  
HETATM   21  C   UNL     1     -11.317  14.883  71.504  1.00  0.00    -0.232 A  
HETATM   22  C   UNL     1     -12.375  16.010  73.511  1.00  0.00    -0.562 C  
HETATM   23  F   UNL     1     -11.613  17.127  73.646  1.00  0.00    -0.372 F  
HETATM   24  C   UNL     1     -12.442  15.501  72.089  1.00  0.00    -0.477 A  
ENDBRANCH  14  15
ENDBRANCH   8  14
BRANCH   9  25
HETATM   25  O   UNL     1     -11.116  10.874  68.251  1.00  0.00    -0.223 OA 
HETATM   26  C   UNL     1     -10.694   9.627  67.713  1.00  0.00    -0.257 C  
ENDBRANCH   9  25
BRANCH  11  27
HETATM   27  N   UNL     1      -9.717  13.118  64.326  1.00  0.00    -0.561 NA 
HETATM   28  H   UNL     1      -9.013  13.705  63.879  1.00  0.00     0.000 HD 
BRANCH  27  29
HETATM   29  C   UNL     1     -10.620  12.326  63.490  1.00  0.00    -0.448 C  
HETATM   30  C   UNL     1     -10.209  10.857  63.625  1.00  0.00    -0.395 C  
BRANCH  29  31
HETATM   31  C   UNL     1     -12.081  12.494  63.949  1.00  0.00    -0.581 C  
BRANCH  31  32
HETATM   32  C   UNL     1     -12.721  13.841  63.595  1.00  0.00     0.239 C  
BRANCH  32  33
HETATM   33  C   UNL     1     -12.429  14.989  64.566  1.00  0.00    -0.146 C  
HETATM   34  N   UNL     1     -11.686  16.078  63.928  1.00  0.00    -1.328 NA 
HETATM   35  H1  UNL     1     -11.491  16.843  64.574  1.00  0.00     0.000 HD 
HETATM   36  H2  UNL     1     -12.167  16.414  63.094  1.00  0.00     0.000 HD 
ENDBRANCH  32  33
ENDBRANCH  31  32
ENDBRANCH  29  31
ENDBRANCH  27  29
ENDBRANCH  11  27
ENDBRANCH   2   3
TORSDOF 9
ENDMDL
MODEL      127
REMARK 921   NORMALIZED FREE ENERGY PREDICTED BY IDOCK:   -5.58 KCAL/MOL
REMARK 922        TOTAL FREE ENERGY PREDICTED BY IDOCK:   -9.48 KCAL/MOL
REMARK 923 INTER-LIGAND FREE ENERGY PREDICTED BY IDOCK:   -8.16 KCAL/MOL
REMARK 924 INTRA-LIGAND FREE ENERGY PREDICTED BY IDOCK:   -1.32 KCAL/MOL
REMARK 927      BINDING AFFINITY PREDICTED BY RF-SCORE:    0.00 PKD
ROOT
HETATM    1  C   UNL     1      -6.678   8.683  65.026  1.00  0.00    -0.068 C  
HETATM    2  O   UNL     1      -6.305  10.040  65.250  1.00  0.00    -0.092 OA 
ENDROOT
BRANCH   2   3
HETATM    3  C   UNL     1      -7.136  10.684  66.140  1.00  0.00    -0.138 A  
HETATM    4  C   UNL     1      -6.644  11.816  66.741  1.00  0.00    -0.060 A  
HETATM    5  C   UNL     1      -7.490  12.540  67.589  1.00  0.00    -0.139 A  
HETATM    6  C   UNL     1      -8.873  12.181  67.681  1.00  0.00    -0.172 A  
HETATM    7  C   UNL     1      -6.848  13.582  68.469  1.00  0.00    -0.099 C  
HETATM    8  C   UNL     1      -9.965  12.963  68.194  1.00  0.00    -0.234 A  
HETATM    9  C   UNL     1     -11.176  12.340  68.546  1.00  0.00    -0.271 A  
HETATM   10  C   UNL     1      -9.185  10.885  67.200  1.00  0.00    -0.148 A  
HETATM   11  C   UNL     1     -10.407  10.271  67.542  1.00  0.00    -0.229 A  
HETATM   12  N   UNL     1      -8.341  10.170  66.429  1.00  0.00    -0.123 NA 
HETATM   13  C   UNL     1     -11.369  10.993  68.246  1.00  0.00    -0.366 A  
BRANCH   8  14
HETATM   14  O   UNL     1      -9.946  14.336  68.336  1.00  0.00    -0.227 OA 
BRANCH  14  15
HETATM   15  C   UNL     1      -9.971  15.217  67.274  1.00  0.00    -0.226 A  
HETATM   16  C   UNL     1     -10.411  14.631  66.081  1.00  0.00    -0.309 A  
HETATM   17  C   UNL     1     -10.778  15.419  64.993  1.00  0.00    -0.460 A  
HETATM   18  F   UNL     1     -10.875  19.274  67.601  1.00  0.00    -0.503 F  
HETATM   19  F   UNL     1     -10.995  19.534  65.453  1.00  0.00    -0.557 F  
HETATM   20  C   UNL     1     -10.720  16.806  65.098  1.00  0.00    -0.159 A  
HETATM   21  C   UNL     1      -9.749  16.596  67.315  1.00  0.00    -0.245 A  
HETATM   22  C   UNL     1     -10.277  18.911  66.432  1.00  0.00    -0.426 C  
HETATM   23  F   UNL     1      -9.053  19.503  66.434  1.00  0.00    -0.317 F  
HETATM   24  C   UNL     1     -10.214  17.410  66.261  1.00  0.00    -0.344 A  
ENDBRANCH  14  15
ENDBRANCH   8  14
BRANCH   9  25
HETATM   25  O   UNL     1     -12.284  12.913  69.117  1.00  0.00    -0.209 OA 
HETATM   26  C   UNL     1     -12.190  13.335  70.471  1.00  0.00    -0.340 C  
ENDBRANCH   9  25
BRANCH  11  27
HETATM   27  N   UNL     1     -10.657   8.954  67.098  1.00  0.00    -0.317 NA 
HETATM   28  H   UNL     1     -10.788   8.782  66.101  1.00  0.00     0.000 HD 
BRANCH  27  29
HETATM   29  C   UNL     1     -10.732   7.829  68.031  1.00  0.00    -0.066 C  
HETATM   30  C   UNL     1     -11.014   6.565  67.213  1.00  0.00    -0.475 C  
BRANCH  29  31
HETATM   31  C   UNL     1      -9.406   7.661  68.795  1.00  0.00    -0.148 C  
BRANCH  31  32
HETATM   32  C   UNL     1      -9.526   6.983  70.165  1.00  0.00    -0.162 C  
BRANCH  32  33
HETATM   33  C   UNL     1     -10.550   7.602  71.122  1.00  0.00    -0.221 C  
HETATM   34  N   UNL     1     -11.684   6.710  71.371  1.00  0.00    -0.309 NA 
HETATM   35  H1  UNL     1     -12.366   7.121  72.008  1.00  0.00     0.000 HD 
HETATM   36  H2  UNL     1     -11.371   5.798  71.704  1.00  0.00     0.000 HD 
ENDBRANCH  32  33
ENDBRANCH  31  32
ENDBRANCH  29  31
ENDBRANCH  27  29
ENDBRANCH  11  27
ENDBRANCH   2   3
TORSDOF 9
ENDMDL
MODEL      128
REMARK 921   NORMALIZED FREE ENERGY PREDICTED BY IDOCK:   -5.56 KCAL/MOL
REMARK 922        TOTAL FREE ENERGY PREDICTED BY IDOCK:   -9.46 KCAL/MOL
REMARK 923 INTER-LIGAND FREE ENERGY PREDICTED BY IDOCK:   -7.98 KCAL/MOL
REMARK 924 INTRA-LIGAND FREE ENERGY PREDICTED BY IDOCK:   -1.48 KCAL/MOL
REMARK 927      BINDING AFFINITY PREDICTED BY RF-SCORE:    0.00 PKD
ROOT
HETATM    1  C   UNL     1      -8.692   5.387  66.754  1.00  0.00    -0.113 C  
HETATM    2  O   UNL     1      -9.774   6.147  66.223  1.00  0.00    -0.146 OA 
ENDROOT
BRANCH   2   3
HETATM    3  C   UNL     1      -9.795   7.445  66.687  1.00  0.00    -0.193 A  
HETATM    4  C   UNL     1      -9.070   8.369  65.976  1.00  0.00    -0.235 A  
HETATM    5  C   UNL     1      -9.133   9.710  66.371  1.00  0.00    -0.191 A  
HETATM    6  C   UNL     1     -10.064  10.103  67.387  1.00  0.00    -0.251 A  
HETATM    7  C   UNL     1      -8.105  10.645  65.788  1.00  0.00    -0.158 C  
HETATM    8  C   UNL     1     -10.538  11.424  67.698  1.00  0.00    -0.202 A  
HETATM    9  C   UNL     1     -11.154  11.680  68.936  1.00  0.00    -0.232 A  
HETATM   10  C   UNL     1     -10.569   9.040  68.176  1.00  0.00    -0.171 A  
HETATM   11  C   UNL     1     -11.200   9.302  69.408  1.00  0.00     0.052 A  
HETATM   12  N   UNL     1     -10.454   7.745  67.815  1.00  0.00    -0.219 NA 
HETATM   13  C   UNL     1     -11.447  10.620  69.790  1.00  0.00    -0.375 A  
BRANCH   8  14
HETATM   14  O   UNL     1     -10.481  12.501  66.835  1.00  0.00    -0.227 OA 
BRANCH  14  15
HETATM   15  C   UNL     1      -9.811  13.674  67.117  1.00  0.00    -0.242 A  
HETATM   16  C   UNL     1      -8.455  13.479  67.407  1.00  0.00    -0.203 A  
HETATM   17  C   UNL     1      -7.568  14.554  67.424  1.00  0.00    -0.209 A  
HETATM   18  F   UNL     1     -10.650  17.350  65.338  1.00  0.00    -0.344 F  
HETATM   19  F   UNL     1      -8.877  18.281  66.165  1.00  0.00    -0.282 F  
HETATM   20  C   UNL     1      -8.034  15.834  67.136  1.00  0.00    -0.250 A  
HETATM   21  C   UNL     1     -10.303  14.977  67.001  1.00  0.00    -0.269 A  
HETATM   22  C   UNL     1      -9.890  17.418  66.467  1.00  0.00    -0.304 C  
HETATM   23  F   UNL     1     -10.653  18.047  67.399  1.00  0.00    -0.353 F  
HETATM   24  C   UNL     1      -9.402  16.059  66.914  1.00  0.00    -0.246 A  
ENDBRANCH  14  15
ENDBRANCH   8  14
BRANCH   9  25
HETATM   25  O   UNL     1     -11.592  12.884  69.426  1.00  0.00    -0.285 OA 
HETATM   26  C   UNL     1     -12.450  12.868  70.560  1.00  0.00    -0.217 C  
ENDBRANCH   9  25
BRANCH  11  27
HETATM   27  N   UNL     1     -11.634   8.215  70.198  1.00  0.00    -0.468 NA 
HETATM   28  H   UNL     1     -11.611   7.274  69.804  1.00  0.00     0.000 HD 
BRANCH  27  29
HETATM   29  C   UNL     1     -12.117   8.403  71.566  1.00  0.00    -0.301 C  
HETATM   30  C   UNL     1     -13.303   7.457  71.774  1.00  0.00    -0.373 C  
BRANCH  29  31
HETATM   31  C   UNL     1     -11.013   8.073  72.587  1.00  0.00    -0.448 C  
BRANCH  31  32
HETATM   32  C   UNL     1      -9.686   7.603  71.980  1.00  0.00    -0.209 C  
BRANCH  32  33
HETATM   33  C   UNL     1      -9.597   6.108  71.658  1.00  0.00    -0.151 C  
HETATM   34  N   UNL     1      -9.779   5.837  70.230  1.00  0.00    -0.169 NA 
HETATM   35  H1  UNL     1      -9.720   4.842  70.016  1.00  0.00     0.000 HD 
HETATM   36  H2  UNL     1      -9.122   6.376  69.666  1.00  0.00     0.000 HD 
ENDBRANCH  32  33
ENDBRANCH  31  32
ENDBRANCH  29  31
ENDBRANCH  27  29
ENDBRANCH  11  27
ENDBRANCH   2   3
TORSDOF 9
ENDMDL
MODEL      129
REMARK 921   NORMALIZED FREE ENERGY PREDICTED BY IDOCK:   -5.56 KCAL/MOL
REMARK 922        TOTAL FREE ENERGY PREDICTED BY IDOCK:   -9.45 KCAL/MOL
REMARK 923 INTER-LIGAND FREE ENERGY PREDICTED BY IDOCK:   -8.34 KCAL/MOL
REMARK 924 INTRA-LIGAND FREE ENERGY PREDICTED BY IDOCK:   -1.11 KCAL/MOL
REMARK 927      BINDING AFFINITY PREDICTED BY RF-SCORE:    0.00 PKD
ROOT
HETATM    1  C   UNL     1      -9.293   3.614  67.331  1.00  0.00    -0.203 C  
HETATM    2  O   UNL     1     -10.230   4.464  66.676  1.00  0.00    -0.219 OA 
ENDROOT
BRANCH   2   3
HETATM    3  C   UNL     1     -10.265   5.734  67.210  1.00  0.00    -0.205 A  
HETATM    4  C   UNL     1      -9.916   6.767  66.376  1.00  0.00    -0.066 A  
HETATM    5  C   UNL     1     -10.018   8.076  66.861  1.00  0.00    -0.338 A  
HETATM    6  C   UNL     1     -10.628   8.311  68.135  1.00  0.00    -0.169 A  
HETATM    7  C   UNL     1      -9.345   9.158  66.057  1.00  0.00    -0.300 C  
HETATM    8  C   UNL     1     -11.141   9.546  68.664  1.00  0.00     0.012 A  
HETATM    9  C   UNL     1     -11.369   9.683  70.046  1.00  0.00    -0.195 A  
HETATM   10  C   UNL     1     -10.729   7.168  68.967  1.00  0.00    -0.184 A  
HETATM   11  C   UNL     1     -10.973   7.309  70.348  1.00  0.00    -0.252 A  
HETATM   12  N   UNL     1     -10.573   5.912  68.503  1.00  0.00    -0.240 NA 
HETATM   13  C   UNL     1     -11.249   8.570  70.875  1.00  0.00    -0.304 A  
BRANCH   8  14
HETATM   14  O   UNL     1     -11.487  10.642  67.899  1.00  0.00    -0.432 OA 
BRANCH  14  15
HETATM   15  C   UNL     1     -10.726  11.790  67.816  1.00  0.00    -0.205 A  
HETATM   16  C   UNL     1      -9.457  11.653  68.394  1.00  0.00    -0.193 A  
HETATM   17  C   UNL     1      -8.458  12.592  68.148  1.00  0.00    -0.177 A  
HETATM   18  F   UNL     1     -10.854  14.476  64.630  1.00  0.00    -0.378 F  
HETATM   19  F   UNL     1      -9.114  15.561  65.330  1.00  0.00    -0.242 F  
HETATM   20  C   UNL     1      -8.719  13.671  67.308  1.00  0.00    -0.223 A  
HETATM   21  C   UNL     1     -11.034  12.961  67.118  1.00  0.00    -0.290 A  
HETATM   22  C   UNL     1     -10.257  14.952  65.759  1.00  0.00    -0.336 C  
HETATM   23  F   UNL     1     -11.061  15.945  66.222  1.00  0.00    -0.286 F  
HETATM   24  C   UNL     1     -10.005  13.863  66.778  1.00  0.00    -0.269 A  
ENDBRANCH  14  15
ENDBRANCH   8  14
BRANCH   9  25
HETATM   25  O   UNL     1     -11.777  10.802  70.726  1.00  0.00    -0.328 OA 
HETATM   26  C   UNL     1     -12.845  10.663  71.654  1.00  0.00    -0.465 C  
ENDBRANCH   9  25
BRANCH  11  27
HETATM   27  N   UNL     1     -11.004   6.153  71.158  1.00  0.00    -0.273 NA 
HETATM   28  H   UNL     1     -11.163   5.245  70.721  1.00  0.00     0.000 HD 
BRANCH  27  29
HETATM   29  C   UNL     1     -10.813   6.223  72.607  1.00  0.00    -0.242 C  
HETATM   30  C   UNL     1     -11.332   4.914  73.208  1.00  0.00    -0.408 C  
BRANCH  29  31
HETATM   31  C   UNL     1      -9.323   6.393  72.956  1.00  0.00    -0.141 C  
BRANCH  31  32
HETATM   32  C   UNL     1      -8.961   7.721  73.632  1.00  0.00    -0.335 C  
BRANCH  32  33
HETATM   33  C   UNL     1      -7.628   8.341  73.202  1.00  0.00    -0.117 C  
HETATM   34  N   UNL     1      -7.683   8.882  71.842  1.00  0.00    -0.337 NA 
HETATM   35  H1  UNL     1      -6.796   9.296  71.555  1.00  0.00     0.000 HD 
HETATM   36  H2  UNL     1      -8.449   9.547  71.739  1.00  0.00     0.000 HD 
ENDBRANCH  32  33
ENDBRANCH  31  32
ENDBRANCH  29  31
ENDBRANCH  27  29
ENDBRANCH  11  27
ENDBRANCH   2   3
TORSDOF 9
ENDMDL
MODEL      130
REMARK 921   NORMALIZED FREE ENERGY PREDICTED BY IDOCK:   -5.55 KCAL/MOL
REMARK 922        TOTAL FREE ENERGY PREDICTED BY IDOCK:   -9.44 KCAL/MOL
REMARK 923 INTER-LIGAND FREE ENERGY PREDICTED BY IDOCK:   -8.47 KCAL/MOL
REMARK 924 INTRA-LIGAND FREE ENERGY PREDICTED BY IDOCK:   -0.97 KCAL/MOL
REMARK 927      BINDING AFFINITY PREDICTED BY RF-SCORE:    0.00 PKD
ROOT
HETATM    1  C   UNL     1      -5.686  10.166  62.676  1.00  0.00    -0.114 C  
HETATM    2  O   UNL     1      -5.294  10.414  64.023  1.00  0.00    -0.123 OA 
ENDROOT
BRANCH   2   3
HETATM    3  C   UNL     1      -6.307  10.175  64.927  1.00  0.00    -0.128 A  
HETATM    4  C   UNL     1      -5.961   9.531  66.090  1.00  0.00    -0.062 A  
HETATM    5  C   UNL     1      -6.947   9.344  67.065  1.00  0.00    -0.085 A  
HETATM    6  C   UNL     1      -8.228   9.962  66.900  1.00  0.00    -0.120 A  
HETATM    7  C   UNL     1      -6.634   8.377  68.177  1.00  0.00    -0.061 C  
HETATM    8  C   UNL     1      -9.241  10.193  67.894  1.00  0.00    -0.138 A  
HETATM    9  C   UNL     1     -10.564  10.472  67.504  1.00  0.00    -0.259 A  
HETATM   10  C   UNL     1      -8.517  10.391  65.581  1.00  0.00    -0.165 A  
HETATM   11  C   UNL     1      -9.842  10.685  65.199  1.00  0.00    -0.284 A  
HETATM   12  N   UNL     1      -7.569  10.515  64.629  1.00  0.00    -0.034 NA 
HETATM   13  C   UNL     1     -10.853  10.681  66.158  1.00  0.00    -0.069 A  
BRANCH   8  14
HETATM   14  O   UNL     1      -9.012  10.212  69.256  1.00  0.00    -0.162 OA 
BRANCH  14  15
HETATM   15  C   UNL     1      -9.113   9.098  70.065  1.00  0.00    -0.192 A  
HETATM   16  C   UNL     1      -8.390   9.217  71.259  1.00  0.00    -0.096 A  
HETATM   17  C   UNL     1      -8.609   8.333  72.314  1.00  0.00    -0.257 A  
HETATM   18  F   UNL     1     -12.521   6.716  70.378  1.00  0.00    -0.419 F  
HETATM   19  F   UNL     1     -11.734   5.621  72.074  1.00  0.00    -0.308 F  
HETATM   20  C   UNL     1      -9.565   7.330  72.184  1.00  0.00    -0.162 A  
HETATM   21  C   UNL     1      -9.942   7.989  69.877  1.00  0.00    -0.189 A  
HETATM   22  C   UNL     1     -11.380   6.155  70.870  1.00  0.00    -0.287 C  
HETATM   23  F   UNL     1     -11.097   5.101  70.060  1.00  0.00    -0.257 F  
HETATM   24  C   UNL     1     -10.247   7.151  70.970  1.00  0.00    -0.205 A  
ENDBRANCH  14  15
ENDBRANCH   8  14
BRANCH   9  25
HETATM   25  O   UNL     1     -11.662  10.640  68.309  1.00  0.00    -0.445 OA 
HETATM   26  C   UNL     1     -11.982  11.960  68.727  1.00  0.00    -0.249 C  
ENDBRANCH   9  25
BRANCH  11  27
HETATM   27  N   UNL     1     -10.101  11.049  63.859  1.00  0.00    -0.326 NA 
HETATM   28  H   UNL     1      -9.888  10.386  63.114  1.00  0.00     0.000 HD 
BRANCH  27  29
HETATM   29  C   UNL     1     -10.668  12.353  63.512  1.00  0.00    -0.430 C  
HETATM   30  C   UNL     1     -12.187  12.257  63.672  1.00  0.00    -0.665 C  
BRANCH  29  31
HETATM   31  C   UNL     1     -10.122  13.452  64.443  1.00  0.00    -0.128 C  
BRANCH  31  32
HETATM   32  C   UNL     1     -11.191  14.290  65.154  1.00  0.00    -0.345 C  
BRANCH  32  33
HETATM   33  C   UNL     1     -11.087  15.805  64.952  1.00  0.00    -0.399 C  
HETATM   34  N   UNL     1     -11.973  16.283  63.888  1.00  0.00    -1.307 NA 
HETATM   35  H1  UNL     1     -11.905  17.292  63.754  1.00  0.00     0.000 HD 
HETATM   36  H2  UNL     1     -12.938  15.998  64.056  1.00  0.00     0.000 HD 
ENDBRANCH  32  33
ENDBRANCH  31  32
ENDBRANCH  29  31
ENDBRANCH  27  29
ENDBRANCH  11  27
ENDBRANCH   2   3
TORSDOF 9
ENDMDL
MODEL      131
REMARK 921   NORMALIZED FREE ENERGY PREDICTED BY IDOCK:   -5.52 KCAL/MOL
REMARK 922        TOTAL FREE ENERGY PREDICTED BY IDOCK:   -9.40 KCAL/MOL
REMARK 923 INTER-LIGAND FREE ENERGY PREDICTED BY IDOCK:   -8.74 KCAL/MOL
REMARK 924 INTRA-LIGAND FREE ENERGY PREDICTED BY IDOCK:   -0.66 KCAL/MOL
REMARK 927      BINDING AFFINITY PREDICTED BY RF-SCORE:    0.00 PKD
ROOT
HETATM    1  C   UNL     1      -8.007   9.015  63.933  1.00  0.00    -0.146 C  
HETATM    2  O   UNL     1      -9.380   9.392  63.889  1.00  0.00    -0.071 OA 
ENDROOT
BRANCH   2   3
HETATM    3  C   UNL     1      -9.765  10.137  64.983  1.00  0.00    -0.318 A  
HETATM    4  C   UNL     1      -9.696  11.503  64.858  1.00  0.00    -0.264 A  
HETATM    5  C   UNL     1     -10.156  12.291  65.920  1.00  0.00    -0.272 A  
HETATM    6  C   UNL     1     -10.826  11.669  67.022  1.00  0.00    -0.311 A  
HETATM    7  C   UNL     1      -9.787  13.752  65.896  1.00  0.00    -0.279 C  
HETATM    8  C   UNL     1     -11.662  12.282  68.018  1.00  0.00    -0.356 A  
HETATM    9  C   UNL     1     -11.940  11.608  69.221  1.00  0.00    -0.317 A  
HETATM   10  C   UNL     1     -10.627  10.270  67.128  1.00  0.00    -0.260 A  
HETATM   11  C   UNL     1     -10.922   9.595  68.329  1.00  0.00    -0.121 A  
HETATM   12  N   UNL     1     -10.130   9.525  66.119  1.00  0.00    -0.281 NA 
HETATM   13  C   UNL     1     -11.537  10.284  69.374  1.00  0.00    -0.213 A  
BRANCH   8  14
HETATM   14  O   UNL     1     -12.280  13.509  67.875  1.00  0.00    -0.305 OA 
BRANCH  14  15
HETATM   15  C   UNL     1     -11.785  14.683  68.406  1.00  0.00    -0.320 A  
HETATM   16  C   UNL     1     -11.304  14.537  69.714  1.00  0.00    -0.305 A  
HETATM   17  C   UNL     1     -10.511  15.523  70.295  1.00  0.00    -0.282 A  
HETATM   18  F   UNL     1      -9.820  17.623  66.198  1.00  0.00    -0.289 F  
HETATM   19  F   UNL     1      -9.199  18.698  67.974  1.00  0.00    -0.287 F  
HETATM   20  C   UNL     1     -10.181  16.661  69.563  1.00  0.00    -0.191 A  
HETATM   21  C   UNL     1     -11.597  15.898  67.742  1.00  0.00    -0.044 A  
HETATM   22  C   UNL     1     -10.249  18.020  67.429  1.00  0.00    -0.363 C  
HETATM   23  F   UNL     1     -11.221  18.945  67.211  1.00  0.00    -0.472 F  
HETATM   24  C   UNL     1     -10.713  16.858  68.278  1.00  0.00    -0.377 A  
ENDBRANCH  14  15
ENDBRANCH   8  14
BRANCH   9  25
HETATM   25  O   UNL     1     -12.646  12.069  70.302  1.00  0.00    -0.120 OA 
HETATM   26  C   UNL     1     -12.914  11.157  71.359  1.00  0.00    -0.403 C  
ENDBRANCH   9  25
BRANCH  11  27
HETATM   27  N   UNL     1     -10.651   8.212  68.420  1.00  0.00    -0.378 NA 
HETATM   28  H   UNL     1     -11.283   7.552  67.968  1.00  0.00     0.000 HD 
BRANCH  27  29
HETATM   29  C   UNL     1      -9.487   7.703  69.146  1.00  0.00    -0.154 C  
HETATM   30  C   UNL     1      -9.922   7.432  70.589  1.00  0.00    -0.186 C  
BRANCH  29  31
HETATM   31  C   UNL     1      -8.974   6.396  68.512  1.00  0.00    -0.125 C  
BRANCH  31  32
HETATM   32  C   UNL     1      -8.624   6.492  67.022  1.00  0.00    -0.113 C  
BRANCH  32  33
HETATM   33  C   UNL     1      -9.449   5.599  66.089  1.00  0.00    -0.139 C  
HETATM   34  N   UNL     1     -10.878   5.636  66.408  1.00  0.00    -0.680 NA 
HETATM   35  H1  UNL     1     -11.427   5.042  65.788  1.00  0.00     0.000 HD 
HETATM   36  H2  UNL     1     -11.231   6.593  66.411  1.00  0.00     0.000 HD 
ENDBRANCH  32  33
ENDBRANCH  31  32
ENDBRANCH  29  31
ENDBRANCH  27  29
ENDBRANCH  11  27
ENDBRANCH   2   3
TORSDOF 9
ENDMDL
MODEL      132
REMARK 921   NORMALIZED FREE ENERGY PREDICTED BY IDOCK:   -5.48 KCAL/MOL
REMARK 922        TOTAL FREE ENERGY PREDICTED BY IDOCK:   -9.34 KCAL/MOL
REMARK 923 INTER-LIGAND FREE ENERGY PREDICTED BY IDOCK:   -8.54 KCAL/MOL
REMARK 924 INTRA-LIGAND FREE ENERGY PREDICTED BY IDOCK:   -0.80 KCAL/MOL
REMARK 927      BINDING AFFINITY PREDICTED BY RF-SCORE:    0.00 PKD
ROOT
HETATM    1  C   UNL     1     -12.917  11.924  63.526  1.00  0.00    -0.171 C  
HETATM    2  O   UNL     1     -13.152  12.519  64.799  1.00  0.00    -0.853 OA 
ENDROOT
BRANCH   2   3
HETATM    3  C   UNL     1     -12.002  12.998  65.387  1.00  0.00    -0.414 A  
HETATM    4  C   UNL     1     -11.742  14.338  65.239  1.00  0.00    -0.357 A  
HETATM    5  C   UNL     1     -10.625  14.874  65.890  1.00  0.00    -0.334 A  
HETATM    6  C   UNL     1      -9.887  14.062  66.810  1.00  0.00    -0.275 A  
HETATM    7  C   UNL     1     -10.185  16.253  65.470  1.00  0.00    -0.326 C  
HETATM    8  C   UNL     1      -8.954  14.482  67.821  1.00  0.00    -0.190 A  
HETATM    9  C   UNL     1      -8.056  13.556  68.382  1.00  0.00    -0.145 A  
HETATM   10  C   UNL     1     -10.119  12.669  66.693  1.00  0.00    -0.241 A  
HETATM   11  C   UNL     1      -9.225  11.745  67.271  1.00  0.00    -0.173 A  
HETATM   12  N   UNL     1     -11.166  12.158  66.015  1.00  0.00    -0.322 NA 
HETATM   13  C   UNL     1      -8.181  12.204  68.073  1.00  0.00    -0.158 A  
BRANCH   8  14
HETATM   14  O   UNL     1      -8.888  15.758  68.344  1.00  0.00    -0.176 OA 
BRANCH  14  15
HETATM   15  C   UNL     1      -7.987  16.714  67.921  1.00  0.00    -0.171 A  
HETATM   16  C   UNL     1      -7.064  16.227  66.987  1.00  0.00    -0.259 A  
HETATM   17  C   UNL     1      -6.280  17.102  66.238  1.00  0.00    -0.122 A  
HETATM   18  F   UNL     1      -8.888  20.759  67.462  1.00  0.00    -0.407 F  
HETATM   19  F   UNL     1      -7.013  21.177  66.460  1.00  0.00    -0.305 F  
HETATM   20  C   UNL     1      -6.426  18.476  66.410  1.00  0.00    -0.228 A  
HETATM   21  C   UNL     1      -8.005  18.080  68.214  1.00  0.00    -0.294 A  
HETATM   22  C   UNL     1      -7.557  20.466  67.489  1.00  0.00    -0.310 C  
HETATM   23  F   UNL     1      -7.071  21.024  68.629  1.00  0.00    -0.044 F  
HETATM   24  C   UNL     1      -7.294  18.980  67.393  1.00  0.00    -0.245 A  
ENDBRANCH  14  15
ENDBRANCH   8  14
BRANCH   9  25
HETATM   25  O   UNL     1      -7.057  13.796  69.290  1.00  0.00    -0.091 OA 
HETATM   26  C   UNL     1      -5.750  13.332  68.979  1.00  0.00    -0.076 C  
ENDBRANCH   9  25
BRANCH  11  27
HETATM   27  N   UNL     1      -9.452  10.364  67.080  1.00  0.00    -0.157 NA 
HETATM   28  H   UNL     1      -9.198   9.938  66.189  1.00  0.00     0.000 HD 
BRANCH  27  29
HETATM   29  C   UNL     1     -10.042   9.530  68.128  1.00  0.00    -0.182 C  
HETATM   30  C   UNL     1      -9.229   8.235  68.203  1.00  0.00    -0.137 C  
BRANCH  29  31
HETATM   31  C   UNL     1      -9.995  10.246  69.490  1.00  0.00    -0.252 C  
BRANCH  31  32
HETATM   32  C   UNL     1     -11.360  10.489  70.144  1.00  0.00    -0.400 C  
BRANCH  32  33
HETATM   33  C   UNL     1     -12.026  11.828  69.809  1.00  0.00    -0.322 C  
HETATM   34  N   UNL     1     -11.929  12.785  70.913  1.00  0.00    -0.402 NA 
HETATM   35  H1  UNL     1     -12.372  13.677  70.690  1.00  0.00     0.000 HD 
HETATM   36  H2  UNL     1     -10.961  12.918  71.202  1.00  0.00     0.000 HD 
ENDBRANCH  32  33
ENDBRANCH  31  32
ENDBRANCH  29  31
ENDBRANCH  27  29
ENDBRANCH  11  27
ENDBRANCH   2   3
TORSDOF 9
ENDMDL
MODEL      133
REMARK 921   NORMALIZED FREE ENERGY PREDICTED BY IDOCK:   -5.48 KCAL/MOL
REMARK 922        TOTAL FREE ENERGY PREDICTED BY IDOCK:   -9.33 KCAL/MOL
REMARK 923 INTER-LIGAND FREE ENERGY PREDICTED BY IDOCK:   -7.94 KCAL/MOL
REMARK 924 INTRA-LIGAND FREE ENERGY PREDICTED BY IDOCK:   -1.40 KCAL/MOL
REMARK 927      BINDING AFFINITY PREDICTED BY RF-SCORE:    0.00 PKD
ROOT
HETATM    1  C   UNL     1      -9.231  10.559  62.812  1.00  0.00    -0.309 C  
HETATM    2  O   UNL     1      -8.175  10.158  63.680  1.00  0.00    -0.155 OA 
ENDROOT
BRANCH   2   3
HETATM    3  C   UNL     1      -8.601   9.927  64.970  1.00  0.00    -0.161 A  
HETATM    4  C   UNL     1      -7.922   8.973  65.687  1.00  0.00    -0.104 A  
HETATM    5  C   UNL     1      -8.275   8.769  67.026  1.00  0.00    -0.103 A  
HETATM    6  C   UNL     1      -9.207   9.658  67.652  1.00  0.00    -0.144 A  
HETATM    7  C   UNL     1      -7.746   7.526  67.691  1.00  0.00    -0.115 C  
HETATM    8  C   UNL     1      -9.447   9.854  69.056  1.00  0.00    -0.183 A  
HETATM    9  C   UNL     1     -10.629  10.481  69.491  1.00  0.00    -0.246 A  
HETATM   10  C   UNL     1      -9.985  10.434  66.757  1.00  0.00    -0.206 A  
HETATM   11  C   UNL     1     -11.159  11.074  67.200  1.00  0.00    -0.267 A  
HETATM   12  N   UNL     1      -9.669  10.579  65.454  1.00  0.00    -0.237 NA 
HETATM   13  C   UNL     1     -11.486  11.054  68.555  1.00  0.00    -0.379 A  
BRANCH   8  14
HETATM   14  O   UNL     1      -8.562   9.506  70.058  1.00  0.00    -0.177 OA 
BRANCH  14  15
HETATM   15  C   UNL     1      -8.804   8.509  70.982  1.00  0.00    -0.175 A  
HETATM   16  C   UNL     1      -8.358   8.833  72.270  1.00  0.00    -0.010 A  
HETATM   17  C   UNL     1      -8.773   8.091  73.374  1.00  0.00    -0.323 A  
HETATM   18  F   UNL     1     -12.131   5.998  70.921  1.00  0.00    -0.238 F  
HETATM   19  F   UNL     1     -11.698   5.193  72.886  1.00  0.00    -0.344 F  
HETATM   20  C   UNL     1      -9.651   7.025  73.196  1.00  0.00    -0.196 A  
HETATM   21  C   UNL     1      -9.542   7.339  70.789  1.00  0.00    -0.171 A  
HETATM   22  C   UNL     1     -11.108   5.577  71.717  1.00  0.00    -0.145 C  
HETATM   23  F   UNL     1     -10.628   4.440  71.147  1.00  0.00    -0.166 F  
HETATM   24  C   UNL     1     -10.051   6.642  71.905  1.00  0.00    -0.196 A  
ENDBRANCH  14  15
ENDBRANCH   8  14
BRANCH   9  25
HETATM   25  O   UNL     1     -11.052  10.678  70.781  1.00  0.00    -0.176 OA 
HETATM   26  C   UNL     1     -12.265  10.057  71.184  1.00  0.00    -0.380 C  
ENDBRANCH   9  25
BRANCH  11  27
HETATM   27  N   UNL     1     -11.943  11.787  66.266  1.00  0.00    -0.412 NA 
HETATM   28  H   UNL     1     -12.804  11.366  65.917  1.00  0.00     0.000 HD 
BRANCH  27  29
HETATM   29  C   UNL     1     -11.552  13.113  65.787  1.00  0.00    -0.347 C  
HETATM   30  C   UNL     1     -11.999  13.230  64.327  1.00  0.00    -0.477 C  
BRANCH  29  31
HETATM   31  C   UNL     1     -12.227  14.218  66.621  1.00  0.00    -0.411 C  
BRANCH  31  32
HETATM   32  C   UNL     1     -11.271  15.079  67.454  1.00  0.00    -0.337 C  
BRANCH  32  33
HETATM   33  C   UNL     1     -10.846  14.485  68.800  1.00  0.00    -0.248 C  
HETATM   34  N   UNL     1      -9.554  13.802  68.720  1.00  0.00    -0.401 NA 
HETATM   35  H1  UNL     1      -9.270  13.406  69.616  1.00  0.00     0.000 HD 
HETATM   36  H2  UNL     1      -8.833  14.418  68.345  1.00  0.00     0.000 HD 
ENDBRANCH  32  33
ENDBRANCH  31  32
ENDBRANCH  29  31
ENDBRANCH  27  29
ENDBRANCH  11  27
ENDBRANCH   2   3
TORSDOF 9
ENDMDL
MODEL      134
REMARK 921   NORMALIZED FREE ENERGY PREDICTED BY IDOCK:   -5.46 KCAL/MOL
REMARK 922        TOTAL FREE ENERGY PREDICTED BY IDOCK:   -9.31 KCAL/MOL
REMARK 923 INTER-LIGAND FREE ENERGY PREDICTED BY IDOCK:   -8.02 KCAL/MOL
REMARK 924 INTRA-LIGAND FREE ENERGY PREDICTED BY IDOCK:   -1.29 KCAL/MOL
REMARK 927      BINDING AFFINITY PREDICTED BY RF-SCORE:    0.00 PKD
ROOT
HETATM    1  C   UNL     1      -7.496   6.798  64.677  1.00  0.00    -0.097 C  
HETATM    2  O   UNL     1      -8.277   7.964  64.429  1.00  0.00    -0.129 OA 
ENDROOT
BRANCH   2   3
HETATM    3  C   UNL     1      -8.640   8.620  65.585  1.00  0.00    -0.168 A  
HETATM    4  C   UNL     1      -8.237   9.927  65.710  1.00  0.00    -0.125 A  
HETATM    5  C   UNL     1      -8.657  10.648  66.833  1.00  0.00    -0.126 A  
HETATM    6  C   UNL     1      -9.613  10.067  67.727  1.00  0.00    -0.168 A  
HETATM    7  C   UNL     1      -7.960  11.955  67.106  1.00  0.00    -0.172 C  
HETATM    8  C   UNL     1     -10.425  10.726  68.714  1.00  0.00    -0.199 A  
HETATM    9  C   UNL     1     -11.031   9.981  69.742  1.00  0.00    -0.276 A  
HETATM   10  C   UNL     1      -9.763   8.663  67.610  1.00  0.00    -0.159 A  
HETATM   11  C   UNL     1     -10.386   7.923  68.634  1.00  0.00    -0.201 A  
HETATM   12  N   UNL     1      -9.306   7.967  66.549  1.00  0.00    -0.189 NA 
HETATM   13  C   UNL     1     -10.976   8.590  69.707  1.00  0.00    -0.131 A  
BRANCH   8  14
HETATM   14  O   UNL     1     -10.711  12.077  68.719  1.00  0.00    -0.222 OA 
BRANCH  14  15
HETATM   15  C   UNL     1     -11.391  12.720  67.703  1.00  0.00    -0.310 A  
HETATM   16  C   UNL     1     -11.524  14.098  67.915  1.00  0.00    -0.340 A  
HETATM   17  C   UNL     1     -11.911  14.943  66.878  1.00  0.00    -0.202 A  
HETATM   18  F   UNL     1     -11.194  11.634  63.683  1.00  0.00    -0.409 F  
HETATM   19  F   UNL     1     -12.235  13.421  63.035  1.00  0.00    -0.608 F  
HETATM   20  C   UNL     1     -12.156  14.413  65.614  1.00  0.00    -0.359 A  
HETATM   21  C   UNL     1     -11.805  12.174  66.486  1.00  0.00    -0.322 A  
HETATM   22  C   UNL     1     -12.228  12.462  64.005  1.00  0.00    -0.490 C  
HETATM   23  F   UNL     1     -13.363  11.736  63.823  1.00  0.00    -0.516 F  
HETATM   24  C   UNL     1     -12.098  13.026  65.401  1.00  0.00    -0.490 A  
ENDBRANCH  14  15
ENDBRANCH   8  14
BRANCH   9  25
HETATM   25  O   UNL     1     -11.767  10.450  70.801  1.00  0.00    -0.321 OA 
HETATM   26  C   UNL     1     -12.298   9.498  71.714  1.00  0.00    -0.394 C  
ENDBRANCH   9  25
BRANCH  11  27
HETATM   27  N   UNL     1     -10.461   6.518  68.512  1.00  0.00    -0.198 NA 
HETATM   28  H   UNL     1     -10.903   6.114  67.687  1.00  0.00     0.000 HD 
BRANCH  27  29
HETATM   29  C   UNL     1      -9.922   5.627  69.541  1.00  0.00    -0.198 C  
HETATM   30  C   UNL     1     -11.033   5.371  70.563  1.00  0.00    -0.101 C  
BRANCH  29  31
HETATM   31  C   UNL     1      -9.473   4.288  68.925  1.00  0.00    -0.236 C  
BRANCH  31  32
HETATM   32  C   UNL     1      -8.425   3.519  69.737  1.00  0.00    -0.089 C  
BRANCH  32  33
HETATM   33  C   UNL     1      -7.511   4.375  70.619  1.00  0.00    -0.052 C  
HETATM   34  N   UNL     1      -6.170   3.801  70.749  1.00  0.00    -0.018 NA 
HETATM   35  H1  UNL     1      -5.561   4.371  71.336  1.00  0.00     0.000 HD 
HETATM   36  H2  UNL     1      -5.750   3.635  69.834  1.00  0.00     0.000 HD 
ENDBRANCH  32  33
ENDBRANCH  31  32
ENDBRANCH  29  31
ENDBRANCH  27  29
ENDBRANCH  11  27
ENDBRANCH   2   3
TORSDOF 9
ENDMDL
MODEL      135
REMARK 921   NORMALIZED FREE ENERGY PREDICTED BY IDOCK:   -5.45 KCAL/MOL
REMARK 922        TOTAL FREE ENERGY PREDICTED BY IDOCK:   -9.28 KCAL/MOL
REMARK 923 INTER-LIGAND FREE ENERGY PREDICTED BY IDOCK:   -7.54 KCAL/MOL
REMARK 924 INTRA-LIGAND FREE ENERGY PREDICTED BY IDOCK:   -1.74 KCAL/MOL
REMARK 927      BINDING AFFINITY PREDICTED BY RF-SCORE:    0.00 PKD
ROOT
HETATM    1  C   UNL     1      -7.342  16.646  68.229  1.00  0.00    -0.179 C  
HETATM    2  O   UNL     1      -7.928  15.637  69.047  1.00  0.00    -0.173 OA 
ENDROOT
BRANCH   2   3
HETATM    3  C   UNL     1      -7.786  14.372  68.520  1.00  0.00    -0.135 A  
HETATM    4  C   UNL     1      -6.818  13.573  69.077  1.00  0.00    -0.107 A  
HETATM    5  C   UNL     1      -6.700  12.255  68.621  1.00  0.00    -0.083 A  
HETATM    6  C   UNL     1      -7.679  11.730  67.718  1.00  0.00    -0.133 A  
HETATM    7  C   UNL     1      -5.452  11.506  69.011  1.00  0.00    -0.046 C  
HETATM    8  C   UNL     1      -7.954  10.355  67.401  1.00  0.00    -0.107 A  
HETATM    9  C   UNL     1      -8.682  10.028  66.243  1.00  0.00    -0.136 A  
HETATM   10  C   UNL     1      -8.469  12.707  67.062  1.00  0.00    -0.150 A  
HETATM   11  C   UNL     1      -9.211  12.372  65.912  1.00  0.00     0.014 A  
HETATM   12  N   UNL     1      -8.533  13.990  67.474  1.00  0.00    -0.183 NA 
HETATM   13  C   UNL     1      -9.273  11.043  65.495  1.00  0.00    -0.235 A  
BRANCH   8  14
HETATM   14  O   UNL     1      -7.588   9.282  68.189  1.00  0.00    -0.083 OA 
BRANCH  14  15
HETATM   15  C   UNL     1      -8.402   8.729  69.157  1.00  0.00    -0.125 A  
HETATM   16  C   UNL     1      -8.600   9.572  70.258  1.00  0.00    -0.258 A  
HETATM   17  C   UNL     1      -9.612   9.312  71.180  1.00  0.00    -0.305 A  
HETATM   18  F   UNL     1     -11.615   6.193  68.365  1.00  0.00    -0.359 F  
HETATM   19  F   UNL     1     -12.329   6.278  70.409  1.00  0.00    -0.316 F  
HETATM   20  C   UNL     1     -10.442   8.210  70.998  1.00  0.00    -0.233 A  
HETATM   21  C   UNL     1      -9.121   7.534  69.075  1.00  0.00    -0.140 A  
HETATM   22  C   UNL     1     -11.192   6.197  69.661  1.00  0.00    -0.418 C  
HETATM   23  F   UNL     1     -10.677   4.961  69.894  1.00  0.00    -0.317 F  
HETATM   24  C   UNL     1     -10.213   7.314  69.942  1.00  0.00    -0.210 A  
ENDBRANCH  14  15
ENDBRANCH   8  14
BRANCH   9  25
HETATM   25  O   UNL     1      -8.967   8.780  65.751  1.00  0.00    -0.184 OA 
HETATM   26  C   UNL     1      -8.340   8.386  64.538  1.00  0.00    -0.116 C  
ENDBRANCH   9  25
BRANCH  11  27
HETATM   27  N   UNL     1      -9.935  13.385  65.247  1.00  0.00    -0.505 NA 
HETATM   28  H   UNL     1      -9.589  13.740  64.356  1.00  0.00     0.000 HD 
BRANCH  27  29
HETATM   29  C   UNL     1     -11.170  13.940  65.804  1.00  0.00    -0.303 C  
HETATM   30  C   UNL     1     -11.986  14.514  64.643  1.00  0.00    -0.478 C  
BRANCH  29  31
HETATM   31  C   UNL     1     -11.989  12.847  66.516  1.00  0.00    -0.447 C  
BRANCH  31  32
HETATM   32  C   UNL     1     -12.001  12.939  68.046  1.00  0.00    -0.323 C  
BRANCH  32  33
HETATM   33  C   UNL     1     -11.827  14.345  68.627  1.00  0.00    -0.331 C  
HETATM   34  N   UNL     1     -10.769  14.399  69.639  1.00  0.00    -0.439 NA 
HETATM   35  H1  UNL     1     -10.653  15.335  70.026  1.00  0.00     0.000 HD 
HETATM   36  H2  UNL     1      -9.889  14.039  69.272  1.00  0.00     0.000 HD 
ENDBRANCH  32  33
ENDBRANCH  31  32
ENDBRANCH  29  31
ENDBRANCH  27  29
ENDBRANCH  11  27
ENDBRANCH   2   3
TORSDOF 9
ENDMDL
MODEL      136
REMARK 921   NORMALIZED FREE ENERGY PREDICTED BY IDOCK:   -5.43 KCAL/MOL
REMARK 922        TOTAL FREE ENERGY PREDICTED BY IDOCK:   -9.25 KCAL/MOL
REMARK 923 INTER-LIGAND FREE ENERGY PREDICTED BY IDOCK:   -9.05 KCAL/MOL
REMARK 924 INTRA-LIGAND FREE ENERGY PREDICTED BY IDOCK:   -0.20 KCAL/MOL
REMARK 927      BINDING AFFINITY PREDICTED BY RF-SCORE:    0.00 PKD
ROOT
HETATM    1  C   UNL     1      -6.839   8.078  64.061  1.00  0.00    -0.066 C  
HETATM    2  O   UNL     1      -8.217   8.351  63.821  1.00  0.00    -0.158 OA 
ENDROOT
BRANCH   2   3
HETATM    3  C   UNL     1      -8.848   8.915  64.908  1.00  0.00    -0.117 A  
HETATM    4  C   UNL     1      -9.109   8.088  65.972  1.00  0.00    -0.193 A  
HETATM    5  C   UNL     1      -9.675   8.645  67.124  1.00  0.00    -0.248 A  
HETATM    6  C   UNL     1      -9.816  10.067  67.224  1.00  0.00    -0.225 A  
HETATM    7  C   UNL     1     -10.234   7.687  68.143  1.00  0.00    -0.236 C  
HETATM    8  C   UNL     1     -10.037  10.860  68.403  1.00  0.00    -0.183 A  
HETATM    9  C   UNL     1     -10.511  12.179  68.289  1.00  0.00    -0.213 A  
HETATM   10  C   UNL     1      -9.725  10.763  65.993  1.00  0.00    -0.217 A  
HETATM   11  C   UNL     1     -10.186  12.090  65.887  1.00  0.00    -0.232 A  
HETATM   12  N   UNL     1      -9.230  10.201  64.872  1.00  0.00    -0.210 NA 
HETATM   13  C   UNL     1     -10.611  12.766  67.030  1.00  0.00    -0.253 A  
BRANCH   8  14
HETATM   14  O   UNL     1      -9.771  10.439  69.691  1.00  0.00    -0.205 OA 
BRANCH  14  15
HETATM   15  C   UNL     1     -10.720   9.887  70.528  1.00  0.00    -0.317 A  
HETATM   16  C   UNL     1     -11.936  10.583  70.518  1.00  0.00    -0.436 A  
HETATM   17  C   UNL     1     -13.086  10.014  71.061  1.00  0.00    -0.435 A  
HETATM   18  F   UNL     1     -11.111   5.804  71.276  1.00  0.00    -0.317 F  
HETATM   19  F   UNL     1     -12.999   6.061  72.307  1.00  0.00    -0.291 F  
HETATM   20  C   UNL     1     -13.028   8.735  71.608  1.00  0.00    -0.390 A  
HETATM   21  C   UNL     1     -10.629   8.683  71.231  1.00  0.00    -0.308 A  
HETATM   22  C   UNL     1     -11.761   6.614  72.157  1.00  0.00    -0.304 C  
HETATM   23  F   UNL     1     -11.132   6.456  73.352  1.00  0.00    -0.260 F  
HETATM   24  C   UNL     1     -11.804   8.052  71.692  1.00  0.00    -0.329 A  
ENDBRANCH  14  15
ENDBRANCH   8  14
BRANCH   9  25
HETATM   25  O   UNL     1     -10.847  13.044  69.299  1.00  0.00    -0.138 OA 
HETATM   26  C   UNL     1     -11.760  14.092  69.000  1.00  0.00    -0.324 C  
ENDBRANCH   9  25
BRANCH  11  27
HETATM   27  N   UNL     1     -10.138  12.731  64.630  1.00  0.00    -0.518 NA 
HETATM   28  H   UNL     1      -9.232  12.909  64.197  1.00  0.00     0.000 HD 
BRANCH  27  29
HETATM   29  C   UNL     1     -11.355  13.148  63.932  1.00  0.00    -0.374 C  
HETATM   30  C   UNL     1     -12.024  11.889  63.373  1.00  0.00    -0.528 C  
BRANCH  29  31
HETATM   31  C   UNL     1     -12.324  13.858  64.897  1.00  0.00    -0.445 C  
BRANCH  31  32
HETATM   32  C   UNL     1     -12.325  15.389  64.806  1.00  0.00     0.118 C  
BRANCH  32  33
HETATM   33  C   UNL     1     -10.947  16.056  64.853  1.00  0.00    -0.384 C  
HETATM   34  N   UNL     1     -10.503  16.312  66.225  1.00  0.00    -0.318 NA 
HETATM   35  H1  UNL     1      -9.586  16.757  66.258  1.00  0.00     0.000 HD 
HETATM   36  H2  UNL     1     -10.519  15.459  66.784  1.00  0.00     0.000 HD 
ENDBRANCH  32  33
ENDBRANCH  31  32
ENDBRANCH  29  31
ENDBRANCH  27  29
ENDBRANCH  11  27
ENDBRANCH   2   3
TORSDOF 9
ENDMDL
MODEL      137
REMARK 921   NORMALIZED FREE ENERGY PREDICTED BY IDOCK:   -5.42 KCAL/MOL
REMARK 922        TOTAL FREE ENERGY PREDICTED BY IDOCK:   -9.24 KCAL/MOL
REMARK 923 INTER-LIGAND FREE ENERGY PREDICTED BY IDOCK:   -7.70 KCAL/MOL
REMARK 924 INTRA-LIGAND FREE ENERGY PREDICTED BY IDOCK:   -1.55 KCAL/MOL
REMARK 927      BINDING AFFINITY PREDICTED BY RF-SCORE:    0.00 PKD
ROOT
HETATM    1  C   UNL     1     -11.967   9.092  71.163  1.00  0.00    -0.298 C  
HETATM    2  O   UNL     1     -10.768   9.755  70.773  1.00  0.00    -0.303 OA 
ENDROOT
BRANCH   2   3
HETATM    3  C   UNL     1     -10.868  10.359  69.539  1.00  0.00    -0.255 A  
HETATM    4  C   UNL     1     -11.376  11.634  69.511  1.00  0.00    -0.328 A  
HETATM    5  C   UNL     1     -11.416  12.308  68.285  1.00  0.00    -0.367 A  
HETATM    6  C   UNL     1     -10.787  11.724  67.139  1.00  0.00    -0.303 A  
HETATM    7  C   UNL     1     -12.251  13.560  68.219  1.00  0.00    -0.148 C  
HETATM    8  C   UNL     1     -10.408  12.363  65.907  1.00  0.00    -0.257 A  
HETATM    9  C   UNL     1     -10.142  11.590  64.763  1.00  0.00    -0.269 A  
HETATM   10  C   UNL     1     -10.511  10.339  67.251  1.00  0.00    -0.253 A  
HETATM   11  C   UNL     1     -10.228   9.571  66.103  1.00  0.00    -0.202 A  
HETATM   12  N   UNL     1     -10.530   9.684  68.430  1.00  0.00    -0.214 NA 
HETATM   13  C   UNL     1     -10.088  10.203  64.868  1.00  0.00    -0.277 A  
BRANCH   8  14
HETATM   14  O   UNL     1     -10.233  13.724  65.753  1.00  0.00    -0.294 OA 
BRANCH  14  15
HETATM   15  C   UNL     1      -9.402  14.485  66.550  1.00  0.00    -0.284 A  
HETATM   16  C   UNL     1      -8.252  13.799  66.962  1.00  0.00    -0.055 A  
HETATM   17  C   UNL     1      -7.174  14.485  67.515  1.00  0.00    -0.210 A  
HETATM   18  F   UNL     1      -8.863  18.599  66.139  1.00  0.00    -0.295 F  
HETATM   19  F   UNL     1      -7.197  18.631  67.523  1.00  0.00    -0.206 F  
HETATM   20  C   UNL     1      -7.234  15.870  67.647  1.00  0.00    -0.182 A  
HETATM   21  C   UNL     1      -9.527  15.846  66.844  1.00  0.00    -0.242 A  
HETATM   22  C   UNL     1      -8.427  18.078  67.320  1.00  0.00    -0.234 C  
HETATM   23  F   UNL     1      -9.235  18.594  68.282  1.00  0.00    -0.295 F  
HETATM   24  C   UNL     1      -8.406  16.566  67.307  1.00  0.00    -0.197 A  
ENDBRANCH  14  15
ENDBRANCH   8  14
BRANCH   9  25
HETATM   25  O   UNL     1      -9.846  12.032  63.498  1.00  0.00    -0.368 OA 
HETATM   26  C   UNL     1      -9.058  11.189  62.667  1.00  0.00    -0.330 C  
ENDBRANCH   9  25
BRANCH  11  27
HETATM   27  N   UNL     1     -10.021   8.182  66.245  1.00  0.00    -0.469 NA 
HETATM   28  H   UNL     1     -10.780   7.540  66.017  1.00  0.00     0.000 HD 
BRANCH  27  29
HETATM   29  C   UNL     1      -8.745   7.638  66.713  1.00  0.00    -0.133 C  
HETATM   30  C   UNL     1      -8.781   6.122  66.504  1.00  0.00    -0.133 C  
BRANCH  29  31
HETATM   31  C   UNL     1      -7.570   8.238  65.919  1.00  0.00    -0.082 C  
BRANCH  31  32
HETATM   32  C   UNL     1      -6.556   9.027  66.755  1.00  0.00    -0.064 C  
BRANCH  32  33
HETATM   33  C   UNL     1      -6.888   9.162  68.244  1.00  0.00    -0.065 C  
HETATM   34  N   UNL     1      -7.392  10.495  68.581  1.00  0.00    -0.086 NA 
HETATM   35  H1  UNL     1      -7.613  10.585  69.572  1.00  0.00     0.000 HD 
HETATM   36  H2  UNL     1      -8.193  10.744  68.001  1.00  0.00     0.000 HD 
ENDBRANCH  32  33
ENDBRANCH  31  32
ENDBRANCH  29  31
ENDBRANCH  27  29
ENDBRANCH  11  27
ENDBRANCH   2   3
TORSDOF 9
ENDMDL
MODEL      138
REMARK 921   NORMALIZED FREE ENERGY PREDICTED BY IDOCK:   -5.41 KCAL/MOL
REMARK 922        TOTAL FREE ENERGY PREDICTED BY IDOCK:   -9.22 KCAL/MOL
REMARK 923 INTER-LIGAND FREE ENERGY PREDICTED BY IDOCK:   -7.94 KCAL/MOL
REMARK 924 INTRA-LIGAND FREE ENERGY PREDICTED BY IDOCK:   -1.28 KCAL/MOL
REMARK 927      BINDING AFFINITY PREDICTED BY RF-SCORE:    0.00 PKD
ROOT
HETATM    1  C   UNL     1      -8.396   8.128  73.711  1.00  0.00    -0.248 C  
HETATM    2  O   UNL     1      -9.808   7.992  73.576  1.00  0.00    -0.250 OA 
ENDROOT
BRANCH   2   3
HETATM    3  C   UNL     1     -10.260   8.333  72.320  1.00  0.00    -0.305 A  
HETATM    4  C   UNL     1     -11.527   8.857  72.239  1.00  0.00    -0.307 A  
HETATM    5  C   UNL     1     -11.988   9.289  70.990  1.00  0.00    -0.369 A  
HETATM    6  C   UNL     1     -11.086   9.326  69.878  1.00  0.00    -0.200 A  
HETATM    7  C   UNL     1     -13.465   9.563  70.864  1.00  0.00    -0.099 C  
HETATM    8  C   UNL     1     -11.231  10.034  68.635  1.00  0.00    -0.121 A  
HETATM    9  C   UNL     1     -10.446   9.679  67.524  1.00  0.00    -0.262 A  
HETATM   10  C   UNL     1      -9.906   8.558  70.043  1.00  0.00    -0.179 A  
HETATM   11  C   UNL     1      -9.114   8.219  68.928  1.00  0.00    -0.147 A  
HETATM   12  N   UNL     1      -9.498   8.097  71.242  1.00  0.00    -0.153 NA 
HETATM   13  C   UNL     1      -9.419   8.751  67.677  1.00  0.00    -0.168 A  
BRANCH   8  14
HETATM   14  O   UNL     1     -12.077  11.108  68.440  1.00  0.00    -0.605 OA 
BRANCH  14  15
HETATM   15  C   UNL     1     -11.640  12.392  68.185  1.00  0.00    -0.341 A  
HETATM   16  C   UNL     1     -12.131  12.913  66.981  1.00  0.00    -0.296 A  
HETATM   17  C   UNL     1     -12.041  14.276  66.706  1.00  0.00    -0.446 A  
HETATM   18  F   UNL     1     -10.953  15.270  71.122  1.00  0.00    -0.355 F  
HETATM   19  F   UNL     1     -10.716  16.858  69.667  1.00  0.00    -0.313 F  
HETATM   20  C   UNL     1     -11.468  15.130  67.644  1.00  0.00    -0.319 A  
HETATM   21  C   UNL     1     -10.914  13.223  69.042  1.00  0.00    -0.249 A  
HETATM   22  C   UNL     1     -10.409  15.551  69.904  1.00  0.00    -0.312 C  
HETATM   23  F   UNL     1      -9.061  15.506  70.072  1.00  0.00    -0.245 F  
HETATM   24  C   UNL     1     -10.906  14.616  68.824  1.00  0.00    -0.261 A  
ENDBRANCH  14  15
ENDBRANCH   8  14
BRANCH   9  25
HETATM   25  O   UNL     1     -10.506  10.190  66.252  1.00  0.00    -0.201 OA 
HETATM   26  C   UNL     1      -9.329  10.132  65.457  1.00  0.00    -0.207 C  
ENDBRANCH   9  25
BRANCH  11  27
HETATM   27  N   UNL     1      -7.980   7.399  69.121  1.00  0.00    -0.117 NA 
HETATM   28  H   UNL     1      -7.788   7.027  70.052  1.00  0.00     0.000 HD 
BRANCH  27  29
HETATM   29  C   UNL     1      -7.072   7.070  68.021  1.00  0.00    -0.086 C  
HETATM   30  C   UNL     1      -5.641   7.155  68.559  1.00  0.00    -0.022 C  
BRANCH  29  31
HETATM   31  C   UNL     1      -7.341   5.647  67.497  1.00  0.00    -0.077 C  
BRANCH  31  32
HETATM   32  C   UNL     1      -8.455   5.540  66.449  1.00  0.00    -0.119 C  
BRANCH  32  33
HETATM   33  C   UNL     1      -9.577   4.550  66.775  1.00  0.00    -0.190 C  
HETATM   34  N   UNL     1      -9.768   3.561  65.711  1.00  0.00    -0.371 NA 
HETATM   35  H1  UNL     1     -10.515   2.902  65.928  1.00  0.00     0.000 HD 
HETATM   36  H2  UNL     1      -8.897   3.075  65.499  1.00  0.00     0.000 HD 
ENDBRANCH  32  33
ENDBRANCH  31  32
ENDBRANCH  29  31
ENDBRANCH  27  29
ENDBRANCH  11  27
ENDBRANCH   2   3
TORSDOF 9
ENDMDL
MODEL      139
REMARK 921   NORMALIZED FREE ENERGY PREDICTED BY IDOCK:   -5.40 KCAL/MOL
REMARK 922        TOTAL FREE ENERGY PREDICTED BY IDOCK:   -9.21 KCAL/MOL
REMARK 923 INTER-LIGAND FREE ENERGY PREDICTED BY IDOCK:   -7.79 KCAL/MOL
REMARK 924 INTRA-LIGAND FREE ENERGY PREDICTED BY IDOCK:   -1.41 KCAL/MOL
REMARK 927      BINDING AFFINITY PREDICTED BY RF-SCORE:    0.00 PKD
ROOT
HETATM    1  C   UNL     1      -5.187  12.677  71.518  1.00  0.00    -0.090 C  
HETATM    2  O   UNL     1      -5.424  11.277  71.407  1.00  0.00    -0.321 OA 
ENDROOT
BRANCH   2   3
HETATM    3  C   UNL     1      -6.322  10.964  70.409  1.00  0.00    -0.089 A  
HETATM    4  C   UNL     1      -6.102  11.527  69.177  1.00  0.00    -0.064 A  
HETATM    5  C   UNL     1      -6.947  11.168  68.121  1.00  0.00    -0.069 A  
HETATM    6  C   UNL     1      -7.901  10.117  68.307  1.00  0.00    -0.093 A  
HETATM    7  C   UNL     1      -6.888  12.018  66.878  1.00  0.00    -0.036 C  
HETATM    8  C   UNL     1      -8.607   9.365  67.305  1.00  0.00    -0.128 A  
HETATM    9  C   UNL     1      -9.759   8.635  67.649  1.00  0.00    -0.159 A  
HETATM   10  C   UNL     1      -8.173   9.791  69.659  1.00  0.00    -0.157 A  
HETATM   11  C   UNL     1      -9.320   9.046  69.999  1.00  0.00    -0.183 A  
HETATM   12  N   UNL     1      -7.384  10.189  70.678  1.00  0.00    -0.259 NA 
HETATM   13  C   UNL     1     -10.120   8.513  68.989  1.00  0.00    -0.207 A  
BRANCH   8  14
HETATM   14  O   UNL     1      -8.212   9.254  65.986  1.00  0.00    -0.108 OA 
BRANCH  14  15
HETATM   15  C   UNL     1      -8.738  10.016  64.962  1.00  0.00    -0.173 A  
HETATM   16  C   UNL     1      -8.495   9.477  63.692  1.00  0.00    -0.197 A  
HETATM   17  C   UNL     1      -9.191   9.939  62.578  1.00  0.00    -0.307 A  
HETATM   18  F   UNL     1     -12.285  12.190  65.228  1.00  0.00    -0.447 F  
HETATM   19  F   UNL     1     -12.316  12.612  63.103  1.00  0.00    -0.570 F  
HETATM   20  C   UNL     1     -10.147  10.939  62.730  1.00  0.00    -0.086 A  
HETATM   21  C   UNL     1      -9.569  11.133  65.081  1.00  0.00    -0.273 A  
HETATM   22  C   UNL     1     -11.483  12.526  64.179  1.00  0.00    -0.385 C  
HETATM   23  F   UNL     1     -11.053  13.793  64.423  1.00  0.00    -0.356 F  
HETATM   24  C   UNL     1     -10.353  11.541  63.982  1.00  0.00    -0.406 A  
ENDBRANCH  14  15
ENDBRANCH   8  14
BRANCH   9  25
HETATM   25  O   UNL     1     -10.592   7.932  66.816  1.00  0.00    -0.326 OA 
HETATM   26  C   UNL     1     -10.340   6.544  66.643  1.00  0.00    -0.147 C  
ENDBRANCH   9  25
BRANCH  11  27
HETATM   27  N   UNL     1      -9.593   8.795  71.361  1.00  0.00    -0.240 NA 
HETATM   28  H   UNL     1      -9.593   9.574  72.020  1.00  0.00     0.000 HD 
BRANCH  27  29
HETATM   29  C   UNL     1      -9.874   7.446  71.853  1.00  0.00    -0.162 C  
HETATM   30  C   UNL     1      -8.571   6.876  72.419  1.00  0.00    -0.128 C  
BRANCH  29  31
HETATM   31  C   UNL     1     -10.943   7.479  72.962  1.00  0.00    -0.443 C  
BRANCH  31  32
HETATM   32  C   UNL     1     -12.126   8.417  72.696  1.00  0.00    -0.324 C  
BRANCH  32  33
HETATM   33  C   UNL     1     -13.032   8.026  71.525  1.00  0.00    -0.303 C  
HETATM   34  N   UNL     1     -13.587   9.195  70.839  1.00  0.00    -0.559 NA 
HETATM   35  H1  UNL     1     -14.190   8.935  70.060  1.00  0.00     0.000 HD 
HETATM   36  H2  UNL     1     -12.849   9.831  70.538  1.00  0.00     0.000 HD 
ENDBRANCH  32  33
ENDBRANCH  31  32
ENDBRANCH  29  31
ENDBRANCH  27  29
ENDBRANCH  11  27
ENDBRANCH   2   3
TORSDOF 9
ENDMDL
MODEL      140
REMARK 921   NORMALIZED FREE ENERGY PREDICTED BY IDOCK:   -5.39 KCAL/MOL
REMARK 922        TOTAL FREE ENERGY PREDICTED BY IDOCK:   -9.20 KCAL/MOL
REMARK 923 INTER-LIGAND FREE ENERGY PREDICTED BY IDOCK:   -7.96 KCAL/MOL
REMARK 924 INTRA-LIGAND FREE ENERGY PREDICTED BY IDOCK:   -1.24 KCAL/MOL
REMARK 927      BINDING AFFINITY PREDICTED BY RF-SCORE:    0.00 PKD
ROOT
HETATM    1  C   UNL     1     -12.039   9.428  71.631  1.00  0.00    -0.388 C  
HETATM    2  O   UNL     1     -12.457  10.755  71.939  1.00  0.00    -0.262 OA 
ENDROOT
BRANCH   2   3
HETATM    3  C   UNL     1     -12.278  11.630  70.890  1.00  0.00    -0.298 A  
HETATM    4  C   UNL     1     -12.550  12.954  71.134  1.00  0.00    -0.373 A  
HETATM    5  C   UNL     1     -12.302  13.882  70.115  1.00  0.00    -0.400 A  
HETATM    6  C   UNL     1     -11.630  13.458  68.923  1.00  0.00    -0.356 A  
HETATM    7  C   UNL     1     -12.889  15.258  70.286  1.00  0.00    -0.298 C  
HETATM    8  C   UNL     1     -10.979  14.270  67.930  1.00  0.00    -0.267 A  
HETATM    9  C   UNL     1     -10.694  13.738  66.660  1.00  0.00    -0.277 A  
HETATM   10  C   UNL     1     -11.617  12.057  68.713  1.00  0.00    -0.311 A  
HETATM   11  C   UNL     1     -11.315  11.528  67.442  1.00  0.00    -0.298 A  
HETATM   12  N   UNL     1     -11.912  11.170  69.685  1.00  0.00    -0.335 NA 
HETATM   13  C   UNL     1     -10.897  12.381  66.421  1.00  0.00    -0.291 A  
BRANCH   8  14
HETATM   14  O   UNL     1     -10.551  15.566  68.137  1.00  0.00    -0.253 OA 
BRANCH  14  15
HETATM   15  C   UNL     1      -9.322  15.891  68.675  1.00  0.00    -0.212 A  
HETATM   16  C   UNL     1      -8.529  14.770  68.955  1.00  0.00    -0.140 A  
HETATM   17  C   UNL     1      -7.169  14.909  69.220  1.00  0.00    -0.172 A  
HETATM   18  F   UNL     1      -7.142  19.302  67.680  1.00  0.00    -0.229 F  
HETATM   19  F   UNL     1      -5.376  18.615  68.731  1.00  0.00    -0.182 F  
HETATM   20  C   UNL     1      -6.588  16.174  69.193  1.00  0.00    -0.176 A  
HETATM   21  C   UNL     1      -8.774  17.168  68.820  1.00  0.00    -0.235 A  
HETATM   22  C   UNL     1      -6.736  18.673  68.818  1.00  0.00    -0.270 C  
HETATM   23  F   UNL     1      -7.011  19.526  69.840  1.00  0.00    -0.324 F  
HETATM   24  C   UNL     1      -7.380  17.315  68.985  1.00  0.00    -0.209 A  
ENDBRANCH  14  15
ENDBRANCH   8  14
BRANCH   9  25
HETATM   25  O   UNL     1     -10.154  14.386  65.578  1.00  0.00    -0.331 OA 
HETATM   26  C   UNL     1     -10.060  13.669  64.354  1.00  0.00     0.078 C  
ENDBRANCH   9  25
BRANCH  11  27
HETATM   27  N   UNL     1     -11.373  10.130  67.252  1.00  0.00    -0.357 NA 
HETATM   28  H   UNL     1     -12.284   9.671  67.221  1.00  0.00     0.000 HD 
BRANCH  27  29
HETATM   29  C   UNL     1     -10.162   9.323  67.100  1.00  0.00    -0.257 C  
HETATM   30  C   UNL     1      -9.884   9.181  65.601  1.00  0.00    -0.164 C  
BRANCH  29  31
HETATM   31  C   UNL     1      -8.961  10.004  67.782  1.00  0.00    -0.133 C  
BRANCH  31  32
HETATM   32  C   UNL     1      -7.820  10.405  66.840  1.00  0.00    -0.114 C  
BRANCH  32  33
HETATM   33  C   UNL     1      -6.486   9.689  67.072  1.00  0.00    -0.066 C  
HETATM   34  N   UNL     1      -6.657   8.418  67.780  1.00  0.00    -0.060 NA 
HETATM   35  H1  UNL     1      -5.769   7.940  67.934  1.00  0.00     0.000 HD 
HETATM   36  H2  UNL     1      -7.322   7.813  67.298  1.00  0.00     0.000 HD 
ENDBRANCH  32  33
ENDBRANCH  31  32
ENDBRANCH  29  31
ENDBRANCH  27  29
ENDBRANCH  11  27
ENDBRANCH   2   3
TORSDOF 9
ENDMDL
MODEL      141
REMARK 921   NORMALIZED FREE ENERGY PREDICTED BY IDOCK:   -5.39 KCAL/MOL
REMARK 922        TOTAL FREE ENERGY PREDICTED BY IDOCK:   -9.19 KCAL/MOL
REMARK 923 INTER-LIGAND FREE ENERGY PREDICTED BY IDOCK:   -8.41 KCAL/MOL
REMARK 924 INTRA-LIGAND FREE ENERGY PREDICTED BY IDOCK:   -0.78 KCAL/MOL
REMARK 927      BINDING AFFINITY PREDICTED BY RF-SCORE:    0.00 PKD
ROOT
HETATM    1  C   UNL     1      -6.620  17.225  69.250  1.00  0.00    -0.237 C  
HETATM    2  O   UNL     1      -6.371  16.018  69.966  1.00  0.00    -0.177 OA 
ENDROOT
BRANCH   2   3
HETATM    3  C   UNL     1      -6.832  14.900  69.306  1.00  0.00    -0.148 A  
HETATM    4  C   UNL     1      -6.351  13.686  69.732  1.00  0.00    -0.096 A  
HETATM    5  C   UNL     1      -6.858  12.525  69.139  1.00  0.00    -0.062 A  
HETATM    6  C   UNL     1      -7.963  12.619  68.233  1.00  0.00    -0.153 A  
HETATM    7  C   UNL     1      -6.106  11.244  69.391  1.00  0.00    -0.074 C  
HETATM    8  C   UNL     1      -8.845  11.574  67.789  1.00  0.00    -0.153 A  
HETATM    9  C   UNL     1      -9.634  11.755  66.639  1.00  0.00    -0.205 A  
HETATM   10  C   UNL     1      -8.202  13.918  67.719  1.00  0.00    -0.173 A  
HETATM   11  C   UNL     1      -9.007  14.097  66.576  1.00  0.00    -0.112 A  
HETATM   12  N   UNL     1      -7.664  15.029  68.262  1.00  0.00    -0.107 NA 
HETATM   13  C   UNL     1      -9.679  13.006  66.028  1.00  0.00    -0.223 A  
BRANCH   8  14
HETATM   14  O   UNL     1      -9.027  10.372  68.445  1.00  0.00    -0.128 OA 
BRANCH  14  15
HETATM   15  C   UNL     1      -9.747  10.238  69.615  1.00  0.00    -0.185 A  
HETATM   16  C   UNL     1     -10.997  10.869  69.568  1.00  0.00    -0.306 A  
HETATM   17  C   UNL     1     -11.969  10.595  70.528  1.00  0.00    -0.446 A  
HETATM   18  F   UNL     1      -9.638   6.875  72.075  1.00  0.00    -0.147 F  
HETATM   19  F   UNL     1     -11.308   7.560  73.274  1.00  0.00    -0.385 F  
HETATM   20  C   UNL     1     -11.699   9.675  71.537  1.00  0.00    -0.472 A  
HETATM   21  C   UNL     1      -9.421   9.452  70.723  1.00  0.00    -0.307 A  
HETATM   22  C   UNL     1     -10.174   7.989  72.649  1.00  0.00    -0.316 C  
HETATM   23  F   UNL     1      -9.316   8.355  73.637  1.00  0.00    -0.284 F  
HETATM   24  C   UNL     1     -10.427   9.087  71.642  1.00  0.00    -0.426 A  
ENDBRANCH  14  15
ENDBRANCH   8  14
BRANCH   9  25
HETATM   25  O   UNL     1     -10.464  10.846  66.035  1.00  0.00    -0.251 OA 
HETATM   26  C   UNL     1     -10.408  10.733  64.619  1.00  0.00    -0.324 C  
ENDBRANCH   9  25
BRANCH  11  27
HETATM   27  N   UNL     1      -9.171  15.399  66.053  1.00  0.00    -0.373 NA 
HETATM   28  H   UNL     1      -8.430  15.801  65.480  1.00  0.00     0.000 HD 
BRANCH  27  29
HETATM   29  C   UNL     1     -10.378  16.185  66.313  1.00  0.00    -0.328 C  
HETATM   30  C   UNL     1     -11.542  15.206  66.488  1.00  0.00    -0.105 C  
BRANCH  29  31
HETATM   31  C   UNL     1     -10.218  17.026  67.594  1.00  0.00    -0.317 C  
BRANCH  31  32
HETATM   32  C   UNL     1     -10.416  18.535  67.409  1.00  0.00    -0.455 C  
BRANCH  32  33
HETATM   33  C   UNL     1      -9.381  19.236  66.525  1.00  0.00    -0.353 C  
HETATM   34  N   UNL     1      -9.969  20.323  65.739  1.00  0.00    -0.582 NA 
HETATM   35  H1  UNL     1      -9.280  20.790  65.150  1.00  0.00     0.000 HD 
HETATM   36  H2  UNL     1     -10.455  20.990  66.338  1.00  0.00     0.000 HD 
ENDBRANCH  32  33
ENDBRANCH  31  32
ENDBRANCH  29  31
ENDBRANCH  27  29
ENDBRANCH  11  27
ENDBRANCH   2   3
TORSDOF 9
ENDMDL
MODEL      142
REMARK 921   NORMALIZED FREE ENERGY PREDICTED BY IDOCK:   -5.38 KCAL/MOL
REMARK 922        TOTAL FREE ENERGY PREDICTED BY IDOCK:   -9.18 KCAL/MOL
REMARK 923 INTER-LIGAND FREE ENERGY PREDICTED BY IDOCK:   -8.17 KCAL/MOL
REMARK 924 INTRA-LIGAND FREE ENERGY PREDICTED BY IDOCK:   -1.01 KCAL/MOL
REMARK 927      BINDING AFFINITY PREDICTED BY RF-SCORE:    0.00 PKD
ROOT
HETATM    1  C   UNL     1     -13.933  15.150  71.468  1.00  0.00    -0.522 C  
HETATM    2  O   UNL     1     -14.125  13.806  71.901  1.00  0.00    -0.416 OA 
ENDROOT
BRANCH   2   3
HETATM    3  C   UNL     1     -13.208  12.933  71.358  1.00  0.00    -0.176 A  
HETATM    4  C   UNL     1     -13.203  11.652  71.854  1.00  0.00    -0.475 A  
HETATM    5  C   UNL     1     -12.340  10.717  71.270  1.00  0.00    -0.488 A  
HETATM    6  C   UNL     1     -11.617  11.068  70.086  1.00  0.00    -0.421 A  
HETATM    7  C   UNL     1     -12.123   9.427  72.018  1.00  0.00    -0.379 C  
HETATM    8  C   UNL     1     -10.968  10.194  69.146  1.00  0.00    -0.230 A  
HETATM    9  C   UNL     1     -10.007  10.704  68.254  1.00  0.00    -0.158 A  
HETATM   10  C   UNL     1     -11.541  12.458  69.824  1.00  0.00    -0.232 A  
HETATM   11  C   UNL     1     -10.588  12.963  68.917  1.00  0.00    -0.123 A  
HETATM   12  N   UNL     1     -12.337  13.360  70.432  1.00  0.00    -0.333 NA 
HETATM   13  C   UNL     1      -9.806  12.080  68.174  1.00  0.00    -0.201 A  
BRANCH   8  14
HETATM   14  O   UNL     1     -11.248   8.849  69.004  1.00  0.00     0.080 OA 
BRANCH  14  15
HETATM   15  C   UNL     1     -10.652   7.859  69.759  1.00  0.00    -0.242 A  
HETATM   16  C   UNL     1     -11.242   6.600  69.582  1.00  0.00    -0.397 A  
HETATM   17  C   UNL     1     -10.601   5.445  70.024  1.00  0.00    -0.354 A  
HETATM   18  F   UNL     1      -6.584   7.710  70.659  1.00  0.00    -0.038 F  
HETATM   19  F   UNL     1      -6.722   5.704  71.465  1.00  0.00    -0.049 F  
HETATM   20  C   UNL     1      -9.354   5.542  70.636  1.00  0.00    -0.195 A  
HETATM   21  C   UNL     1      -9.488   7.965  70.525  1.00  0.00    -0.162 A  
HETATM   22  C   UNL     1      -7.371   6.903  71.423  1.00  0.00    -0.081 C  
HETATM   23  F   UNL     1      -7.314   7.404  72.686  1.00  0.00    -0.072 F  
HETATM   24  C   UNL     1      -8.781   6.799  70.886  1.00  0.00    -0.142 A  
ENDBRANCH  14  15
ENDBRANCH   8  14
BRANCH   9  25
HETATM   25  O   UNL     1      -9.242  10.009  67.352  1.00  0.00    -0.137 OA 
HETATM   26  C   UNL     1      -8.457  10.756  66.432  1.00  0.00    -0.158 C  
ENDBRANCH   9  25
BRANCH  11  27
HETATM   27  N   UNL     1     -10.497  14.360  68.728  1.00  0.00    -0.241 NA 
HETATM   28  H   UNL     1     -11.010  14.980  69.355  1.00  0.00     0.000 HD 
BRANCH  27  29
HETATM   29  C   UNL     1      -9.688  14.941  67.656  1.00  0.00    -0.212 C  
HETATM   30  C   UNL     1     -10.623  15.252  66.484  1.00  0.00    -0.304 C  
BRANCH  29  31
HETATM   31  C   UNL     1      -9.005  16.238  68.126  1.00  0.00    -0.187 C  
BRANCH  31  32
HETATM   32  C   UNL     1      -9.955  17.311  68.673  1.00  0.00    -0.327 C  
BRANCH  32  33
HETATM   33  C   UNL     1      -9.581  18.758  68.341  1.00  0.00    -0.365 C  
HETATM   34  N   UNL     1     -10.475  19.345  67.340  1.00  0.00    -0.437 NA 
HETATM   35  H1  UNL     1     -10.226  20.309  67.119  1.00  0.00     0.000 HD 
HETATM   36  H2  UNL     1     -11.450  19.273  67.629  1.00  0.00     0.000 HD 
ENDBRANCH  32  33
ENDBRANCH  31  32
ENDBRANCH  29  31
ENDBRANCH  27  29
ENDBRANCH  11  27
ENDBRANCH   2   3
TORSDOF 9
ENDMDL
MODEL      143
REMARK 921   NORMALIZED FREE ENERGY PREDICTED BY IDOCK:   -5.38 KCAL/MOL
REMARK 922        TOTAL FREE ENERGY PREDICTED BY IDOCK:   -9.18 KCAL/MOL
REMARK 923 INTER-LIGAND FREE ENERGY PREDICTED BY IDOCK:   -8.18 KCAL/MOL
REMARK 924 INTRA-LIGAND FREE ENERGY PREDICTED BY IDOCK:   -1.00 KCAL/MOL
REMARK 927      BINDING AFFINITY PREDICTED BY RF-SCORE:    0.00 PKD
ROOT
HETATM    1  C   UNL     1     -13.234  12.651  71.963  1.00  0.00    -0.427 C  
HETATM    2  O   UNL     1     -13.493  11.275  71.701  1.00  0.00    -0.253 OA 
ENDROOT
BRANCH   2   3
HETATM    3  C   UNL     1     -12.364  10.579  71.328  1.00  0.00    -0.397 A  
HETATM    4  C   UNL     1     -12.100   9.415  72.007  1.00  0.00    -0.379 A  
HETATM    5  C   UNL     1     -11.007   8.642  71.601  1.00  0.00    -0.378 A  
HETATM    6  C   UNL     1     -10.300   8.991  70.406  1.00  0.00    -0.253 A  
HETATM    7  C   UNL     1     -10.553   7.553  72.539  1.00  0.00    -0.321 C  
HETATM    8  C   UNL     1      -9.403   8.178  69.630  1.00  0.00    -0.159 A  
HETATM    9  C   UNL     1      -8.524   8.777  68.710  1.00  0.00    -0.129 A  
HETATM   10  C   UNL     1     -10.527  10.312  69.944  1.00  0.00    -0.256 A  
HETATM   11  C   UNL     1      -9.653  10.902  69.009  1.00  0.00    -0.156 A  
HETATM   12  N   UNL     1     -11.550  11.073  70.383  1.00  0.00    -0.312 NA 
HETATM   13  C   UNL     1      -8.638  10.137  68.436  1.00  0.00    -0.119 A  
BRANCH   8  14
HETATM   14  O   UNL     1      -9.356   6.799  69.678  1.00  0.00    -0.145 OA 
BRANCH  14  15
HETATM   15  C   UNL     1      -9.835   5.980  68.676  1.00  0.00    -0.138 A  
HETATM   16  C   UNL     1     -10.782   6.608  67.856  1.00  0.00    -0.341 A  
HETATM   17  C   UNL     1     -11.150   6.047  66.635  1.00  0.00    -0.118 A  
HETATM   18  F   UNL     1      -7.569   3.075  66.725  1.00  0.00    -0.071 F  
HETATM   19  F   UNL     1      -9.092   2.738  65.221  1.00  0.00    -0.130 F  
HETATM   20  C   UNL     1     -10.559   4.858  66.219  1.00  0.00    -0.307 A  
HETATM   21  C   UNL     1      -9.377   4.705  68.335  1.00  0.00    -0.186 A  
HETATM   22  C   UNL     1      -8.917   2.962  66.555  1.00  0.00    -0.152 C  
HETATM   23  F   UNL     1      -9.282   1.812  67.180  1.00  0.00    -0.140 F  
HETATM   24  C   UNL     1      -9.662   4.178  67.058  1.00  0.00    -0.230 A  
ENDBRANCH  14  15
ENDBRANCH   8  14
BRANCH   9  25
HETATM   25  O   UNL     1      -7.557   8.168  67.950  1.00  0.00    -0.098 OA 
HETATM   26  C   UNL     1      -6.733   8.994  67.138  1.00  0.00    -0.066 C  
ENDBRANCH   9  25
BRANCH  11  27
HETATM   27  N   UNL     1      -9.872  12.241  68.620  1.00  0.00    -0.381 NA 
HETATM   28  H   UNL     1      -9.553  12.994  69.230  1.00  0.00     0.000 HD 
BRANCH  27  29
HETATM   29  C   UNL     1     -10.546  12.577  67.365  1.00  0.00    -0.223 C  
HETATM   30  C   UNL     1     -10.993  11.267  66.713  1.00  0.00    -0.339 C  
BRANCH  29  31
HETATM   31  C   UNL     1     -11.776  13.468  67.625  1.00  0.00    -0.398 C  
BRANCH  31  32
HETATM   32  C   UNL     1     -11.473  14.962  67.789  1.00  0.00    -0.353 C  
BRANCH  32  33
HETATM   33  C   UNL     1     -11.543  15.498  69.222  1.00  0.00    -0.357 C  
HETATM   34  N   UNL     1     -10.563  14.857  70.101  1.00  0.00    -0.473 NA 
HETATM   35  H1  UNL     1     -10.609  15.215  71.056  1.00  0.00     0.000 HD 
HETATM   36  H2  UNL     1      -9.620  14.937  69.723  1.00  0.00     0.000 HD 
ENDBRANCH  32  33
ENDBRANCH  31  32
ENDBRANCH  29  31
ENDBRANCH  27  29
ENDBRANCH  11  27
ENDBRANCH   2   3
TORSDOF 9
ENDMDL
MODEL      144
REMARK 921   NORMALIZED FREE ENERGY PREDICTED BY IDOCK:   -5.38 KCAL/MOL
REMARK 922        TOTAL FREE ENERGY PREDICTED BY IDOCK:   -9.18 KCAL/MOL
REMARK 923 INTER-LIGAND FREE ENERGY PREDICTED BY IDOCK:   -8.21 KCAL/MOL
REMARK 924 INTRA-LIGAND FREE ENERGY PREDICTED BY IDOCK:   -0.97 KCAL/MOL
REMARK 927      BINDING AFFINITY PREDICTED BY RF-SCORE:    0.00 PKD
ROOT
HETATM    1  C   UNL     1      -9.531   4.153  63.776  1.00  0.00    -0.147 C  
HETATM    2  O   UNL     1      -8.390   4.940  64.106  1.00  0.00    -0.119 OA 
ENDROOT
BRANCH   2   3
HETATM    3  C   UNL     1      -8.647   5.867  65.094  1.00  0.00    -0.091 A  
HETATM    4  C   UNL     1      -9.347   5.427  66.190  1.00  0.00    -0.167 A  
HETATM    5  C   UNL     1      -9.555   6.319  67.248  1.00  0.00    -0.138 A  
HETATM    6  C   UNL     1      -8.905   7.595  67.233  1.00  0.00    -0.122 A  
HETATM    7  C   UNL     1     -10.576   5.925  68.283  1.00  0.00    -0.310 C  
HETATM    8  C   UNL     1      -8.695   8.501  68.330  1.00  0.00    -0.143 A  
HETATM    9  C   UNL     1      -8.373   9.848  68.082  1.00  0.00    -0.110 A  
HETATM   10  C   UNL     1      -8.413   7.998  65.967  1.00  0.00    -0.136 A  
HETATM   11  C   UNL     1      -8.075   9.345  65.728  1.00  0.00    -0.114 A  
HETATM   12  N   UNL     1      -8.268   7.143  64.934  1.00  0.00    -0.109 NA 
HETATM   13  C   UNL     1      -8.100  10.260  66.780  1.00  0.00    -0.121 A  
BRANCH   8  14
HETATM   14  O   UNL     1      -8.741   8.142  69.662  1.00  0.00    -0.139 OA 
BRANCH  14  15
HETATM   15  C   UNL     1      -9.882   8.208  70.436  1.00  0.00    -0.186 A  
HETATM   16  C   UNL     1      -9.772   7.505  71.642  1.00  0.00    -0.184 A  
HETATM   17  C   UNL     1     -10.696   7.700  72.667  1.00  0.00    -0.377 A  
HETATM   18  F   UNL     1     -12.406  11.521  70.630  1.00  0.00    -0.393 F  
HETATM   19  F   UNL     1     -13.522  10.712  72.302  1.00  0.00    -0.524 F  
HETATM   20  C   UNL     1     -11.732   8.614  72.493  1.00  0.00    -0.330 A  
HETATM   21  C   UNL     1     -11.017   8.990  70.203  1.00  0.00    -0.256 A  
HETATM   22  C   UNL     1     -12.936  10.365  71.120  1.00  0.00    -0.412 C  
HETATM   23  F   UNL     1     -13.953  10.030  70.281  1.00  0.00    -0.097 F  
HETATM   24  C   UNL     1     -11.900   9.274  71.265  1.00  0.00    -0.415 A  
ENDBRANCH  14  15
ENDBRANCH   8  14
BRANCH   9  25
HETATM   25  O   UNL     1      -8.216  10.858  68.996  1.00  0.00    -0.151 OA 
HETATM   26  C   UNL     1      -6.896  11.313  69.264  1.00  0.00    -0.116 C  
ENDBRANCH   9  25
BRANCH  11  27
HETATM   27  N   UNL     1      -7.648   9.724  64.436  1.00  0.00    -0.129 NA 
HETATM   28  H   UNL     1      -6.705   9.480  64.134  1.00  0.00     0.000 HD 
BRANCH  27  29
HETATM   29  C   UNL     1      -8.525  10.456  63.521  1.00  0.00    -0.171 C  
HETATM   30  C   UNL     1      -9.015   9.469  62.458  1.00  0.00    -0.268 C  
BRANCH  29  31
HETATM   31  C   UNL     1      -9.734  11.044  64.272  1.00  0.00    -0.333 C  
BRANCH  31  32
HETATM   32  C   UNL     1     -10.906  11.472  63.381  1.00  0.00    -0.423 C  
BRANCH  32  33
HETATM   33  C   UNL     1     -12.002  12.287  64.075  1.00  0.00    -0.462 C  
HETATM   34  N   UNL     1     -12.374  13.478  63.309  1.00  0.00    -1.017 NA 
HETATM   35  H1  UNL     1     -13.104  14.021  63.771  1.00  0.00     0.000 HD 
HETATM   36  H2  UNL     1     -12.643  13.235  62.356  1.00  0.00     0.000 HD 
ENDBRANCH  32  33
ENDBRANCH  31  32
ENDBRANCH  29  31
ENDBRANCH  27  29
ENDBRANCH  11  27
ENDBRANCH   2   3
TORSDOF 9
ENDMDL
MODEL      145
REMARK 921   NORMALIZED FREE ENERGY PREDICTED BY IDOCK:   -5.37 KCAL/MOL
REMARK 922        TOTAL FREE ENERGY PREDICTED BY IDOCK:   -9.16 KCAL/MOL
REMARK 923 INTER-LIGAND FREE ENERGY PREDICTED BY IDOCK:   -7.76 KCAL/MOL
REMARK 924 INTRA-LIGAND FREE ENERGY PREDICTED BY IDOCK:   -1.40 KCAL/MOL
REMARK 927      BINDING AFFINITY PREDICTED BY RF-SCORE:    0.00 PKD
ROOT
HETATM    1  C   UNL     1     -10.617  19.576  65.921  1.00  0.00    -0.476 C  
HETATM    2  O   UNL     1     -10.811  18.291  65.336  1.00  0.00    -0.569 OA 
ENDROOT
BRANCH   2   3
HETATM    3  C   UNL     1     -10.272  17.272  66.092  1.00  0.00    -0.331 A  
HETATM    4  C   UNL     1     -11.155  16.465  66.765  1.00  0.00     0.135 A  
HETATM    5  C   UNL     1     -10.648  15.372  67.476  1.00  0.00    -0.283 A  
HETATM    6  C   UNL     1      -9.262  15.032  67.354  1.00  0.00    -0.200 A  
HETATM    7  C   UNL     1     -11.580  14.695  68.447  1.00  0.00    -0.351 C  
HETATM    8  C   UNL     1      -8.613  13.796  67.697  1.00  0.00    -0.187 A  
HETATM    9  C   UNL     1      -7.217  13.751  67.857  1.00  0.00    -0.154 A  
HETATM   10  C   UNL     1      -8.441  16.060  66.826  1.00  0.00    -0.260 A  
HETATM   11  C   UNL     1      -7.041  16.003  66.975  1.00  0.00    -0.198 A  
HETATM   12  N   UNL     1      -8.941  17.139  66.191  1.00  0.00    -0.473 NA 
HETATM   13  C   UNL     1      -6.451  14.866  67.526  1.00  0.00    -0.105 A  
BRANCH   8  14
HETATM   14  O   UNL     1      -9.262  12.586  67.845  1.00  0.00    -0.185 OA 
BRANCH  14  15
HETATM   15  C   UNL     1      -9.566  11.744  66.794  1.00  0.00    -0.200 A  
HETATM   16  C   UNL     1     -10.294  12.374  65.776  1.00  0.00    -0.289 A  
HETATM   17  C   UNL     1     -10.431  11.776  64.525  1.00  0.00    -0.352 A  
HETATM   18  F   UNL     1      -7.094   8.666  65.453  1.00  0.00    -0.077 F  
HETATM   19  F   UNL     1      -8.292   8.327  63.680  1.00  0.00    -0.164 F  
HETATM   20  C   UNL     1      -9.826  10.546  64.280  1.00  0.00    -0.402 A  
HETATM   21  C   UNL     1      -9.111  10.437  66.599  1.00  0.00    -0.169 A  
HETATM   22  C   UNL     1      -8.382   8.602  65.013  1.00  0.00    -0.171 C  
HETATM   23  F   UNL     1      -8.924   7.496  65.589  1.00  0.00    -0.171 F  
HETATM   24  C   UNL     1      -9.154   9.867  65.310  1.00  0.00    -0.256 A  
ENDBRANCH  14  15
ENDBRANCH   8  14
BRANCH   9  25
HETATM   25  O   UNL     1      -6.448  12.686  68.254  1.00  0.00    -0.062 OA 
HETATM   26  C   UNL     1      -5.539  12.134  67.310  1.00  0.00    -0.135 C  
ENDBRANCH   9  25
BRANCH  11  27
HETATM   27  N   UNL     1      -6.259  17.075  66.493  1.00  0.00    -0.239 NA 
HETATM   28  H   UNL     1      -6.071  17.144  65.493  1.00  0.00     0.000 HD 
BRANCH  27  29
HETATM   29  C   UNL     1      -5.710  18.092  67.392  1.00  0.00    -0.141 C  
HETATM   30  C   UNL     1      -5.854  19.450  66.701  1.00  0.00    -0.168 C  
BRANCH  29  31
HETATM   31  C   UNL     1      -6.475  18.111  68.729  1.00  0.00    -0.221 C  
BRANCH  31  32
HETATM   32  C   UNL     1      -5.614  17.867  69.974  1.00  0.00    -0.241 C  
BRANCH  32  33
HETATM   33  C   UNL     1      -5.211  19.120  70.757  1.00  0.00    -0.231 C  
HETATM   34  N   UNL     1      -6.241  20.160  70.706  1.00  0.00    -0.435 NA 
HETATM   35  H1  UNL     1      -5.974  20.994  71.227  1.00  0.00     0.000 HD 
HETATM   36  H2  UNL     1      -7.143  19.802  71.020  1.00  0.00     0.000 HD 
ENDBRANCH  32  33
ENDBRANCH  31  32
ENDBRANCH  29  31
ENDBRANCH  27  29
ENDBRANCH  11  27
ENDBRANCH   2   3
TORSDOF 9
ENDMDL
MODEL      146
REMARK 921   NORMALIZED FREE ENERGY PREDICTED BY IDOCK:   -5.36 KCAL/MOL
REMARK 922        TOTAL FREE ENERGY PREDICTED BY IDOCK:   -9.15 KCAL/MOL
REMARK 923 INTER-LIGAND FREE ENERGY PREDICTED BY IDOCK:   -7.54 KCAL/MOL
REMARK 924 INTRA-LIGAND FREE ENERGY PREDICTED BY IDOCK:   -1.61 KCAL/MOL
REMARK 927      BINDING AFFINITY PREDICTED BY RF-SCORE:    0.00 PKD
ROOT
HETATM    1  C   UNL     1      -9.729  10.378  64.455  1.00  0.00    -0.333 C  
HETATM    2  O   UNL     1      -8.994  10.326  65.674  1.00  0.00    -0.158 OA 
ENDROOT
BRANCH   2   3
HETATM    3  C   UNL     1      -9.635   9.600  66.655  1.00  0.00    -0.187 A  
HETATM    4  C   UNL     1      -9.897   8.281  66.379  1.00  0.00    -0.283 A  
HETATM    5  C   UNL     1     -10.473   7.494  67.382  1.00  0.00    -0.367 A  
HETATM    6  C   UNL     1     -10.623   8.030  68.701  1.00  0.00    -0.143 A  
HETATM    7  C   UNL     1     -11.033   6.158  66.966  1.00  0.00    -0.414 C  
HETATM    8  C   UNL     1     -10.854   7.322  69.931  1.00  0.00    -0.247 A  
HETATM    9  C   UNL     1     -11.335   8.007  71.062  1.00  0.00    -0.273 A  
HETATM   10  C   UNL     1     -10.528   9.441  68.785  1.00  0.00    -0.212 A  
HETATM   11  C   UNL     1     -10.995  10.123  69.927  1.00  0.00    -0.293 A  
HETATM   12  N   UNL     1     -10.023  10.199  67.790  1.00  0.00    -0.162 NA 
HETATM   13  C   UNL     1     -11.431   9.396  71.034  1.00  0.00    -0.403 A  
BRANCH   8  14
HETATM   14  O   UNL     1     -10.594   5.979  70.122  1.00  0.00    -0.227 OA 
BRANCH  14  15
HETATM   15  C   UNL     1      -9.392   5.490  70.592  1.00  0.00    -0.158 A  
HETATM   16  C   UNL     1      -8.363   6.442  70.570  1.00  0.00    -0.129 A  
HETATM   17  C   UNL     1      -7.178   6.225  71.270  1.00  0.00    -0.079 A  
HETATM   18  F   UNL     1      -9.026   2.672  73.643  1.00  0.00    -0.075 F  
HETATM   19  F   UNL     1      -6.882   2.949  73.792  1.00  0.00    -0.029 F  
HETATM   20  C   UNL     1      -7.020   5.057  72.009  1.00  0.00    -0.066 A  
HETATM   21  C   UNL     1      -9.159   4.249  71.190  1.00  0.00    -0.183 A  
HETATM   22  C   UNL     1      -7.903   2.856  72.892  1.00  0.00    -0.055 C  
HETATM   23  F   UNL     1      -7.705   1.693  72.218  1.00  0.00    -0.039 F  
HETATM   24  C   UNL     1      -8.009   4.060  71.985  1.00  0.00    -0.084 A  
ENDBRANCH  14  15
ENDBRANCH   8  14
BRANCH   9  25
HETATM   25  O   UNL     1     -11.681   7.482  72.281  1.00  0.00    -0.292 OA 
HETATM   26  C   UNL     1     -10.715   7.525  73.322  1.00  0.00    -0.382 C  
ENDBRANCH   9  25
BRANCH  11  27
HETATM   27  N   UNL     1     -10.944  11.534  69.949  1.00  0.00    -0.458 NA 
HETATM   28  H   UNL     1     -10.066  11.995  70.188  1.00  0.00     0.000 HD 
BRANCH  27  29
HETATM   29  C   UNL     1     -12.117  12.351  69.638  1.00  0.00    -0.206 C  
HETATM   30  C   UNL     1     -12.417  13.219  70.863  1.00  0.00    -0.424 C  
BRANCH  29  31
HETATM   31  C   UNL     1     -11.847  13.257  68.422  1.00  0.00    -0.395 C  
BRANCH  31  32
HETATM   32  C   UNL     1     -10.410  13.779  68.307  1.00  0.00    -0.247 C  
BRANCH  32  33
HETATM   33  C   UNL     1      -9.809  13.760  66.898  1.00  0.00    -0.264 C  
HETATM   34  N   UNL     1     -10.609  12.962  65.966  1.00  0.00    -0.267 NA 
HETATM   35  H1  UNL     1     -10.209  12.949  65.028  1.00  0.00     0.000 HD 
HETATM   36  H2  UNL     1     -11.579  13.278  65.949  1.00  0.00     0.000 HD 
ENDBRANCH  32  33
ENDBRANCH  31  32
ENDBRANCH  29  31
ENDBRANCH  27  29
ENDBRANCH  11  27
ENDBRANCH   2   3
TORSDOF 9
ENDMDL
MODEL      147
REMARK 921   NORMALIZED FREE ENERGY PREDICTED BY IDOCK:   -5.36 KCAL/MOL
REMARK 922        TOTAL FREE ENERGY PREDICTED BY IDOCK:   -9.15 KCAL/MOL
REMARK 923 INTER-LIGAND FREE ENERGY PREDICTED BY IDOCK:   -7.79 KCAL/MOL
REMARK 924 INTRA-LIGAND FREE ENERGY PREDICTED BY IDOCK:   -1.36 KCAL/MOL
REMARK 927      BINDING AFFINITY PREDICTED BY RF-SCORE:    0.00 PKD
ROOT
HETATM    1  C   UNL     1      -5.403   5.633  70.384  1.00  0.00    -0.009 C  
HETATM    2  O   UNL     1      -5.591   6.309  69.145  1.00  0.00    -0.014 OA 
ENDROOT
BRANCH   2   3
HETATM    3  C   UNL     1      -6.771   7.020  69.096  1.00  0.00    -0.049 A  
HETATM    4  C   UNL     1      -7.206   7.580  70.271  1.00  0.00    -0.064 A  
HETATM    5  C   UNL     1      -8.357   8.376  70.242  1.00  0.00    -0.124 A  
HETATM    6  C   UNL     1      -8.949   8.714  68.983  1.00  0.00    -0.142 A  
HETATM    7  C   UNL     1      -8.986   8.717  71.568  1.00  0.00    -0.306 C  
HETATM    8  C   UNL     1      -9.889   9.763  68.693  1.00  0.00    -0.157 A  
HETATM    9  C   UNL     1     -10.640   9.730  67.504  1.00  0.00    -0.275 A  
HETATM   10  C   UNL     1      -8.545   7.899  67.897  1.00  0.00    -0.125 A  
HETATM   11  C   UNL     1      -9.290   7.882  66.701  1.00  0.00    -0.193 A  
HETATM   12  N   UNL     1      -7.467   7.092  67.952  1.00  0.00    -0.097 NA 
HETATM   13  C   UNL     1     -10.353   8.769  66.537  1.00  0.00    -0.254 A  
BRANCH   8  14
HETATM   14  O   UNL     1     -10.099  10.870  69.492  1.00  0.00    -0.155 OA 
BRANCH  14  15
HETATM   15  C   UNL     1     -11.303  11.158  70.102  1.00  0.00    -0.209 A  
HETATM   16  C   UNL     1     -11.891  10.043  70.714  1.00  0.00    -0.435 A  
HETATM   17  C   UNL     1     -12.940  10.198  71.617  1.00  0.00    -0.561 A  
HETATM   18  F   UNL     1     -12.191  14.779  71.967  1.00  0.00    -0.349 F  
HETATM   19  F   UNL     1     -14.022  14.011  72.834  1.00  0.00    -0.506 F  
HETATM   20  C   UNL     1     -13.400  11.476  71.925  1.00  0.00    -0.408 A  
HETATM   21  C   UNL     1     -11.880  12.417  70.281  1.00  0.00    -0.315 A  
HETATM   22  C   UNL     1     -13.270  13.992  71.697  1.00  0.00    -0.368 C  
HETATM   23  F   UNL     1     -13.995  14.656  70.757  1.00  0.00    -0.334 F  
HETATM   24  C   UNL     1     -12.872  12.599  71.268  1.00  0.00    -0.344 A  
ENDBRANCH  14  15
ENDBRANCH   8  14
BRANCH   9  25
HETATM   25  O   UNL     1     -11.626  10.596  67.106  1.00  0.00    -0.321 OA 
HETATM   26  C   UNL     1     -11.245  11.731  66.339  1.00  0.00    -0.323 C  
ENDBRANCH   9  25
BRANCH  11  27
HETATM   27  N   UNL     1      -8.895   7.010  65.662  1.00  0.00    -0.342 NA 
HETATM   28  H   UNL     1      -8.210   7.331  64.979  1.00  0.00     0.000 HD 
BRANCH  27  29
HETATM   29  C   UNL     1      -9.444   5.659  65.542  1.00  0.00     0.117 C  
HETATM   30  C   UNL     1      -8.270   4.677  65.566  1.00  0.00    -0.115 C  
BRANCH  29  31
HETATM   31  C   UNL     1     -10.398   5.349  66.711  1.00  0.00    -0.321 C  
BRANCH  31  32
HETATM   32  C   UNL     1      -9.841   4.384  67.764  1.00  0.00    -0.152 C  
BRANCH  32  33
HETATM   33  C   UNL     1      -9.954   4.853  69.218  1.00  0.00    -0.199 C  
HETATM   34  N   UNL     1     -11.035   5.824  69.404  1.00  0.00    -0.337 NA 
HETATM   35  H1  UNL     1     -11.111   6.136  70.372  1.00  0.00     0.000 HD 
HETATM   36  H2  UNL     1     -11.924   5.455  69.065  1.00  0.00     0.000 HD 
ENDBRANCH  32  33
ENDBRANCH  31  32
ENDBRANCH  29  31
ENDBRANCH  27  29
ENDBRANCH  11  27
ENDBRANCH   2   3
TORSDOF 9
ENDMDL
MODEL      148
REMARK 921   NORMALIZED FREE ENERGY PREDICTED BY IDOCK:   -5.34 KCAL/MOL
REMARK 922        TOTAL FREE ENERGY PREDICTED BY IDOCK:   -9.11 KCAL/MOL
REMARK 923 INTER-LIGAND FREE ENERGY PREDICTED BY IDOCK:   -8.35 KCAL/MOL
REMARK 924 INTRA-LIGAND FREE ENERGY PREDICTED BY IDOCK:   -0.76 KCAL/MOL
REMARK 927      BINDING AFFINITY PREDICTED BY RF-SCORE:    0.00 PKD
ROOT
HETATM    1  C   UNL     1      -5.857   9.607  69.314  1.00  0.00    -0.034 C  
HETATM    2  O   UNL     1      -7.221   9.787  69.686  1.00  0.00    -0.073 OA 
ENDROOT
BRANCH   2   3
HETATM    3  C   UNL     1      -7.749  10.974  69.229  1.00  0.00    -0.068 A  
HETATM    4  C   UNL     1      -6.904  12.056  69.194  1.00  0.00    -0.090 A  
HETATM    5  C   UNL     1      -7.383  13.257  68.659  1.00  0.00    -0.101 A  
HETATM    6  C   UNL     1      -8.666  13.284  68.023  1.00  0.00    -0.186 A  
HETATM    7  C   UNL     1      -6.563  14.495  68.913  1.00  0.00    -0.095 C  
HETATM    8  C   UNL     1      -9.197  14.276  67.128  1.00  0.00    -0.223 A  
HETATM    9  C   UNL     1     -10.581  14.342  66.885  1.00  0.00    -0.273 A  
HETATM   10  C   UNL     1      -9.506  12.184  68.328  1.00  0.00    -0.204 A  
HETATM   11  C   UNL     1     -10.889  12.248  68.069  1.00  0.00    -0.220 A  
HETATM   12  N   UNL     1      -9.046  11.051  68.896  1.00  0.00    -0.158 NA 
HETATM   13  C   UNL     1     -11.414  13.345  67.387  1.00  0.00    -0.368 A  
BRANCH   8  14
HETATM   14  O   UNL     1      -8.431  15.181  66.419  1.00  0.00    -0.198 OA 
BRANCH  14  15
HETATM   15  C   UNL     1      -8.237  16.491  66.808  1.00  0.00    -0.243 A  
HETATM   16  C   UNL     1      -7.174  17.113  66.140  1.00  0.00    -0.253 A  
HETATM   17  C   UNL     1      -7.019  18.497  66.183  1.00  0.00    -0.295 A  
HETATM   18  F   UNL     1     -11.299  19.097  67.912  1.00  0.00    -0.284 F  
HETATM   19  F   UNL     1      -9.981  20.817  67.922  1.00  0.00    -0.523 F  
HETATM   20  C   UNL     1      -7.938  19.271  66.885  1.00  0.00    -0.278 A  
HETATM   21  C   UNL     1      -9.052  17.252  67.650  1.00  0.00    -0.228 A  
HETATM   22  C   UNL     1     -10.046  19.499  68.267  1.00  0.00    -0.437 C  
HETATM   23  F   UNL     1     -10.008  19.464  69.625  1.00  0.00    -0.394 F  
HETATM   24  C   UNL     1      -8.968  18.660  67.619  1.00  0.00    -0.291 A  
ENDBRANCH  14  15
ENDBRANCH   8  14
BRANCH   9  25
HETATM   25  O   UNL     1     -11.261  15.262  66.130  1.00  0.00    -0.318 OA 
HETATM   26  C   UNL     1     -12.191  14.777  65.170  1.00  0.00    -0.202 C  
ENDBRANCH   9  25
BRANCH  11  27
HETATM   27  N   UNL     1     -11.705  11.158  68.444  1.00  0.00    -0.485 NA 
HETATM   28  H   UNL     1     -12.015  10.500  67.730  1.00  0.00     0.000 HD 
BRANCH  27  29
HETATM   29  C   UNL     1     -12.119  10.950  69.833  1.00  0.00    -0.354 C  
HETATM   30  C   UNL     1     -11.356   9.735  70.367  1.00  0.00    -0.362 C  
BRANCH  29  31
HETATM   31  C   UNL     1     -11.788  12.183  70.694  1.00  0.00    -0.065 C  
BRANCH  31  32
HETATM   32  C   UNL     1     -12.878  13.261  70.731  1.00  0.00    -0.194 C  
BRANCH  32  33
HETATM   33  C   UNL     1     -12.382  14.699  70.910  1.00  0.00    -0.336 C  
HETATM   34  N   UNL     1     -10.937  14.815  70.706  1.00  0.00    -0.516 NA 
HETATM   35  H1  UNL     1     -10.606  15.773  70.825  1.00  0.00     0.000 HD 
HETATM   36  H2  UNL     1     -10.661  14.440  69.799  1.00  0.00     0.000 HD 
ENDBRANCH  32  33
ENDBRANCH  31  32
ENDBRANCH  29  31
ENDBRANCH  27  29
ENDBRANCH  11  27
ENDBRANCH   2   3
TORSDOF 9
ENDMDL
MODEL      149
REMARK 921   NORMALIZED FREE ENERGY PREDICTED BY IDOCK:   -5.31 KCAL/MOL
REMARK 922        TOTAL FREE ENERGY PREDICTED BY IDOCK:   -9.07 KCAL/MOL
REMARK 923 INTER-LIGAND FREE ENERGY PREDICTED BY IDOCK:   -8.43 KCAL/MOL
REMARK 924 INTRA-LIGAND FREE ENERGY PREDICTED BY IDOCK:   -0.64 KCAL/MOL
REMARK 927      BINDING AFFINITY PREDICTED BY RF-SCORE:    0.00 PKD
ROOT
HETATM    1  C   UNL     1     -12.449  15.342  64.099  1.00  0.00     0.085 C  
HETATM    2  O   UNL     1     -12.908  14.244  64.882  1.00  0.00    -0.680 OA 
ENDROOT
BRANCH   2   3
HETATM    3  C   UNL     1     -11.972  13.809  65.795  1.00  0.00    -0.399 A  
HETATM    4  C   UNL     1     -11.954  12.464  66.072  1.00  0.00    -0.419 A  
HETATM    5  C   UNL     1     -10.964  11.976  66.933  1.00  0.00    -0.328 A  
HETATM    6  C   UNL     1      -9.914  12.847  67.366  1.00  0.00    -0.217 A  
HETATM    7  C   UNL     1     -11.149  10.578  67.464  1.00  0.00    -0.358 C  
HETATM    8  C   UNL     1      -8.645  12.496  67.944  1.00  0.00    -0.179 A  
HETATM    9  C   UNL     1      -7.893  13.460  68.640  1.00  0.00    -0.073 A  
HETATM   10  C   UNL     1     -10.178  14.229  67.197  1.00  0.00    -0.254 A  
HETATM   11  C   UNL     1      -9.412  15.193  67.883  1.00  0.00    -0.194 A  
HETATM   12  N   UNL     1     -11.170  14.691  66.409  1.00  0.00    -0.332 NA 
HETATM   13  C   UNL     1      -8.305  14.790  68.629  1.00  0.00    -0.165 A  
BRANCH   8  14
HETATM   14  O   UNL     1      -8.051  11.253  67.833  1.00  0.00    -0.113 OA 
BRANCH  14  15
HETATM   15  C   UNL     1      -8.085  10.297  68.828  1.00  0.00    -0.120 A  
HETATM   16  C   UNL     1      -6.815   9.959  69.312  1.00  0.00    -0.057 A  
HETATM   17  C   UNL     1      -6.672   9.245  70.499  1.00  0.00    -0.078 A  
HETATM   18  F   UNL     1     -11.124   9.952  71.661  1.00  0.00    -0.409 F  
HETATM   19  F   UNL     1     -10.017   8.507  72.836  1.00  0.00    -0.336 F  
HETATM   20  C   UNL     1      -7.805   8.874  71.219  1.00  0.00    -0.163 A  
HETATM   21  C   UNL     1      -9.217   9.774  69.459  1.00  0.00    -0.226 A  
HETATM   22  C   UNL     1     -10.313   8.862  71.553  1.00  0.00    -0.324 C  
HETATM   23  F   UNL     1     -11.088   7.862  71.056  1.00  0.00    -0.235 F  
HETATM   24  C   UNL     1      -9.088   9.140  70.712  1.00  0.00    -0.313 A  
ENDBRANCH  14  15
ENDBRANCH   8  14
BRANCH   9  25
HETATM   25  O   UNL     1      -6.712  13.282  69.313  1.00  0.00    -0.107 OA 
HETATM   26  C   UNL     1      -6.140  14.410  69.962  1.00  0.00    -0.151 C  
ENDBRANCH   9  25
BRANCH  11  27
HETATM   27  N   UNL     1      -9.744  16.558  67.741  1.00  0.00    -0.233 NA 
HETATM   28  H   UNL     1     -10.340  17.000  68.440  1.00  0.00     0.000 HD 
BRANCH  27  29
HETATM   29  C   UNL     1      -9.256  17.354  66.614  1.00  0.00    -0.261 C  
HETATM   30  C   UNL     1     -10.374  18.318  66.207  1.00  0.00    -0.422 C  
BRANCH  29  31
HETATM   31  C   UNL     1      -8.005  18.159  67.013  1.00  0.00    -0.239 C  
BRANCH  31  32
HETATM   32  C   UNL     1      -6.806  18.007  66.070  1.00  0.00    -0.332 C  
BRANCH  32  33
HETATM   33  C   UNL     1      -6.451  19.248  65.245  1.00  0.00    -0.272 C  
HETATM   34  N   UNL     1      -7.394  20.346  65.463  1.00  0.00    -0.526 NA 
HETATM   35  H1  UNL     1      -7.158  21.173  64.914  1.00  0.00     0.000 HD 
HETATM   36  H2  UNL     1      -7.474  20.573  66.454  1.00  0.00     0.000 HD 
ENDBRANCH  32  33
ENDBRANCH  31  32
ENDBRANCH  29  31
ENDBRANCH  27  29
ENDBRANCH  11  27
ENDBRANCH   2   3
TORSDOF 9
ENDMDL
MODEL      150
REMARK 921   NORMALIZED FREE ENERGY PREDICTED BY IDOCK:   -5.30 KCAL/MOL
REMARK 922        TOTAL FREE ENERGY PREDICTED BY IDOCK:   -9.06 KCAL/MOL
REMARK 923 INTER-LIGAND FREE ENERGY PREDICTED BY IDOCK:   -7.55 KCAL/MOL
REMARK 924 INTRA-LIGAND FREE ENERGY PREDICTED BY IDOCK:   -1.51 KCAL/MOL
REMARK 927      BINDING AFFINITY PREDICTED BY RF-SCORE:    0.00 PKD
ROOT
HETATM    1  C   UNL     1     -11.378   7.774  72.733  1.00  0.00    -0.389 C  
HETATM    2  O   UNL     1     -11.619   9.069  72.190  1.00  0.00    -0.355 OA 
ENDROOT
BRANCH   2   3
HETATM    3  C   UNL     1     -10.772   9.378  71.147  1.00  0.00    -0.347 A  
HETATM    4  C   UNL     1      -9.541   8.769  71.147  1.00  0.00    -0.309 A  
HETATM    5  C   UNL     1      -8.687   8.997  70.062  1.00  0.00    -0.164 A  
HETATM    6  C   UNL     1      -9.171   9.715  68.921  1.00  0.00    -0.147 A  
HETATM    7  C   UNL     1      -7.248   8.583  70.225  1.00  0.00    -0.048 C  
HETATM    8  C   UNL     1      -8.614   9.766  67.597  1.00  0.00    -0.125 A  
HETATM    9  C   UNL     1      -8.994  10.788  66.708  1.00  0.00    -0.147 A  
HETATM   10  C   UNL     1     -10.352  10.466  69.147  1.00  0.00    -0.222 A  
HETATM   11  C   UNL     1     -10.738  11.478  68.246  1.00  0.00    -0.211 A  
HETATM   12  N   UNL     1     -11.140  10.280  70.225  1.00  0.00    -0.302 NA 
HETATM   13  C   UNL     1     -10.029  11.652  67.058  1.00  0.00    -0.226 A  
BRANCH   8  14
HETATM   14  O   UNL     1      -7.734   8.835  67.081  1.00  0.00    -0.094 OA 
BRANCH  14  15
HETATM   15  C   UNL     1      -8.107   7.820  66.224  1.00  0.00    -0.114 A  
HETATM   16  C   UNL     1      -7.272   7.709  65.104  1.00  0.00    -0.069 A  
HETATM   17  C   UNL     1      -7.313   6.575  64.295  1.00  0.00    -0.073 A  
HETATM   18  F   UNL     1      -9.792   4.207  67.444  1.00  0.00    -0.211 F  
HETATM   19  F   UNL     1      -9.599   3.324  65.475  1.00  0.00    -0.160 F  
HETATM   20  C   UNL     1      -8.183   5.536  64.611  1.00  0.00    -0.130 A  
HETATM   21  C   UNL     1      -9.096   6.856  66.435  1.00  0.00    -0.185 A  
HETATM   22  C   UNL     1      -9.924   4.483  66.116  1.00  0.00    -0.248 C  
HETATM   23  F   UNL     1     -11.253   4.672  65.900  1.00  0.00    -0.262 F  
HETATM   24  C   UNL     1      -9.078   5.660  65.687  1.00  0.00    -0.110 A  
ENDBRANCH  14  15
ENDBRANCH   8  14
BRANCH   9  25
HETATM   25  O   UNL     1      -8.510  11.032  65.448  1.00  0.00    -0.138 OA 
HETATM   26  C   UNL     1      -9.381  10.807  64.347  1.00  0.00    -0.242 C  
ENDBRANCH   9  25
BRANCH  11  27
HETATM   27  N   UNL     1     -11.885  12.249  68.536  1.00  0.00    -0.325 NA 
HETATM   28  H   UNL     1     -12.799  11.914  68.232  1.00  0.00     0.000 HD 
BRANCH  27  29
HETATM   29  C   UNL     1     -11.796  13.518  69.261  1.00  0.00    -0.341 C  
HETATM   30  C   UNL     1     -12.187  14.636  68.291  1.00  0.00    -0.112 C  
BRANCH  29  31
HETATM   31  C   UNL     1     -12.752  13.527  70.468  1.00  0.00    -0.227 C  
BRANCH  31  32
HETATM   32  C   UNL     1     -12.526  14.667  71.467  1.00  0.00    -0.411 C  
BRANCH  32  33
HETATM   33  C   UNL     1     -13.041  14.415  72.888  1.00  0.00    -0.517 C  
HETATM   34  N   UNL     1     -12.332  15.221  73.884  1.00  0.00    -0.591 NA 
HETATM   35  H1  UNL     1     -12.674  15.054  74.830  1.00  0.00     0.000 HD 
HETATM   36  H2  UNL     1     -12.367  16.213  73.649  1.00  0.00     0.000 HD 
ENDBRANCH  32  33
ENDBRANCH  31  32
ENDBRANCH  29  31
ENDBRANCH  27  29
ENDBRANCH  11  27
ENDBRANCH   2   3
TORSDOF 9
ENDMDL
MODEL      151
REMARK 921   NORMALIZED FREE ENERGY PREDICTED BY IDOCK:   -5.29 KCAL/MOL
REMARK 922        TOTAL FREE ENERGY PREDICTED BY IDOCK:   -9.05 KCAL/MOL
REMARK 923 INTER-LIGAND FREE ENERGY PREDICTED BY IDOCK:   -7.61 KCAL/MOL
REMARK 924 INTRA-LIGAND FREE ENERGY PREDICTED BY IDOCK:   -1.44 KCAL/MOL
REMARK 927      BINDING AFFINITY PREDICTED BY RF-SCORE:    0.00 PKD
ROOT
HETATM    1  C   UNL     1     -12.312  13.669  65.810  1.00  0.00    -0.482 C  
HETATM    2  O   UNL     1     -12.332  12.273  66.097  1.00  0.00    -0.588 OA 
ENDROOT
BRANCH   2   3
HETATM    3  C   UNL     1     -11.479  11.926  67.122  1.00  0.00    -0.319 A  
HETATM    4  C   UNL     1     -12.013  11.187  68.150  1.00  0.00    -0.131 A  
HETATM    5  C   UNL     1     -11.157  10.748  69.167  1.00  0.00    -0.304 A  
HETATM    6  C   UNL     1      -9.744  10.936  69.031  1.00  0.00    -0.181 A  
HETATM    7  C   UNL     1     -11.802  10.219  70.422  1.00  0.00    -0.396 C  
HETATM    8  C   UNL     1      -8.684  10.283  69.750  1.00  0.00    -0.044 A  
HETATM    9  C   UNL     1      -7.391  10.835  69.758  1.00  0.00    -0.064 A  
HETATM   10  C   UNL     1      -9.362  11.893  68.059  1.00  0.00    -0.193 A  
HETATM   11  C   UNL     1      -8.059  12.432  68.060  1.00  0.00    -0.162 A  
HETATM   12  N   UNL     1     -10.208  12.354  67.116  1.00  0.00    -0.215 NA 
HETATM   13  C   UNL     1      -7.103  11.923  68.938  1.00  0.00    -0.110 A  
BRANCH   8  14
HETATM   14  O   UNL     1      -8.819   9.087  70.427  1.00  0.00    -0.162 OA 
BRANCH  14  15
HETATM   15  C   UNL     1      -9.291   7.926  69.847  1.00  0.00    -0.156 A  
HETATM   16  C   UNL     1     -10.323   7.325  70.579  1.00  0.00    -0.215 A  
HETATM   17  C   UNL     1     -11.112   6.328  70.009  1.00  0.00    -0.455 A  
HETATM   18  F   UNL     1      -9.527   7.277  65.736  1.00  0.00    -0.101 F  
HETATM   19  F   UNL     1     -10.684   5.461  65.977  1.00  0.00    -0.260 F  
HETATM   20  C   UNL     1     -10.880   5.935  68.693  1.00  0.00    -0.333 A  
HETATM   21  C   UNL     1      -8.952   7.409  68.594  1.00  0.00    -0.131 A  
HETATM   22  C   UNL     1      -9.634   6.155  66.502  1.00  0.00    -0.151 C  
HETATM   23  F   UNL     1      -8.525   5.412  66.241  1.00  0.00    -0.111 F  
HETATM   24  C   UNL     1      -9.804   6.475  67.969  1.00  0.00    -0.129 A  
ENDBRANCH  14  15
ENDBRANCH   8  14
BRANCH   9  25
HETATM   25  O   UNL     1      -6.290  10.392  70.447  1.00  0.00    -0.113 OA 
HETATM   26  C   UNL     1      -5.240  11.319  70.687  1.00  0.00    -0.113 C  
ENDBRANCH   9  25
BRANCH  11  27
HETATM   27  N   UNL     1      -7.732  13.430  67.116  1.00  0.00    -0.366 NA 
HETATM   28  H   UNL     1      -7.320  13.155  66.225  1.00  0.00     0.000 HD 
BRANCH  27  29
HETATM   29  C   UNL     1      -7.968  14.849  67.385  1.00  0.00    -0.199 C  
HETATM   30  C   UNL     1      -6.604  15.536  67.490  1.00  0.00    -0.206 C  
BRANCH  29  31
HETATM   31  C   UNL     1      -8.782  15.495  66.247  1.00  0.00    -0.283 C  
BRANCH  31  32
HETATM   32  C   UNL     1     -10.001  16.306  66.700  1.00  0.00    -0.274 C  
BRANCH  32  33
HETATM   33  C   UNL     1      -9.708  17.728  67.186  1.00  0.00    -0.288 C  
HETATM   34  N   UNL     1     -10.337  18.012  68.478  1.00  0.00    -0.372 NA 
HETATM   35  H1  UNL     1     -10.142  18.959  68.803  1.00  0.00     0.000 HD 
HETATM   36  H2  UNL     1     -10.070  17.320  69.178  1.00  0.00     0.000 HD 
ENDBRANCH  32  33
ENDBRANCH  31  32
ENDBRANCH  29  31
ENDBRANCH  27  29
ENDBRANCH  11  27
ENDBRANCH   2   3
TORSDOF 9
ENDMDL
MODEL      152
REMARK 921   NORMALIZED FREE ENERGY PREDICTED BY IDOCK:   -5.27 KCAL/MOL
REMARK 922        TOTAL FREE ENERGY PREDICTED BY IDOCK:   -9.02 KCAL/MOL
REMARK 923 INTER-LIGAND FREE ENERGY PREDICTED BY IDOCK:   -7.52 KCAL/MOL
REMARK 924 INTRA-LIGAND FREE ENERGY PREDICTED BY IDOCK:   -1.50 KCAL/MOL
REMARK 927      BINDING AFFINITY PREDICTED BY RF-SCORE:    0.00 PKD
ROOT
HETATM    1  C   UNL     1      -7.645   6.852  66.490  1.00  0.00    -0.089 C  
HETATM    2  O   UNL     1      -8.496   7.987  66.355  1.00  0.00    -0.123 OA 
ENDROOT
BRANCH   2   3
HETATM    3  C   UNL     1      -9.401   8.103  67.388  1.00  0.00    -0.141 A  
HETATM    4  C   UNL     1      -9.585   6.995  68.179  1.00  0.00    -0.131 A  
HETATM    5  C   UNL     1     -10.435   7.102  69.285  1.00  0.00    -0.220 A  
HETATM    6  C   UNL     1     -10.955   8.384  69.655  1.00  0.00    -0.094 A  
HETATM    7  C   UNL     1     -10.864   5.817  69.945  1.00  0.00    -0.417 C  
HETATM    8  C   UNL     1     -11.539   8.782  70.907  1.00  0.00    -0.277 A  
HETATM    9  C   UNL     1     -12.319   9.950  70.983  1.00  0.00    -0.357 A  
HETATM   10  C   UNL     1     -10.874   9.374  68.644  1.00  0.00    -0.109 A  
HETATM   11  C   UNL     1     -11.645  10.550  68.732  1.00  0.00    -0.182 A  
HETATM   12  N   UNL     1     -10.095   9.239  67.551  1.00  0.00    -0.203 NA 
HETATM   13  C   UNL     1     -12.389  10.802  69.884  1.00  0.00    -0.340 A  
BRANCH   8  14
HETATM   14  O   UNL     1     -11.359   8.115  72.103  1.00  0.00    -0.287 OA 
BRANCH  14  15
HETATM   15  C   UNL     1     -10.124   7.743  72.595  1.00  0.00    -0.260 A  
HETATM   16  C   UNL     1     -10.157   6.543  73.317  1.00  0.00    -0.221 A  
HETATM   17  C   UNL     1      -8.979   5.869  73.630  1.00  0.00    -0.127 A  
HETATM   18  F   UNL     1      -6.505   8.452  70.651  1.00  0.00    -0.035 F  
HETATM   19  F   UNL     1      -5.395   7.194  72.022  1.00  0.00    -0.034 F  
HETATM   20  C   UNL     1      -7.757   6.386  73.208  1.00  0.00    -0.097 A  
HETATM   21  C   UNL     1      -8.892   8.345  72.327  1.00  0.00    -0.289 A  
HETATM   22  C   UNL     1      -6.394   8.121  71.968  1.00  0.00    -0.055 C  
HETATM   23  F   UNL     1      -5.915   9.227  72.597  1.00  0.00    -0.082 F  
HETATM   24  C   UNL     1      -7.700   7.624  72.547  1.00  0.00    -0.112 A  
ENDBRANCH  14  15
ENDBRANCH   8  14
BRANCH   9  25
HETATM   25  O   UNL     1     -13.009  10.433  72.066  1.00  0.00    -0.445 OA 
HETATM   26  C   UNL     1     -13.490  11.769  72.004  1.00  0.00    -0.214 C  
ENDBRANCH   9  25
BRANCH  11  27
HETATM   27  N   UNL     1     -11.588  11.485  67.675  1.00  0.00    -0.515 NA 
HETATM   28  H   UNL     1     -12.096  11.291  66.813  1.00  0.00     0.000 HD 
BRANCH  27  29
HETATM   29  C   UNL     1     -10.817  12.724  67.786  1.00  0.00    -0.225 C  
HETATM   30  C   UNL     1     -10.439  13.164  66.369  1.00  0.00    -0.287 C  
BRANCH  29  31
HETATM   31  C   UNL     1     -11.651  13.829  68.461  1.00  0.00    -0.373 C  
BRANCH  31  32
HETATM   32  C   UNL     1     -11.164  14.252  69.852  1.00  0.00    -0.194 C  
BRANCH  32  33
HETATM   33  C   UNL     1     -12.226  14.873  70.765  1.00  0.00    -0.325 C  
HETATM   34  N   UNL     1     -12.961  15.953  70.104  1.00  0.00    -0.660 NA 
HETATM   35  H1  UNL     1     -13.668  16.367  70.711  1.00  0.00     0.000 HD 
HETATM   36  H2  UNL     1     -13.370  15.637  69.225  1.00  0.00     0.000 HD 
ENDBRANCH  32  33
ENDBRANCH  31  32
ENDBRANCH  29  31
ENDBRANCH  27  29
ENDBRANCH  11  27
ENDBRANCH   2   3
TORSDOF 9
ENDMDL
MODEL      153
REMARK 921   NORMALIZED FREE ENERGY PREDICTED BY IDOCK:   -5.25 KCAL/MOL
REMARK 922        TOTAL FREE ENERGY PREDICTED BY IDOCK:   -8.99 KCAL/MOL
REMARK 923 INTER-LIGAND FREE ENERGY PREDICTED BY IDOCK:   -7.98 KCAL/MOL
REMARK 924 INTRA-LIGAND FREE ENERGY PREDICTED BY IDOCK:   -1.00 KCAL/MOL
REMARK 927      BINDING AFFINITY PREDICTED BY RF-SCORE:    0.00 PKD
ROOT
HETATM    1  C   UNL     1      -6.138   7.930  64.287  1.00  0.00    -0.053 C  
HETATM    2  O   UNL     1      -5.788   9.241  64.722  1.00  0.00    -0.062 OA 
ENDROOT
BRANCH   2   3
HETATM    3  C   UNL     1      -6.702   9.774  65.604  1.00  0.00    -0.092 A  
HETATM    4  C   UNL     1      -6.320  10.903  66.287  1.00  0.00    -0.132 A  
HETATM    5  C   UNL     1      -7.253  11.518  67.130  1.00  0.00    -0.140 A  
HETATM    6  C   UNL     1      -8.609  11.058  67.136  1.00  0.00    -0.136 A  
HETATM    7  C   UNL     1      -6.728  12.550  68.093  1.00  0.00    -0.078 C  
HETATM    8  C   UNL     1      -9.777  11.732  67.636  1.00  0.00    -0.182 A  
HETATM    9  C   UNL     1     -10.954  11.008  67.896  1.00  0.00    -0.264 A  
HETATM   10  C   UNL     1      -8.805   9.772  66.573  1.00  0.00    -0.138 A  
HETATM   11  C   UNL     1      -9.993   9.057  66.823  1.00  0.00    -0.263 A  
HETATM   12  N   UNL     1      -7.878   9.162  65.807  1.00  0.00    -0.097 NA 
HETATM   13  C   UNL     1     -11.035   9.670  67.517  1.00  0.00    -0.166 A  
BRANCH   8  14
HETATM   14  O   UNL     1      -9.863  13.093  67.852  1.00  0.00    -0.217 OA 
BRANCH  14  15
HETATM   15  C   UNL     1     -10.014  14.021  66.841  1.00  0.00    -0.263 A  
HETATM   16  C   UNL     1     -10.726  13.527  65.740  1.00  0.00    -0.278 A  
HETATM   17  C   UNL     1     -11.225  14.392  64.769  1.00  0.00    -0.391 A  
HETATM   18  F   UNL     1     -10.478  18.119  67.456  1.00  0.00    -0.343 F  
HETATM   19  F   UNL     1     -10.986  18.485  65.382  1.00  0.00    -0.454 F  
HETATM   20  C   UNL     1     -11.026  15.763  64.901  1.00  0.00    -0.443 A  
HETATM   21  C   UNL     1      -9.669  15.375  66.878  1.00  0.00    -0.241 A  
HETATM   22  C   UNL     1     -10.151  17.762  66.182  1.00  0.00    -0.304 C  
HETATM   23  F   UNL     1      -8.903  18.253  65.962  1.00  0.00    -0.261 F  
HETATM   24  C   UNL     1     -10.254  16.271  65.959  1.00  0.00    -0.376 A  
ENDBRANCH  14  15
ENDBRANCH   8  14
BRANCH   9  25
HETATM   25  O   UNL     1     -12.124  11.470  68.443  1.00  0.00    -0.556 OA 
HETATM   26  C   UNL     1     -12.321  11.292  69.839  1.00  0.00    -0.233 C  
ENDBRANCH   9  25
BRANCH  11  27
HETATM   27  N   UNL     1     -10.128   7.752  66.298  1.00  0.00    -0.468 NA 
HETATM   28  H   UNL     1     -10.357   7.635  65.312  1.00  0.00     0.000 HD 
BRANCH  27  29
HETATM   29  C   UNL     1      -9.947   6.565  67.135  1.00  0.00    -0.157 C  
HETATM   30  C   UNL     1     -11.100   6.526  68.141  1.00  0.00    -0.332 C  
BRANCH  29  31
HETATM   31  C   UNL     1      -9.969   5.284  66.280  1.00  0.00    -0.216 C  
BRANCH  31  32
HETATM   32  C   UNL     1      -8.857   5.186  65.229  1.00  0.00    -0.152 C  
BRANCH  32  33
HETATM   33  C   UNL     1      -8.925   3.967  64.304  1.00  0.00    -0.128 C  
HETATM   34  N   UNL     1     -10.071   3.106  64.606  1.00  0.00    -0.367 NA 
HETATM   35  H1  UNL     1     -10.117   2.295  63.991  1.00  0.00     0.000 HD 
HETATM   36  H2  UNL     1     -10.943   3.634  64.586  1.00  0.00     0.000 HD 
ENDBRANCH  32  33
ENDBRANCH  31  32
ENDBRANCH  29  31
ENDBRANCH  27  29
ENDBRANCH  11  27
ENDBRANCH   2   3
TORSDOF 9
ENDMDL
MODEL      154
REMARK 921   NORMALIZED FREE ENERGY PREDICTED BY IDOCK:   -5.22 KCAL/MOL
REMARK 922        TOTAL FREE ENERGY PREDICTED BY IDOCK:   -8.93 KCAL/MOL
REMARK 923 INTER-LIGAND FREE ENERGY PREDICTED BY IDOCK:   -7.34 KCAL/MOL
REMARK 924 INTRA-LIGAND FREE ENERGY PREDICTED BY IDOCK:   -1.59 KCAL/MOL
REMARK 927      BINDING AFFINITY PREDICTED BY RF-SCORE:    0.00 PKD
ROOT
HETATM    1  C   UNL     1      -9.525  10.443  64.554  1.00  0.00    -0.286 C  
HETATM    2  O   UNL     1      -8.862  10.334  65.810  1.00  0.00    -0.151 OA 
ENDROOT
BRANCH   2   3
HETATM    3  C   UNL     1      -9.567   9.580  66.723  1.00  0.00    -0.176 A  
HETATM    4  C   UNL     1      -9.833   8.278  66.378  1.00  0.00    -0.283 A  
HETATM    5  C   UNL     1     -10.475   7.459  67.314  1.00  0.00    -0.385 A  
HETATM    6  C   UNL     1     -10.688   7.943  68.645  1.00  0.00    -0.073 A  
HETATM    7  C   UNL     1     -11.032   6.152  66.812  1.00  0.00    -0.322 C  
HETATM    8  C   UNL     1     -10.997   7.188  69.829  1.00  0.00    -0.231 A  
HETATM    9  C   UNL     1     -11.528   7.833  70.961  1.00  0.00    -0.281 A  
HETATM   10  C   UNL     1     -10.577   9.348  68.794  1.00  0.00    -0.208 A  
HETATM   11  C   UNL     1     -11.095   9.989  69.937  1.00  0.00    -0.288 A  
HETATM   12  N   UNL     1     -10.007  10.137  67.861  1.00  0.00    -0.158 NA 
HETATM   13  C   UNL     1     -11.601   9.224  70.987  1.00  0.00    -0.380 A  
BRANCH   8  14
HETATM   14  O   UNL     1     -10.768   5.834  69.977  1.00  0.00    -0.285 OA 
BRANCH  14  15
HETATM   15  C   UNL     1      -9.530   5.293  70.260  1.00  0.00    -0.168 A  
HETATM   16  C   UNL     1      -9.551   4.407  71.346  1.00  0.00    -0.234 A  
HETATM   17  C   UNL     1      -8.478   3.552  71.587  1.00  0.00    -0.095 A  
HETATM   18  F   UNL     1      -6.644   4.388  67.391  1.00  0.00    -0.041 F  
HETATM   19  F   UNL     1      -5.406   3.319  68.813  1.00  0.00    -0.010 F  
HETATM   20  C   UNL     1      -7.379   3.569  70.733  1.00  0.00    -0.037 A  
HETATM   21  C   UNL     1      -8.357   5.428  69.513  1.00  0.00    -0.100 A  
HETATM   22  C   UNL     1      -6.185   4.430  68.674  1.00  0.00    -0.032 C  
HETATM   23  F   UNL     1      -5.340   5.492  68.739  1.00  0.00     0.000 F  
HETATM   24  C   UNL     1      -7.309   4.500  69.683  1.00  0.00    -0.051 A  
ENDBRANCH  14  15
ENDBRANCH   8  14
BRANCH   9  25
HETATM   25  O   UNL     1     -11.948   7.264  72.136  1.00  0.00    -0.291 OA 
HETATM   26  C   UNL     1     -11.019   7.193  73.209  1.00  0.00    -0.286 C  
ENDBRANCH   9  25
BRANCH  11  27
HETATM   27  N   UNL     1     -11.024  11.396  70.022  1.00  0.00    -0.454 NA 
HETATM   28  H   UNL     1     -10.122  11.838  70.200  1.00  0.00     0.000 HD 
BRANCH  27  29
HETATM   29  C   UNL     1     -12.211  12.238  69.860  1.00  0.00    -0.163 C  
HETATM   30  C   UNL     1     -12.778  12.513  71.255  1.00  0.00    -0.350 C  
BRANCH  29  31
HETATM   31  C   UNL     1     -11.848  13.572  69.181  1.00  0.00    -0.386 C  
BRANCH  31  32
HETATM   32  C   UNL     1     -11.163  13.441  67.816  1.00  0.00    -0.306 C  
BRANCH  32  33
HETATM   33  C   UNL     1     -11.565  14.485  66.770  1.00  0.00    -0.376 C  
HETATM   34  N   UNL     1     -12.879  14.206  66.187  1.00  0.00    -0.456 NA 
HETATM   35  H1  UNL     1     -13.148  14.901  65.490  1.00  0.00     0.000 HD 
HETATM   36  H2  UNL     1     -13.592  14.115  66.910  1.00  0.00     0.000 HD 
ENDBRANCH  32  33
ENDBRANCH  31  32
ENDBRANCH  29  31
ENDBRANCH  27  29
ENDBRANCH  11  27
ENDBRANCH   2   3
TORSDOF 9
ENDMDL
MODEL      155
REMARK 921   NORMALIZED FREE ENERGY PREDICTED BY IDOCK:   -5.22 KCAL/MOL
REMARK 922        TOTAL FREE ENERGY PREDICTED BY IDOCK:   -8.93 KCAL/MOL
REMARK 923 INTER-LIGAND FREE ENERGY PREDICTED BY IDOCK:   -8.38 KCAL/MOL
REMARK 924 INTRA-LIGAND FREE ENERGY PREDICTED BY IDOCK:   -0.55 KCAL/MOL
REMARK 927      BINDING AFFINITY PREDICTED BY RF-SCORE:    0.00 PKD
ROOT
HETATM    1  C   UNL     1      -5.561   8.293  65.806  1.00  0.00    -0.039 C  
HETATM    2  O   UNL     1      -5.279   9.610  66.270  1.00  0.00    -0.038 OA 
ENDROOT
BRANCH   2   3
HETATM    3  C   UNL     1      -6.418  10.357  66.483  1.00  0.00    -0.089 A  
HETATM    4  C   UNL     1      -6.241  11.639  66.941  1.00  0.00    -0.149 A  
HETATM    5  C   UNL     1      -7.370  12.453  67.091  1.00  0.00    -0.081 A  
HETATM    6  C   UNL     1      -8.640  11.992  66.617  1.00  0.00    -0.143 A  
HETATM    7  C   UNL     1      -7.196  13.726  67.879  1.00  0.00    -0.156 C  
HETATM    8  C   UNL     1      -9.826  12.761  66.353  1.00  0.00    -0.269 A  
HETATM    9  C   UNL     1     -11.074  12.121  66.246  1.00  0.00    -0.310 A  
HETATM   10  C   UNL     1      -8.719  10.596  66.385  1.00  0.00    -0.149 A  
HETATM   11  C   UNL     1      -9.971   9.961  66.261  1.00  0.00    -0.256 A  
HETATM   12  N   UNL     1      -7.627   9.809  66.298  1.00  0.00    -0.098 NA 
HETATM   13  C   UNL     1     -11.134  10.730  66.235  1.00  0.00     0.027 A  
BRANCH   8  14
HETATM   14  O   UNL     1      -9.844  14.126  66.143  1.00  0.00    -0.292 OA 
BRANCH  14  15
HETATM   15  C   UNL     1     -10.286  15.040  67.078  1.00  0.00    -0.257 A  
HETATM   16  C   UNL     1     -10.457  14.485  68.353  1.00  0.00    -0.246 A  
HETATM   17  C   UNL     1     -10.607  15.303  69.471  1.00  0.00    -0.272 A  
HETATM   18  F   UNL     1      -9.224  19.071  67.114  1.00  0.00    -0.282 F  
HETATM   19  F   UNL     1     -10.094  19.397  69.072  1.00  0.00    -0.459 F  
HETATM   20  C   UNL     1     -10.574  16.686  69.320  1.00  0.00    -0.343 A  
HETATM   21  C   UNL     1     -10.427  16.420  66.910  1.00  0.00    -0.289 A  
HETATM   22  C   UNL     1     -10.300  18.754  67.887  1.00  0.00    -0.406 C  
HETATM   23  F   UNL     1     -11.371  19.362  67.311  1.00  0.00    -0.542 F  
HETATM   24  C   UNL     1     -10.475  17.260  68.042  1.00  0.00    -0.375 A  
ENDBRANCH  14  15
ENDBRANCH   8  14
BRANCH   9  25
HETATM   25  O   UNL     1     -12.306  12.700  66.076  1.00  0.00    -0.587 OA 
HETATM   26  C   UNL     1     -12.726  12.992  64.749  1.00  0.00    -0.342 C  
ENDBRANCH   9  25
BRANCH  11  27
HETATM   27  N   UNL     1     -10.013   8.560  66.094  1.00  0.00    -0.468 NA 
HETATM   28  H   UNL     1     -10.019   8.172  65.151  1.00  0.00     0.000 HD 
BRANCH  27  29
HETATM   29  C   UNL     1     -10.047   7.649  67.240  1.00  0.00    -0.237 C  
HETATM   30  C   UNL     1     -10.474   8.461  68.465  1.00  0.00    -0.201 C  
BRANCH  29  31
HETATM   31  C   UNL     1     -11.055   6.509  67.003  1.00  0.00    -0.411 C  
BRANCH  31  32
HETATM   32  C   UNL     1     -10.442   5.106  66.928  1.00  0.00    -0.280 C  
BRANCH  32  33
HETATM   33  C   UNL     1      -9.315   4.928  65.906  1.00  0.00    -0.159 C  
HETATM   34  N   UNL     1      -9.678   3.995  64.838  1.00  0.00    -0.183 NA 
HETATM   35  H1  UNL     1      -8.928   3.876  64.157  1.00  0.00     0.000 HD 
HETATM   36  H2  UNL     1     -10.547   4.274  64.384  1.00  0.00     0.000 HD 
ENDBRANCH  32  33
ENDBRANCH  31  32
ENDBRANCH  29  31
ENDBRANCH  27  29
ENDBRANCH  11  27
ENDBRANCH   2   3
TORSDOF 9
ENDMDL
MODEL      156
REMARK 921   NORMALIZED FREE ENERGY PREDICTED BY IDOCK:   -5.21 KCAL/MOL
REMARK 922        TOTAL FREE ENERGY PREDICTED BY IDOCK:   -8.93 KCAL/MOL
REMARK 923 INTER-LIGAND FREE ENERGY PREDICTED BY IDOCK:   -7.74 KCAL/MOL
REMARK 924 INTRA-LIGAND FREE ENERGY PREDICTED BY IDOCK:   -1.19 KCAL/MOL
REMARK 927      BINDING AFFINITY PREDICTED BY RF-SCORE:    0.00 PKD
ROOT
HETATM    1  C   UNL     1     -11.864  15.419  64.253  1.00  0.00    -0.199 C  
HETATM    2  O   UNL     1     -12.058  14.171  63.594  1.00  0.00    -0.449 OA 
ENDROOT
BRANCH   2   3
HETATM    3  C   UNL     1     -11.355  13.141  64.181  1.00  0.00    -0.398 A  
HETATM    4  C   UNL     1     -10.703  12.276  63.337  1.00  0.00    -0.438 A  
HETATM    5  C   UNL     1      -9.913  11.267  63.900  1.00  0.00    -0.368 A  
HETATM    6  C   UNL     1      -9.676  11.261  65.312  1.00  0.00    -0.280 A  
HETATM    7  C   UNL     1      -9.469  10.155  62.985  1.00  0.00    -0.292 C  
HETATM    8  C   UNL     1      -8.655  10.561  66.043  1.00  0.00    -0.160 A  
HETATM    9  C   UNL     1      -8.782  10.371  67.431  1.00  0.00    -0.125 A  
HETATM   10  C   UNL     1     -10.574  12.054  66.070  1.00  0.00    -0.268 A  
HETATM   11  C   UNL     1     -10.687  11.872  67.463  1.00  0.00    -0.225 A  
HETATM   12  N   UNL     1     -11.374  12.986  65.513  1.00  0.00    -0.295 NA 
HETATM   13  C   UNL     1      -9.816  11.002  68.118  1.00  0.00    -0.185 A  
BRANCH   8  14
HETATM   14  O   UNL     1      -7.488  10.074  65.487  1.00  0.00    -0.123 OA 
BRANCH  14  15
HETATM   15  C   UNL     1      -7.283   8.745  65.176  1.00  0.00    -0.087 A  
HETATM   16  C   UNL     1      -5.958   8.460  64.820  1.00  0.00    -0.052 A  
HETATM   17  C   UNL     1      -5.504   7.145  64.764  1.00  0.00    -0.032 A  
HETATM   18  F   UNL     1      -9.266   5.567  67.007  1.00  0.00    -0.116 F  
HETATM   19  F   UNL     1      -7.968   4.089  66.097  1.00  0.00    -0.091 F  
HETATM   20  C   UNL     1      -6.372   6.103  65.079  1.00  0.00    -0.038 A  
HETATM   21  C   UNL     1      -8.192   7.694  65.321  1.00  0.00    -0.136 A  
HETATM   22  C   UNL     1      -8.630   5.254  65.842  1.00  0.00    -0.128 C  
HETATM   23  F   UNL     1      -9.608   4.943  64.950  1.00  0.00    -0.156 F  
HETATM   24  C   UNL     1      -7.721   6.365  65.368  1.00  0.00    -0.098 A  
ENDBRANCH  14  15
ENDBRANCH   8  14
BRANCH   9  25
HETATM   25  O   UNL     1      -7.952   9.667  68.265  1.00  0.00    -0.095 OA 
HETATM   26  C   UNL     1      -6.969  10.393  68.992  1.00  0.00    -0.071 C  
ENDBRANCH   9  25
BRANCH  11  27
HETATM   27  N   UNL     1     -11.638  12.634  68.176  1.00  0.00    -0.317 NA 
HETATM   28  H   UNL     1     -12.628  12.409  68.081  1.00  0.00     0.000 HD 
BRANCH  27  29
HETATM   29  C   UNL     1     -11.239  13.740  69.049  1.00  0.00    -0.272 C  
HETATM   30  C   UNL     1     -11.291  15.027  68.220  1.00  0.00    -0.331 C  
BRANCH  29  31
HETATM   31  C   UNL     1     -12.197  13.863  70.249  1.00  0.00    -0.428 C  
BRANCH  31  32
HETATM   32  C   UNL     1     -12.451  15.296  70.732  1.00  0.00    -0.457 C  
BRANCH  32  33
HETATM   33  C   UNL     1     -13.364  15.430  71.954  1.00  0.00    -0.461 C  
HETATM   34  N   UNL     1     -13.778  14.128  72.482  1.00  0.00    -0.570 NA 
HETATM   35  H1  UNL     1     -14.386  14.217  73.296  1.00  0.00     0.000 HD 
HETATM   36  H2  UNL     1     -12.971  13.540  72.687  1.00  0.00     0.000 HD 
ENDBRANCH  32  33
ENDBRANCH  31  32
ENDBRANCH  29  31
ENDBRANCH  27  29
ENDBRANCH  11  27
ENDBRANCH   2   3
TORSDOF 9
ENDMDL
MODEL      157
REMARK 921   NORMALIZED FREE ENERGY PREDICTED BY IDOCK:   -5.18 KCAL/MOL
REMARK 922        TOTAL FREE ENERGY PREDICTED BY IDOCK:   -8.88 KCAL/MOL
REMARK 923 INTER-LIGAND FREE ENERGY PREDICTED BY IDOCK:   -7.79 KCAL/MOL
REMARK 924 INTRA-LIGAND FREE ENERGY PREDICTED BY IDOCK:   -1.09 KCAL/MOL
REMARK 927      BINDING AFFINITY PREDICTED BY RF-SCORE:    0.00 PKD
ROOT
HETATM    1  C   UNL     1     -12.208  15.100  64.152  1.00  0.00    -0.161 C  
HETATM    2  O   UNL     1     -12.681  14.000  64.924  1.00  0.00    -0.647 OA 
ENDROOT
BRANCH   2   3
HETATM    3  C   UNL     1     -11.759  13.560  65.849  1.00  0.00    -0.352 A  
HETATM    4  C   UNL     1     -11.790  12.225  66.169  1.00  0.00    -0.398 A  
HETATM    5  C   UNL     1     -10.817  11.728  67.044  1.00  0.00    -0.306 A  
HETATM    6  C   UNL     1      -9.734  12.574  67.448  1.00  0.00    -0.194 A  
HETATM    7  C   UNL     1     -11.052  10.356  67.620  1.00  0.00    -0.361 C  
HETATM    8  C   UNL     1      -8.478  12.194  68.035  1.00  0.00    -0.170 A  
HETATM    9  C   UNL     1      -7.690  13.151  68.699  1.00  0.00    -0.073 A  
HETATM   10  C   UNL     1      -9.947  13.958  67.235  1.00  0.00    -0.242 A  
HETATM   11  C   UNL     1      -9.145  14.914  67.889  1.00  0.00    -0.182 A  
HETATM   12  N   UNL     1     -10.924  14.431  66.434  1.00  0.00    -0.314 NA 
HETATM   13  C   UNL     1      -8.052  14.495  68.646  1.00  0.00    -0.150 A  
BRANCH   8  14
HETATM   14  O   UNL     1      -7.931  10.928  67.964  1.00  0.00    -0.104 OA 
BRANCH  14  15
HETATM   15  C   UNL     1      -7.890  10.050  69.028  1.00  0.00    -0.101 A  
HETATM   16  C   UNL     1      -6.606   9.895  69.567  1.00  0.00    -0.051 A  
HETATM   17  C   UNL     1      -6.424   9.291  70.809  1.00  0.00    -0.079 A  
HETATM   18  F   UNL     1     -10.961   9.575  71.808  1.00  0.00    -0.427 F  
HETATM   19  F   UNL     1      -9.738   8.356  73.117  1.00  0.00    -0.325 F  
HETATM   20  C   UNL     1      -7.530   8.848  71.528  1.00  0.00    -0.084 A  
HETATM   21  C   UNL     1      -8.977   9.451  69.672  1.00  0.00    -0.181 A  
HETATM   22  C   UNL     1     -10.031   8.579  71.803  1.00  0.00    -0.275 C  
HETATM   23  F   UNL     1     -10.675   7.463  71.368  1.00  0.00    -0.218 F  
HETATM   24  C   UNL     1      -8.818   8.930  70.973  1.00  0.00    -0.285 A  
ENDBRANCH  14  15
ENDBRANCH   8  14
BRANCH   9  25
HETATM   25  O   UNL     1      -6.514  12.951  69.377  1.00  0.00    -0.107 OA 
HETATM   26  C   UNL     1      -5.312  13.409  68.771  1.00  0.00    -0.071 C  
ENDBRANCH   9  25
BRANCH  11  27
HETATM   27  N   UNL     1      -9.427  16.285  67.703  1.00  0.00    -0.220 NA 
HETATM   28  H   UNL     1      -9.494  16.654  66.754  1.00  0.00     0.000 HD 
BRANCH  27  29
HETATM   29  C   UNL     1      -9.625  17.191  68.836  1.00  0.00    -0.237 C  
HETATM   30  C   UNL     1      -9.514  18.624  68.309  1.00  0.00    -0.369 C  
BRANCH  29  31
HETATM   31  C   UNL     1     -11.014  16.982  69.468  1.00  0.00     0.072 C  
BRANCH  31  32
HETATM   32  C   UNL     1     -11.068  15.935  70.586  1.00  0.00    -0.368 C  
BRANCH  32  33
HETATM   33  C   UNL     1     -12.407  15.211  70.751  1.00  0.00    -0.360 C  
HETATM   34  N   UNL     1     -12.621  14.200  69.713  1.00  0.00    -0.455 NA 
HETATM   35  H1  UNL     1     -13.513  13.717  69.823  1.00  0.00     0.000 HD 
HETATM   36  H2  UNL     1     -11.846  13.539  69.677  1.00  0.00     0.000 HD 
ENDBRANCH  32  33
ENDBRANCH  31  32
ENDBRANCH  29  31
ENDBRANCH  27  29
ENDBRANCH  11  27
ENDBRANCH   2   3
TORSDOF 9
ENDMDL
MODEL      158
REMARK 921   NORMALIZED FREE ENERGY PREDICTED BY IDOCK:   -5.18 KCAL/MOL
REMARK 922        TOTAL FREE ENERGY PREDICTED BY IDOCK:   -8.88 KCAL/MOL
REMARK 923 INTER-LIGAND FREE ENERGY PREDICTED BY IDOCK:   -8.18 KCAL/MOL
REMARK 924 INTRA-LIGAND FREE ENERGY PREDICTED BY IDOCK:   -0.70 KCAL/MOL
REMARK 927      BINDING AFFINITY PREDICTED BY RF-SCORE:    0.00 PKD
ROOT
HETATM    1  C   UNL     1      -7.785   7.587  67.783  1.00  0.00    -0.115 C  
HETATM    2  O   UNL     1      -8.207   8.630  66.909  1.00  0.00    -0.104 OA 
ENDROOT
BRANCH   2   3
HETATM    3  C   UNL     1      -8.914   9.619  67.557  1.00  0.00    -0.128 A  
HETATM    4  C   UNL     1      -8.791  10.895  67.065  1.00  0.00    -0.141 A  
HETATM    5  C   UNL     1      -9.558  11.910  67.649  1.00  0.00    -0.185 A  
HETATM    6  C   UNL     1     -10.556  11.571  68.618  1.00  0.00    -0.236 A  
HETATM    7  C   UNL     1      -9.183  13.330  67.313  1.00  0.00    -0.222 C  
HETATM    8  C   UNL     1     -11.661  12.369  69.077  1.00  0.00    -0.311 A  
HETATM    9  C   UNL     1     -12.320  12.041  70.276  1.00  0.00    -0.195 A  
HETATM   10  C   UNL     1     -10.420  10.280  69.188  1.00  0.00    -0.224 A  
HETATM   11  C   UNL     1     -11.096   9.950  70.379  1.00  0.00    -0.319 A  
HETATM   12  N   UNL     1      -9.634   9.325  68.650  1.00  0.00    -0.146 NA 
HETATM   13  C   UNL     1     -12.005  10.852  70.929  1.00  0.00    -0.416 A  
BRANCH   8  14
HETATM   14  O   UNL     1     -12.183  13.450  68.395  1.00  0.00    -0.293 OA 
BRANCH  14  15
HETATM   15  C   UNL     1     -11.722  14.743  68.539  1.00  0.00    -0.317 A  
HETATM   16  C   UNL     1     -11.425  15.077  69.866  1.00  0.00    -0.320 A  
HETATM   17  C   UNL     1     -10.681  16.217  70.163  1.00  0.00    -0.246 A  
HETATM   18  F   UNL     1      -9.379  16.735  65.724  1.00  0.00    -0.284 F  
HETATM   19  F   UNL     1      -8.962  18.379  67.072  1.00  0.00    -0.254 F  
HETATM   20  C   UNL     1     -10.218  17.025  69.128  1.00  0.00    -0.288 A  
HETATM   21  C   UNL     1     -11.405  15.645  67.520  1.00  0.00    -0.198 A  
HETATM   22  C   UNL     1      -9.954  17.537  66.664  1.00  0.00    -0.314 C  
HETATM   23  F   UNL     1     -10.855  18.310  66.002  1.00  0.00    -0.359 F  
HETATM   24  C   UNL     1     -10.567  16.745  67.797  1.00  0.00    -0.341 A  
ENDBRANCH  14  15
ENDBRANCH   8  14
BRANCH   9  25
HETATM   25  O   UNL     1     -13.332  12.728  70.896  1.00  0.00     0.132 OA 
HETATM   26  C   UNL     1     -13.360  12.729  72.318  1.00  0.00    -0.458 C  
ENDBRANCH   9  25
BRANCH  11  27
HETATM   27  N   UNL     1     -10.887   8.676  70.952  1.00  0.00    -0.229 NA 
HETATM   28  H   UNL     1      -9.977   8.458  71.359  1.00  0.00     0.000 HD 
BRANCH  27  29
HETATM   29  C   UNL     1     -11.941   7.662  70.977  1.00  0.00    -0.273 C  
HETATM   30  C   UNL     1     -11.671   6.683  69.830  1.00  0.00    -0.333 C  
BRANCH  29  31
HETATM   31  C   UNL     1     -11.936   6.898  72.315  1.00  0.00    -0.244 C  
BRANCH  31  32
HETATM   32  C   UNL     1     -11.000   5.685  72.367  1.00  0.00    -0.311 C  
BRANCH  32  33
HETATM   33  C   UNL     1     -11.040   4.872  73.664  1.00  0.00    -0.297 C  
HETATM   34  N   UNL     1     -11.056   3.429  73.413  1.00  0.00    -0.207 NA 
HETATM   35  H1  UNL     1     -11.083   2.887  74.276  1.00  0.00     0.000 HD 
HETATM   36  H2  UNL     1     -10.270   3.149  72.826  1.00  0.00     0.000 HD 
ENDBRANCH  32  33
ENDBRANCH  31  32
ENDBRANCH  29  31
ENDBRANCH  27  29
ENDBRANCH  11  27
ENDBRANCH   2   3
TORSDOF 9
ENDMDL
MODEL      159
REMARK 921   NORMALIZED FREE ENERGY PREDICTED BY IDOCK:   -5.17 KCAL/MOL
REMARK 922        TOTAL FREE ENERGY PREDICTED BY IDOCK:   -8.86 KCAL/MOL
REMARK 923 INTER-LIGAND FREE ENERGY PREDICTED BY IDOCK:   -8.08 KCAL/MOL
REMARK 924 INTRA-LIGAND FREE ENERGY PREDICTED BY IDOCK:   -0.77 KCAL/MOL
REMARK 927      BINDING AFFINITY PREDICTED BY RF-SCORE:    0.00 PKD
ROOT
HETATM    1  C   UNL     1     -11.867  16.191  64.199  1.00  0.00     0.224 C  
HETATM    2  O   UNL     1     -12.553  14.945  64.124  1.00  0.00    -0.785 OA 
ENDROOT
BRANCH   2   3
HETATM    3  C   UNL     1     -11.923  13.944  64.831  1.00  0.00    -0.395 A  
HETATM    4  C   UNL     1     -11.330  12.946  64.099  1.00  0.00    -0.442 A  
HETATM    5  C   UNL     1     -10.612  11.957  64.781  1.00  0.00    -0.346 A  
HETATM    6  C   UNL     1     -10.380  12.098  66.187  1.00  0.00    -0.264 A  
HETATM    7  C   UNL     1     -10.241  10.721  64.004  1.00  0.00    -0.390 C  
HETATM    8  C   UNL     1      -9.410  11.418  67.004  1.00  0.00    -0.174 A  
HETATM    9  C   UNL     1      -9.554  11.398  68.403  1.00  0.00    -0.197 A  
HETATM   10  C   UNL     1     -11.224  13.030  66.840  1.00  0.00    -0.295 A  
HETATM   11  C   UNL     1     -11.352  13.017  68.244  1.00  0.00    -0.288 A  
HETATM   12  N   UNL     1     -11.957  13.943  66.172  1.00  0.00    -0.400 NA 
HETATM   13  C   UNL     1     -10.545  12.171  69.003  1.00  0.00    -0.117 A  
BRANCH   8  14
HETATM   14  O   UNL     1      -8.278  10.794  66.519  1.00  0.00    -0.136 OA 
BRANCH  14  15
HETATM   15  C   UNL     1      -8.219   9.452  66.201  1.00  0.00    -0.111 A  
HETATM   16  C   UNL     1      -9.306   8.720  66.695  1.00  0.00    -0.242 A  
HETATM   17  C   UNL     1      -9.567   7.433  66.231  1.00  0.00    -0.119 A  
HETATM   18  F   UNL     1      -6.632   7.941  62.654  1.00  0.00    -0.078 F  
HETATM   19  F   UNL     1      -7.376   5.943  63.042  1.00  0.00    -0.045 F  
HETATM   20  C   UNL     1      -8.747   6.874  65.255  1.00  0.00     0.068 A  
HETATM   21  C   UNL     1      -7.302   8.824  65.354  1.00  0.00    -0.085 A  
HETATM   22  C   UNL     1      -6.799   7.022  63.646  1.00  0.00    -0.048 C  
HETATM   23  F   UNL     1      -5.550   6.626  64.009  1.00  0.00    -0.027 F  
HETATM   24  C   UNL     1      -7.611   7.564  64.800  1.00  0.00    -0.102 A  
ENDBRANCH  14  15
ENDBRANCH   8  14
BRANCH   9  25
HETATM   25  O   UNL     1      -8.775  10.739  69.320  1.00  0.00    -0.131 OA 
HETATM   26  C   UNL     1      -9.363   9.665  70.042  1.00  0.00    -0.241 C  
ENDBRANCH   9  25
BRANCH  11  27
HETATM   27  N   UNL     1     -12.251  13.918  68.856  1.00  0.00    -0.474 NA 
HETATM   28  H   UNL     1     -13.185  14.032  68.462  1.00  0.00     0.000 HD 
BRANCH  27  29
HETATM   29  C   UNL     1     -11.877  14.692  70.040  1.00  0.00    -0.308 C  
HETATM   30  C   UNL     1     -10.607  15.476  69.701  1.00  0.00    -0.285 C  
BRANCH  29  31
HETATM   31  C   UNL     1     -12.998  15.674  70.429  1.00  0.00    -0.151 C  
BRANCH  31  32
HETATM   32  C   UNL     1     -13.807  15.278  71.669  1.00  0.00    -0.615 C  
BRANCH  32  33
HETATM   33  C   UNL     1     -13.500  16.073  72.942  1.00  0.00    -0.453 C  
HETATM   34  N   UNL     1     -12.853  15.249  73.966  1.00  0.00    -0.631 NA 
HETATM   35  H1  UNL     1     -12.648  15.778  74.814  1.00  0.00     0.000 HD 
HETATM   36  H2  UNL     1     -12.014  14.799  73.601  1.00  0.00     0.000 HD 
ENDBRANCH  32  33
ENDBRANCH  31  32
ENDBRANCH  29  31
ENDBRANCH  27  29
ENDBRANCH  11  27
ENDBRANCH   2   3
TORSDOF 9
ENDMDL
MODEL      160
REMARK 921   NORMALIZED FREE ENERGY PREDICTED BY IDOCK:   -5.17 KCAL/MOL
REMARK 922        TOTAL FREE ENERGY PREDICTED BY IDOCK:   -8.86 KCAL/MOL
REMARK 923 INTER-LIGAND FREE ENERGY PREDICTED BY IDOCK:   -8.03 KCAL/MOL
REMARK 924 INTRA-LIGAND FREE ENERGY PREDICTED BY IDOCK:   -0.83 KCAL/MOL
REMARK 927      BINDING AFFINITY PREDICTED BY RF-SCORE:    0.00 PKD
ROOT
HETATM    1  C   UNL     1      -5.466   7.925  65.572  1.00  0.00    -0.029 C  
HETATM    2  O   UNL     1      -5.144   9.277  65.886  1.00  0.00    -0.035 OA 
ENDROOT
BRANCH   2   3
HETATM    3  C   UNL     1      -6.245  10.015  66.262  1.00  0.00    -0.070 A  
HETATM    4  C   UNL     1      -6.005  11.253  66.806  1.00  0.00    -0.132 A  
HETATM    5  C   UNL     1      -7.101  12.063  67.124  1.00  0.00    -0.130 A  
HETATM    6  C   UNL     1      -8.417  11.657  66.731  1.00  0.00    -0.177 A  
HETATM    7  C   UNL     1      -6.835  13.264  67.994  1.00  0.00    -0.122 C  
HETATM    8  C   UNL     1      -9.608  12.458  66.639  1.00  0.00    -0.229 A  
HETATM    9  C   UNL     1     -10.872  11.842  66.594  1.00  0.00    -0.276 A  
HETATM   10  C   UNL     1      -8.541  10.286  66.393  1.00  0.00    -0.133 A  
HETATM   11  C   UNL     1      -9.811   9.677  66.332  1.00  0.00    -0.244 A  
HETATM   12  N   UNL     1      -7.477   9.497  66.143  1.00  0.00    -0.099 NA 
HETATM   13  C   UNL     1     -10.957  10.457  66.474  1.00  0.00    -0.016 A  
BRANCH   8  14
HETATM   14  O   UNL     1      -9.620  13.835  66.544  1.00  0.00    -0.274 OA 
BRANCH  14  15
HETATM   15  C   UNL     1      -9.864  14.675  67.612  1.00  0.00    -0.218 A  
HETATM   16  C   UNL     1      -9.488  16.003  67.366  1.00  0.00    -0.220 A  
HETATM   17  C   UNL     1      -9.923  17.031  68.199  1.00  0.00    -0.287 A  
HETATM   18  F   UNL     1     -13.085  14.283  70.228  1.00  0.00    -0.370 F  
HETATM   19  F   UNL     1     -12.709  16.205  71.156  1.00  0.00    -0.480 F  
HETATM   20  C   UNL     1     -10.750  16.738  69.279  1.00  0.00    -0.324 A  
HETATM   21  C   UNL     1     -10.547  14.367  68.791  1.00  0.00    -0.256 A  
HETATM   22  C   UNL     1     -12.084  15.095  70.668  1.00  0.00    -0.329 C  
HETATM   23  F   UNL     1     -11.535  14.471  71.744  1.00  0.00    -0.334 F  
HETATM   24  C   UNL     1     -11.078  15.406  69.583  1.00  0.00    -0.280 A  
ENDBRANCH  14  15
ENDBRANCH   8  14
BRANCH   9  25
HETATM   25  O   UNL     1     -12.103  12.446  66.584  1.00  0.00    -0.592 OA 
HETATM   26  C   UNL     1     -12.635  12.851  65.330  1.00  0.00    -0.439 C  
ENDBRANCH   9  25
BRANCH  11  27
HETATM   27  N   UNL     1      -9.892   8.295  66.055  1.00  0.00    -0.468 NA 
HETATM   28  H   UNL     1     -10.022   7.988  65.091  1.00  0.00     0.000 HD 
BRANCH  27  29
HETATM   29  C   UNL     1      -9.796   7.291  67.116  1.00  0.00    -0.185 C  
HETATM   30  C   UNL     1     -10.435   7.883  68.375  1.00  0.00    -0.207 C  
BRANCH  29  31
HETATM   31  C   UNL     1     -10.541   6.003  66.720  1.00  0.00    -0.359 C  
BRANCH  31  32
HETATM   32  C   UNL     1      -9.672   4.741  66.665  1.00  0.00    -0.205 C  
BRANCH  32  33
HETATM   33  C   UNL     1      -9.080   4.403  65.293  1.00  0.00    -0.146 C  
HETATM   34  N   UNL     1      -8.814   5.602  64.495  1.00  0.00    -0.362 NA 
HETATM   35  H1  UNL     1      -8.419   5.377  63.582  1.00  0.00     0.000 HD 
HETATM   36  H2  UNL     1      -8.220   6.258  65.002  1.00  0.00     0.000 HD 
ENDBRANCH  32  33
ENDBRANCH  31  32
ENDBRANCH  29  31
ENDBRANCH  27  29
ENDBRANCH  11  27
ENDBRANCH   2   3
TORSDOF 9
ENDMDL
MODEL      161
REMARK 921   NORMALIZED FREE ENERGY PREDICTED BY IDOCK:   -5.16 KCAL/MOL
REMARK 922        TOTAL FREE ENERGY PREDICTED BY IDOCK:   -8.85 KCAL/MOL
REMARK 923 INTER-LIGAND FREE ENERGY PREDICTED BY IDOCK:   -7.54 KCAL/MOL
REMARK 924 INTRA-LIGAND FREE ENERGY PREDICTED BY IDOCK:   -1.31 KCAL/MOL
REMARK 927      BINDING AFFINITY PREDICTED BY RF-SCORE:    0.00 PKD
ROOT
HETATM    1  C   UNL     1      -5.589  10.159  65.507  1.00  0.00    -0.077 C  
HETATM    2  O   UNL     1      -5.323  11.426  66.102  1.00  0.00    -0.205 OA 
ENDROOT
BRANCH   2   3
HETATM    3  C   UNL     1      -6.369  11.885  66.873  1.00  0.00    -0.107 A  
HETATM    4  C   UNL     1      -6.250  13.152  67.389  1.00  0.00    -0.046 A  
HETATM    5  C   UNL     1      -7.328  13.681  68.108  1.00  0.00    -0.121 A  
HETATM    6  C   UNL     1      -8.568  12.966  68.149  1.00  0.00    -0.188 A  
HETATM    7  C   UNL     1      -7.064  14.923  68.919  1.00  0.00    -0.117 C  
HETATM    8  C   UNL     1      -9.869  13.457  68.515  1.00  0.00    -0.178 A  
HETATM    9  C   UNL     1     -10.895  12.557  68.852  1.00  0.00    -0.196 A  
HETATM   10  C   UNL     1      -8.481  11.601  67.780  1.00  0.00    -0.144 A  
HETATM   11  C   UNL     1      -9.519  10.705  68.104  1.00  0.00    -0.154 A  
HETATM   12  N   UNL     1      -7.414  11.086  67.136  1.00  0.00    -0.110 NA 
HETATM   13  C   UNL     1     -10.696  11.190  68.673  1.00  0.00    -0.234 A  
BRANCH   8  14
HETATM   14  O   UNL     1     -10.228  14.791  68.523  1.00  0.00    -0.220 OA 
BRANCH  14  15
HETATM   15  C   UNL     1     -10.162  15.610  67.414  1.00  0.00    -0.264 A  
HETATM   16  C   UNL     1     -10.544  14.966  66.230  1.00  0.00    -0.309 A  
HETATM   17  C   UNL     1     -10.820  15.700  65.078  1.00  0.00    -0.468 A  
HETATM   18  F   UNL     1     -10.968  19.700  67.455  1.00  0.00    -0.559 F  
HETATM   19  F   UNL     1     -10.947  19.838  65.292  1.00  0.00    -0.581 F  
HETATM   20  C   UNL     1     -10.729  17.089  65.109  1.00  0.00    -0.066 A  
HETATM   21  C   UNL     1      -9.904  16.983  67.392  1.00  0.00    -0.262 A  
HETATM   22  C   UNL     1     -10.309  19.255  66.348  1.00  0.00    -0.471 C  
HETATM   23  F   UNL     1      -9.072  19.815  66.394  1.00  0.00    -0.337 F  
HETATM   24  C   UNL     1     -10.278  17.746  66.266  1.00  0.00    -0.364 A  
ENDBRANCH  14  15
ENDBRANCH   8  14
BRANCH   9  25
HETATM   25  O   UNL     1     -12.160  12.849  69.294  1.00  0.00    -0.268 OA 
HETATM   26  C   UNL     1     -12.348  13.043  70.690  1.00  0.00    -0.310 C  
ENDBRANCH   9  25
BRANCH  11  27
HETATM   27  N   UNL     1      -9.371   9.340  67.777  1.00  0.00    -0.129 NA 
HETATM   28  H   UNL     1      -9.696   9.008  66.869  1.00  0.00     0.000 HD 
BRANCH  27  29
HETATM   29  C   UNL     1      -8.762   8.388  68.707  1.00  0.00    -0.136 C  
HETATM   30  C   UNL     1      -9.884   7.792  69.561  1.00  0.00    -0.179 C  
BRANCH  29  31
HETATM   31  C   UNL     1      -8.043   7.259  67.944  1.00  0.00    -0.119 C  
BRANCH  31  32
HETATM   32  C   UNL     1      -8.120   7.357  66.416  1.00  0.00    -0.118 C  
BRANCH  32  33
HETATM   33  C   UNL     1      -8.298   6.028  65.675  1.00  0.00    -0.145 C  
HETATM   34  N   UNL     1      -9.706   5.644  65.557  1.00  0.00    -0.359 NA 
HETATM   35  H1  UNL     1      -9.825   4.759  65.063  1.00  0.00     0.000 HD 
HETATM   36  H2  UNL     1     -10.255   6.385  65.121  1.00  0.00     0.000 HD 
ENDBRANCH  32  33
ENDBRANCH  31  32
ENDBRANCH  29  31
ENDBRANCH  27  29
ENDBRANCH  11  27
ENDBRANCH   2   3
TORSDOF 9
ENDMDL
MODEL      162
REMARK 921   NORMALIZED FREE ENERGY PREDICTED BY IDOCK:   -5.16 KCAL/MOL
REMARK 922        TOTAL FREE ENERGY PREDICTED BY IDOCK:   -8.84 KCAL/MOL
REMARK 923 INTER-LIGAND FREE ENERGY PREDICTED BY IDOCK:   -7.19 KCAL/MOL
REMARK 924 INTRA-LIGAND FREE ENERGY PREDICTED BY IDOCK:   -1.65 KCAL/MOL
REMARK 927      BINDING AFFINITY PREDICTED BY RF-SCORE:    0.00 PKD
ROOT
HETATM    1  C   UNL     1      -7.179  18.174  65.946  1.00  0.00    -0.240 C  
HETATM    2  O   UNL     1      -8.462  17.619  65.671  1.00  0.00    -0.438 OA 
ENDROOT
BRANCH   2   3
HETATM    3  C   UNL     1      -8.721  16.482  66.405  1.00  0.00    -0.322 A  
HETATM    4  C   UNL     1      -8.392  16.515  67.738  1.00  0.00    -0.176 A  
HETATM    5  C   UNL     1      -8.716  15.408  68.530  1.00  0.00    -0.178 A  
HETATM    6  C   UNL     1      -9.514  14.354  67.979  1.00  0.00    -0.209 A  
HETATM    7  C   UNL     1      -8.077  15.332  69.893  1.00  0.00     0.121 C  
HETATM    8  C   UNL     1     -10.238  13.326  68.676  1.00  0.00    -0.172 A  
HETATM    9  C   UNL     1     -10.663  12.173  67.991  1.00  0.00    -0.213 A  
HETATM   10  C   UNL     1      -9.585  14.339  66.564  1.00  0.00    -0.297 A  
HETATM   11  C   UNL     1     -10.027  13.187  65.883  1.00  0.00    -0.269 A  
HETATM   12  N   UNL     1      -9.218  15.391  65.803  1.00  0.00    -0.245 NA 
HETATM   13  C   UNL     1     -10.521  12.104  66.608  1.00  0.00    -0.248 A  
BRANCH   8  14
HETATM   14  O   UNL     1     -10.610  13.393  70.004  1.00  0.00     0.623 OA 
BRANCH  14  15
HETATM   15  C   UNL     1     -11.531  14.294  70.498  1.00  0.00    -0.093 A  
HETATM   16  C   UNL     1     -12.764  14.243  69.833  1.00  0.00    -0.093 A  
HETATM   17  C   UNL     1     -13.891  14.857  70.375  1.00  0.00     0.523 A  
HETATM   18  F   UNL     1     -11.814  15.417  74.503  1.00  0.00    -0.566 F  
HETATM   19  F   UNL     1     -13.690  16.456  74.194  1.00  0.00    -0.007 F  
HETATM   20  C   UNL     1     -13.794  15.517  71.597  1.00  0.00    -0.554 A  
HETATM   21  C   UNL     1     -11.401  15.102  71.631  1.00  0.00    -0.394 A  
HETATM   22  C   UNL     1     -12.469  16.233  73.630  1.00  0.00    -0.545 C  
HETATM   23  F   UNL     1     -11.816  17.425  73.665  1.00  0.00    -0.352 F  
HETATM   24  C   UNL     1     -12.553  15.640  72.242  1.00  0.00    -0.506 A  
ENDBRANCH  14  15
ENDBRANCH   8  14
BRANCH   9  25
HETATM   25  O   UNL     1     -11.291  11.069  68.510  1.00  0.00    -0.241 OA 
HETATM   26  C   UNL     1     -10.565   9.847  68.545  1.00  0.00    -0.217 C  
ENDBRANCH   9  25
BRANCH  11  27
HETATM   27  N   UNL     1     -10.024  13.186  64.470  1.00  0.00    -0.622 NA 
HETATM   28  H   UNL     1      -9.662  13.999  63.973  1.00  0.00     0.000 HD 
BRANCH  27  29
HETATM   29  C   UNL     1     -10.528  12.047  63.702  1.00  0.00    -0.454 C  
HETATM   30  C   UNL     1     -11.795  12.503  62.972  1.00  0.00    -0.110 C  
BRANCH  29  31
HETATM   31  C   UNL     1      -9.484  11.576  62.672  1.00  0.00    -0.107 C  
BRANCH  31  32
HETATM   32  C   UNL     1      -8.292  10.810  63.259  1.00  0.00    -0.026 C  
BRANCH  32  33
HETATM   33  C   UNL     1      -8.616   9.880  64.432  1.00  0.00    -0.185 C  
HETATM   34  N   UNL     1      -8.808   8.493  64.001  1.00  0.00    -0.383 NA 
HETATM   35  H1  UNL     1      -9.023   7.873  64.781  1.00  0.00     0.000 HD 
HETATM   36  H2  UNL     1      -8.003   8.156  63.473  1.00  0.00     0.000 HD 
ENDBRANCH  32  33
ENDBRANCH  31  32
ENDBRANCH  29  31
ENDBRANCH  27  29
ENDBRANCH  11  27
ENDBRANCH   2   3
TORSDOF 9
ENDMDL
MODEL      163
REMARK 921   NORMALIZED FREE ENERGY PREDICTED BY IDOCK:   -5.16 KCAL/MOL
REMARK 922        TOTAL FREE ENERGY PREDICTED BY IDOCK:   -8.84 KCAL/MOL
REMARK 923 INTER-LIGAND FREE ENERGY PREDICTED BY IDOCK:   -7.36 KCAL/MOL
REMARK 924 INTRA-LIGAND FREE ENERGY PREDICTED BY IDOCK:   -1.48 KCAL/MOL
REMARK 927      BINDING AFFINITY PREDICTED BY RF-SCORE:    0.00 PKD
ROOT
HETATM    1  C   UNL     1      -6.184  10.300  65.248  1.00  0.00    -0.127 C  
HETATM    2  O   UNL     1      -7.434  10.185  64.573  1.00  0.00    -0.141 OA 
ENDROOT
BRANCH   2   3
HETATM    3  C   UNL     1      -8.505  10.124  65.438  1.00  0.00    -0.156 A  
HETATM    4  C   UNL     1      -8.882   8.877  65.871  1.00  0.00    -0.215 A  
HETATM    5  C   UNL     1      -9.914   8.784  66.812  1.00  0.00    -0.338 A  
HETATM    6  C   UNL     1     -10.431   9.976  67.412  1.00  0.00    -0.316 A  
HETATM    7  C   UNL     1     -10.516   7.420  67.034  1.00  0.00    -0.404 C  
HETATM    8  C   UNL     1     -11.214  10.104  68.611  1.00  0.00    -0.168 A  
HETATM    9  C   UNL     1     -11.939  11.283  68.860  1.00  0.00    -0.310 A  
HETATM   10  C   UNL     1     -10.121  11.174  66.721  1.00  0.00    -0.218 A  
HETATM   11  C   UNL     1     -10.839  12.358  66.985  1.00  0.00    -0.246 A  
HETATM   12  N   UNL     1      -9.163  11.243  65.774  1.00  0.00    -0.217 NA 
HETATM   13  C   UNL     1     -11.768  12.384  68.024  1.00  0.00    -0.414 A  
BRANCH   8  14
HETATM   14  O   UNL     1     -11.287   9.147  69.605  1.00  0.00    -0.085 OA 
BRANCH  14  15
HETATM   15  C   UNL     1     -10.333   8.992  70.590  1.00  0.00    -0.229 A  
HETATM   16  C   UNL     1     -10.834   8.395  71.754  1.00  0.00    -0.353 A  
HETATM   17  C   UNL     1      -9.970   7.895  72.726  1.00  0.00    -0.348 A  
HETATM   18  F   UNL     1      -6.310   8.171  69.863  1.00  0.00    -0.031 F  
HETATM   19  F   UNL     1      -5.899   7.774  71.954  1.00  0.00    -0.036 F  
HETATM   20  C   UNL     1      -8.594   7.978  72.532  1.00  0.00    -0.227 A  
HETATM   21  C   UNL     1      -8.960   9.228  70.482  1.00  0.00    -0.296 A  
HETATM   22  C   UNL     1      -6.589   8.608  71.124  1.00  0.00    -0.061 C  
HETATM   23  F   UNL     1      -5.998   9.827  71.240  1.00  0.00    -0.069 F  
HETATM   24  C   UNL     1      -8.074   8.637  71.407  1.00  0.00    -0.192 A  
ENDBRANCH  14  15
ENDBRANCH   8  14
BRANCH   9  25
HETATM   25  O   UNL     1     -12.792  11.544  69.903  1.00  0.00     0.068 OA 
HETATM   26  C   UNL     1     -12.362  12.464  70.898  1.00  0.00    -0.262 C  
ENDBRANCH   9  25
BRANCH  11  27
HETATM   27  N   UNL     1     -10.546  13.516  66.233  1.00  0.00    -0.285 NA 
HETATM   28  H   UNL     1     -10.453  13.440  65.220  1.00  0.00     0.000 HD 
BRANCH  27  29
HETATM   29  C   UNL     1     -10.372  14.823  66.868  1.00  0.00    -0.267 C  
HETATM   30  C   UNL     1      -9.434  14.637  68.064  1.00  0.00    -0.207 C  
BRANCH  29  31
HETATM   31  C   UNL     1      -9.754  15.833  65.884  1.00  0.00    -0.389 C  
BRANCH  31  32
HETATM   32  C   UNL     1      -9.157  17.088  66.530  1.00  0.00    -0.291 C  
BRANCH  32  33
HETATM   33  C   UNL     1      -7.704  17.398  66.157  1.00  0.00    -0.276 C  
HETATM   34  N   UNL     1      -6.770  16.410  66.702  1.00  0.00    -0.255 NA 
HETATM   35  H1  UNL     1      -5.803  16.616  66.454  1.00  0.00     0.000 HD 
HETATM   36  H2  UNL     1      -7.029  15.464  66.422  1.00  0.00     0.000 HD 
ENDBRANCH  32  33
ENDBRANCH  31  32
ENDBRANCH  29  31
ENDBRANCH  27  29
ENDBRANCH  11  27
ENDBRANCH   2   3
TORSDOF 9
ENDMDL
MODEL      164
REMARK 921   NORMALIZED FREE ENERGY PREDICTED BY IDOCK:   -5.16 KCAL/MOL
REMARK 922        TOTAL FREE ENERGY PREDICTED BY IDOCK:   -8.84 KCAL/MOL
REMARK 923 INTER-LIGAND FREE ENERGY PREDICTED BY IDOCK:   -7.46 KCAL/MOL
REMARK 924 INTRA-LIGAND FREE ENERGY PREDICTED BY IDOCK:   -1.39 KCAL/MOL
REMARK 927      BINDING AFFINITY PREDICTED BY RF-SCORE:    0.00 PKD
ROOT
HETATM    1  C   UNL     1     -11.852  13.381  67.132  1.00  0.00    -0.382 C  
HETATM    2  O   UNL     1     -11.923  11.958  67.098  1.00  0.00    -0.611 OA 
ENDROOT
BRANCH   2   3
HETATM    3  C   UNL     1     -11.397  11.369  68.227  1.00  0.00    -0.286 A  
HETATM    4  C   UNL     1     -12.272  11.095  69.248  1.00  0.00    -0.295 A  
HETATM    5  C   UNL     1     -11.788  10.423  70.377  1.00  0.00    -0.418 A  
HETATM    6  C   UNL     1     -10.454   9.904  70.370  1.00  0.00    -0.347 A  
HETATM    7  C   UNL     1     -12.672  10.411  71.597  1.00  0.00    -0.560 C  
HETATM    8  C   UNL     1      -9.878   8.914  71.240  1.00  0.00    -0.291 A  
HETATM    9  C   UNL     1      -8.480   8.785  71.336  1.00  0.00    -0.188 A  
HETATM   10  C   UNL     1      -9.608  10.447  69.371  1.00  0.00    -0.192 A  
HETATM   11  C   UNL     1      -8.209  10.300  69.463  1.00  0.00    -0.155 A  
HETATM   12  N   UNL     1     -10.078  11.141  68.316  1.00  0.00    -0.178 NA 
HETATM   13  C   UNL     1      -7.663   9.505  70.469  1.00  0.00    -0.177 A  
BRANCH   8  14
HETATM   14  O   UNL     1     -10.606   8.011  71.989  1.00  0.00    -0.218 OA 
BRANCH  14  15
HETATM   15  C   UNL     1     -10.680   6.662  71.703  1.00  0.00    -0.229 A  
HETATM   16  C   UNL     1     -10.331   6.359  70.381  1.00  0.00    -0.251 A  
HETATM   17  C   UNL     1     -10.065   5.046  69.999  1.00  0.00    -0.342 A  
HETATM   18  F   UNL     1      -9.806   3.627  74.425  1.00  0.00    -0.123 F  
HETATM   19  F   UNL     1      -9.866   2.090  72.899  1.00  0.00    -0.117 F  
HETATM   20  C   UNL     1     -10.133   4.027  70.945  1.00  0.00    -0.061 A  
HETATM   21  C   UNL     1     -10.916   5.620  72.603  1.00  0.00    -0.316 A  
HETATM   22  C   UNL     1     -10.493   3.226  73.318  1.00  0.00    -0.166 C  
HETATM   23  F   UNL     1     -11.720   2.839  73.755  1.00  0.00    -0.300 F  
HETATM   24  C   UNL     1     -10.550   4.302  72.257  1.00  0.00    -0.099 A  
ENDBRANCH  14  15
ENDBRANCH   8  14
BRANCH   9  25
HETATM   25  O   UNL     1      -7.766   7.957  72.164  1.00  0.00    -0.087 OA 
HETATM   26  C   UNL     1      -6.985   6.931  71.565  1.00  0.00    -0.066 C  
ENDBRANCH   9  25
BRANCH  11  27
HETATM   27  N   UNL     1      -7.394  10.909  68.484  1.00  0.00    -0.092 NA 
HETATM   28  H   UNL     1      -7.331  11.927  68.452  1.00  0.00     0.000 HD 
BRANCH  27  29
HETATM   29  C   UNL     1      -6.636  10.118  67.514  1.00  0.00    -0.068 C  
HETATM   30  C   UNL     1      -5.542   9.368  68.279  1.00  0.00    -0.037 C  
BRANCH  29  31
HETATM   31  C   UNL     1      -7.550   9.104  66.800  1.00  0.00    -0.087 C  
BRANCH  31  32
HETATM   32  C   UNL     1      -7.871   9.436  65.338  1.00  0.00    -0.104 C  
BRANCH  32  33
HETATM   33  C   UNL     1      -9.180  10.197  65.104  1.00  0.00    -0.213 C  
HETATM   34  N   UNL     1      -9.076  11.607  65.484  1.00  0.00    -0.401 NA 
HETATM   35  H1  UNL     1      -9.947  12.114  65.329  1.00  0.00     0.000 HD 
HETATM   36  H2  UNL     1      -8.296  12.061  65.010  1.00  0.00     0.000 HD 
ENDBRANCH  32  33
ENDBRANCH  31  32
ENDBRANCH  29  31
ENDBRANCH  27  29
ENDBRANCH  11  27
ENDBRANCH   2   3
TORSDOF 9
ENDMDL
MODEL      165
REMARK 921   NORMALIZED FREE ENERGY PREDICTED BY IDOCK:   -5.13 KCAL/MOL
REMARK 922        TOTAL FREE ENERGY PREDICTED BY IDOCK:   -8.80 KCAL/MOL
REMARK 923 INTER-LIGAND FREE ENERGY PREDICTED BY IDOCK:   -8.24 KCAL/MOL
REMARK 924 INTRA-LIGAND FREE ENERGY PREDICTED BY IDOCK:   -0.56 KCAL/MOL
REMARK 927      BINDING AFFINITY PREDICTED BY RF-SCORE:    0.00 PKD
ROOT
HETATM    1  C   UNL     1     -11.818  14.273  65.533  1.00  0.00    -0.363 C  
HETATM    2  O   UNL     1     -11.107  15.501  65.414  1.00  0.00    -0.337 OA 
ENDROOT
BRANCH   2   3
HETATM    3  C   UNL     1      -9.881  15.472  66.042  1.00  0.00    -0.335 A  
HETATM    4  C   UNL     1      -8.999  16.477  65.728  1.00  0.00    -0.006 A  
HETATM    5  C   UNL     1      -7.776  16.525  66.407  1.00  0.00    -0.294 A  
HETATM    6  C   UNL     1      -7.545  15.639  67.508  1.00  0.00    -0.200 A  
HETATM    7  C   UNL     1      -6.712  17.427  65.837  1.00  0.00    -0.102 C  
HETATM    8  C   UNL     1      -6.548  15.739  68.539  1.00  0.00    -0.115 A  
HETATM    9  C   UNL     1      -6.225  14.615  69.321  1.00  0.00    -0.111 A  
HETATM   10  C   UNL     1      -8.423  14.528  67.574  1.00  0.00    -0.190 A  
HETATM   11  C   UNL     1      -8.104  13.411  68.372  1.00  0.00    -0.138 A  
HETATM   12  N   UNL     1      -9.573  14.465  66.872  1.00  0.00    -0.246 NA 
HETATM   13  C   UNL     1      -6.986  13.455  69.203  1.00  0.00    -0.044 A  
BRANCH   8  14
HETATM   14  O   UNL     1      -5.880  16.900  68.873  1.00  0.00    -0.145 OA 
BRANCH  14  15
HETATM   15  C   UNL     1      -6.442  18.158  68.791  1.00  0.00    -0.221 A  
HETATM   16  C   UNL     1      -5.519  19.154  68.446  1.00  0.00    -0.203 A  
HETATM   17  C   UNL     1      -5.951  20.412  68.033  1.00  0.00    -0.290 A  
HETATM   18  F   UNL     1     -10.325  18.921  67.478  1.00  0.00    -0.360 F  
HETATM   19  F   UNL     1      -9.995  21.061  67.395  1.00  0.00    -0.603 F  
HETATM   20  C   UNL     1      -7.314  20.679  67.950  1.00  0.00    -0.217 A  
HETATM   21  C   UNL     1      -7.798  18.485  68.873  1.00  0.00    -0.245 A  
HETATM   22  C   UNL     1      -9.730  19.951  68.143  1.00  0.00    -0.383 C  
HETATM   23  F   UNL     1     -10.425  20.105  69.301  1.00  0.00    -0.489 F  
HETATM   24  C   UNL     1      -8.253  19.718  68.361  1.00  0.00    -0.296 A  
ENDBRANCH  14  15
ENDBRANCH   8  14
BRANCH   9  25
HETATM   25  O   UNL     1      -5.254  14.510  70.285  1.00  0.00    -0.094 OA 
HETATM   26  C   UNL     1      -5.623  13.959  71.542  1.00  0.00    -0.235 C  
ENDBRANCH   9  25
BRANCH  11  27
HETATM   27  N   UNL     1      -8.970  12.296  68.363  1.00  0.00    -0.296 NA 
HETATM   28  H   UNL     1      -9.915  12.398  68.733  1.00  0.00     0.000 HD 
BRANCH  27  29
HETATM   29  C   UNL     1      -8.547  10.998  67.836  1.00  0.00    -0.133 C  
HETATM   30  C   UNL     1      -9.551   9.950  68.322  1.00  0.00    -0.151 C  
BRANCH  29  31
HETATM   31  C   UNL     1      -8.524  11.012  66.296  1.00  0.00    -0.165 C  
BRANCH  31  32
HETATM   32  C   UNL     1      -9.855  10.656  65.624  1.00  0.00    -0.307 C  
BRANCH  32  33
HETATM   33  C   UNL     1     -10.024  11.152  64.185  1.00  0.00    -0.316 C  
HETATM   34  N   UNL     1      -9.755  12.586  64.059  1.00  0.00    -0.607 NA 
HETATM   35  H1  UNL     1      -9.867  12.917  63.101  1.00  0.00     0.000 HD 
HETATM   36  H2  UNL     1      -8.833  12.822  64.424  1.00  0.00     0.000 HD 
ENDBRANCH  32  33
ENDBRANCH  31  32
ENDBRANCH  29  31
ENDBRANCH  27  29
ENDBRANCH  11  27
ENDBRANCH   2   3
TORSDOF 9
ENDMDL
MODEL      166
REMARK 921   NORMALIZED FREE ENERGY PREDICTED BY IDOCK:   -5.11 KCAL/MOL
REMARK 922        TOTAL FREE ENERGY PREDICTED BY IDOCK:   -8.77 KCAL/MOL
REMARK 923 INTER-LIGAND FREE ENERGY PREDICTED BY IDOCK:   -7.32 KCAL/MOL
REMARK 924 INTRA-LIGAND FREE ENERGY PREDICTED BY IDOCK:   -1.45 KCAL/MOL
REMARK 927      BINDING AFFINITY PREDICTED BY RF-SCORE:    0.00 PKD
ROOT
HETATM    1  C   UNL     1     -13.847  14.063  71.590  1.00  0.00    -0.325 C  
HETATM    2  O   UNL     1     -13.892  12.721  72.068  1.00  0.00    -0.327 OA 
ENDROOT
BRANCH   2   3
HETATM    3  C   UNL     1     -12.950  11.910  71.474  1.00  0.00    -0.323 A  
HETATM    4  C   UNL     1     -12.818  10.640  71.979  1.00  0.00    -0.389 A  
HETATM    5  C   UNL     1     -11.928   9.763  71.349  1.00  0.00    -0.493 A  
HETATM    6  C   UNL     1     -11.310  10.150  70.116  1.00  0.00    -0.372 A  
HETATM    7  C   UNL     1     -11.568   8.502  72.092  1.00  0.00    -0.447 C  
HETATM    8  C   UNL     1     -10.660   9.314  69.144  1.00  0.00    -0.212 A  
HETATM    9  C   UNL     1      -9.799   9.880  68.187  1.00  0.00    -0.147 A  
HETATM   10  C   UNL     1     -11.354  11.538  69.838  1.00  0.00    -0.186 A  
HETATM   11  C   UNL     1     -10.501  12.100  68.867  1.00  0.00    -0.113 A  
HETATM   12  N   UNL     1     -12.174  12.388  70.490  1.00  0.00    -0.349 NA 
HETATM   13  C   UNL     1      -9.705  11.266  68.083  1.00  0.00    -0.188 A  
BRANCH   8  14
HETATM   14  O   UNL     1     -10.849   7.950  69.032  1.00  0.00    -0.143 OA 
BRANCH  14  15
HETATM   15  C   UNL     1      -9.833   7.023  69.157  1.00  0.00    -0.158 A  
HETATM   16  C   UNL     1      -9.114   7.151  70.353  1.00  0.00    -0.156 A  
HETATM   17  C   UNL     1      -8.262   6.136  70.783  1.00  0.00    -0.125 A  
HETATM   18  F   UNL     1     -10.012   3.123  67.696  1.00  0.00    -0.165 F  
HETATM   19  F   UNL     1      -8.202   2.534  68.732  1.00  0.00    -0.059 F  
HETATM   20  C   UNL     1      -8.133   4.978  70.022  1.00  0.00    -0.074 A  
HETATM   21  C   UNL     1      -9.569   5.940  68.315  1.00  0.00    -0.134 A  
HETATM   22  C   UNL     1      -8.763   3.556  68.025  1.00  0.00    -0.107 C  
HETATM   23  F   UNL     1      -8.070   3.630  66.857  1.00  0.00    -0.091 F  
HETATM   24  C   UNL     1      -8.790   4.863  68.785  1.00  0.00    -0.114 A  
ENDBRANCH  14  15
ENDBRANCH   8  14
BRANCH   9  25
HETATM   25  O   UNL     1      -9.044   9.231  67.243  1.00  0.00    -0.126 OA 
HETATM   26  C   UNL     1      -9.621   9.019  65.961  1.00  0.00    -0.272 C  
ENDBRANCH   9  25
BRANCH  11  27
HETATM   27  N   UNL     1     -10.527  13.497  68.661  1.00  0.00    -0.269 NA 
HETATM   28  H   UNL     1     -11.339  14.030  68.971  1.00  0.00     0.000 HD 
BRANCH  27  29
HETATM   29  C   UNL     1      -9.418  14.199  68.013  1.00  0.00    -0.213 C  
HETATM   30  C   UNL     1      -9.954  14.820  66.720  1.00  0.00    -0.256 C  
BRANCH  29  31
HETATM   31  C   UNL     1      -8.865  15.310  68.925  1.00  0.00    -0.209 C  
BRANCH  31  32
HETATM   32  C   UNL     1      -9.767  16.541  69.069  1.00  0.00    -0.258 C  
BRANCH  32  33
HETATM   33  C   UNL     1     -10.696  16.543  70.288  1.00  0.00    -0.081 C  
HETATM   34  N   UNL     1     -10.634  15.283  71.032  1.00  0.00    -0.440 NA 
HETATM   35  H1  UNL     1     -11.252  15.284  71.844  1.00  0.00     0.000 HD 
HETATM   36  H2  UNL     1      -9.675  15.059  71.299  1.00  0.00     0.000 HD 
ENDBRANCH  32  33
ENDBRANCH  31  32
ENDBRANCH  29  31
ENDBRANCH  27  29
ENDBRANCH  11  27
ENDBRANCH   2   3
TORSDOF 9
ENDMDL
MODEL      167
REMARK 921   NORMALIZED FREE ENERGY PREDICTED BY IDOCK:   -5.10 KCAL/MOL
REMARK 922        TOTAL FREE ENERGY PREDICTED BY IDOCK:   -8.76 KCAL/MOL
REMARK 923 INTER-LIGAND FREE ENERGY PREDICTED BY IDOCK:   -6.96 KCAL/MOL
REMARK 924 INTRA-LIGAND FREE ENERGY PREDICTED BY IDOCK:   -1.80 KCAL/MOL
REMARK 927      BINDING AFFINITY PREDICTED BY RF-SCORE:    0.00 PKD
ROOT
HETATM    1  C   UNL     1      -5.799   8.286  64.211  1.00  0.00    -0.064 C  
HETATM    2  O   UNL     1      -5.787   9.659  64.593  1.00  0.00    -0.072 OA 
ENDROOT
BRANCH   2   3
HETATM    3  C   UNL     1      -6.617   9.925  65.660  1.00  0.00    -0.093 A  
HETATM    4  C   UNL     1      -6.579  11.198  66.173  1.00  0.00    -0.022 A  
HETATM    5  C   UNL     1      -7.466  11.526  67.204  1.00  0.00    -0.142 A  
HETATM    6  C   UNL     1      -8.485  10.594  67.582  1.00  0.00    -0.118 A  
HETATM    7  C   UNL     1      -7.200  12.805  67.955  1.00  0.00    -0.120 C  
HETATM    8  C   UNL     1      -9.682  10.839  68.341  1.00  0.00    -0.174 A  
HETATM    9  C   UNL     1     -10.379   9.768  68.927  1.00  0.00    -0.210 A  
HETATM   10  C   UNL     1      -8.269   9.264  67.142  1.00  0.00    -0.117 A  
HETATM   11  C   UNL     1      -8.981   8.195  67.721  1.00  0.00    -0.132 A  
HETATM   12  N   UNL     1      -7.371   8.949  66.187  1.00  0.00    -0.089 NA 
HETATM   13  C   UNL     1      -9.999   8.460  68.637  1.00  0.00    -0.197 A  
BRANCH   8  14
HETATM   14  O   UNL     1     -10.257  12.082  68.516  1.00  0.00    -0.215 OA 
BRANCH  14  15
HETATM   15  C   UNL     1     -10.936  12.759  67.523  1.00  0.00    -0.249 A  
HETATM   16  C   UNL     1     -10.794  14.151  67.608  1.00  0.00    -0.266 A  
HETATM   17  C   UNL     1     -11.155  14.969  66.540  1.00  0.00    -0.329 A  
HETATM   18  F   UNL     1     -11.448  11.344  63.635  1.00  0.00    -0.477 F  
HETATM   19  F   UNL     1     -12.230  13.238  62.930  1.00  0.00    -0.592 F  
HETATM   20  C   UNL     1     -11.649  14.397  65.371  1.00  0.00    -0.347 A  
HETATM   21  C   UNL     1     -11.591  12.207  66.419  1.00  0.00    -0.429 A  
HETATM   22  C   UNL     1     -12.270  12.374  63.984  1.00  0.00    -0.490 C  
HETATM   23  F   UNL     1     -13.529  11.862  64.004  1.00  0.00    -0.453 F  
HETATM   24  C   UNL     1     -11.865  13.012  65.294  1.00  0.00    -0.413 A  
ENDBRANCH  14  15
ENDBRANCH   8  14
BRANCH   9  25
HETATM   25  O   UNL     1     -11.482   9.825  69.740  1.00  0.00    -0.201 OA 
HETATM   26  C   UNL     1     -11.477   9.037  70.924  1.00  0.00    -0.291 C  
ENDBRANCH   9  25
BRANCH  11  27
HETATM   27  N   UNL     1      -8.694   6.877  67.303  1.00  0.00    -0.119 NA 
HETATM   28  H   UNL     1      -8.874   6.612  66.335  1.00  0.00     0.000 HD 
BRANCH  27  29
HETATM   29  C   UNL     1      -8.144   5.881  68.224  1.00  0.00    -0.109 C  
HETATM   30  C   UNL     1      -9.238   4.844  68.493  1.00  0.00    -0.157 C  
BRANCH  29  31
HETATM   31  C   UNL     1      -6.916   5.184  67.608  1.00  0.00    -0.065 C  
BRANCH  31  32
HETATM   32  C   UNL     1      -7.236   4.014  66.672  1.00  0.00    -0.068 C  
BRANCH  32  33
HETATM   33  C   UNL     1      -7.136   4.317  65.174  1.00  0.00    -0.063 C  
HETATM   34  N   UNL     1      -7.720   3.254  64.353  1.00  0.00    -0.076 NA 
HETATM   35  H1  UNL     1      -7.653   3.456  63.356  1.00  0.00     0.000 HD 
HETATM   36  H2  UNL     1      -8.683   3.063  64.627  1.00  0.00     0.000 HD 
ENDBRANCH  32  33
ENDBRANCH  31  32
ENDBRANCH  29  31
ENDBRANCH  27  29
ENDBRANCH  11  27
ENDBRANCH   2   3
TORSDOF 9
ENDMDL
MODEL      168
REMARK 921   NORMALIZED FREE ENERGY PREDICTED BY IDOCK:   -5.10 KCAL/MOL
REMARK 922        TOTAL FREE ENERGY PREDICTED BY IDOCK:   -8.75 KCAL/MOL
REMARK 923 INTER-LIGAND FREE ENERGY PREDICTED BY IDOCK:   -7.14 KCAL/MOL
REMARK 924 INTRA-LIGAND FREE ENERGY PREDICTED BY IDOCK:   -1.61 KCAL/MOL
REMARK 927      BINDING AFFINITY PREDICTED BY RF-SCORE:    0.00 PKD
ROOT
HETATM    1  C   UNL     1     -12.550   8.650  71.860  1.00  0.00    -0.359 C  
HETATM    2  O   UNL     1     -11.279   9.296  71.857  1.00  0.00    -0.370 OA 
ENDROOT
BRANCH   2   3
HETATM    3  C   UNL     1     -10.882   9.690  70.598  1.00  0.00    -0.320 A  
HETATM    4  C   UNL     1     -11.538  10.765  70.049  1.00  0.00    -0.417 A  
HETATM    5  C   UNL     1     -11.107  11.243  68.807  1.00  0.00    -0.288 A  
HETATM    6  C   UNL     1      -9.910  10.715  68.224  1.00  0.00    -0.174 A  
HETATM    7  C   UNL     1     -12.021  12.202  68.089  1.00  0.00    -0.242 C  
HETATM    8  C   UNL     1      -9.111  11.274  67.168  1.00  0.00    -0.157 A  
HETATM    9  C   UNL     1      -8.192  10.466  66.474  1.00  0.00    -0.131 A  
HETATM   10  C   UNL     1      -9.475   9.483  68.772  1.00  0.00    -0.147 A  
HETATM   11  C   UNL     1      -8.541   8.684  68.081  1.00  0.00    -0.141 A  
HETATM   12  N   UNL     1      -9.937   9.000  69.943  1.00  0.00    -0.184 NA 
HETATM   13  C   UNL     1      -7.943   9.170  66.919  1.00  0.00    -0.105 A  
BRANCH   8  14
HETATM   14  O   UNL     1      -9.135  12.601  66.786  1.00  0.00    -0.216 OA 
BRANCH  14  15
HETATM   15  C   UNL     1      -8.837  13.648  67.635  1.00  0.00    -0.194 A  
HETATM   16  C   UNL     1      -7.595  13.509  68.267  1.00  0.00    -0.135 A  
HETATM   17  C   UNL     1      -7.003  14.590  68.918  1.00  0.00    -0.110 A  
HETATM   18  F   UNL     1      -9.971  17.606  66.978  1.00  0.00    -0.277 F  
HETATM   19  F   UNL     1      -8.726  18.346  68.589  1.00  0.00    -0.312 F  
HETATM   20  C   UNL     1      -7.648  15.823  68.928  1.00  0.00    -0.181 A  
HETATM   21  C   UNL     1      -9.556  14.835  67.796  1.00  0.00    -0.209 A  
HETATM   22  C   UNL     1      -9.566  17.327  68.249  1.00  0.00    -0.288 C  
HETATM   23  F   UNL     1     -10.666  17.470  69.036  1.00  0.00    -0.314 F  
HETATM   24  C   UNL     1      -8.925  15.963  68.362  1.00  0.00    -0.189 A  
ENDBRANCH  14  15
ENDBRANCH   8  14
BRANCH   9  25
HETATM   25  O   UNL     1      -7.412  10.810  65.399  1.00  0.00    -0.075 OA 
HETATM   26  C   UNL     1      -6.202  10.090  65.199  1.00  0.00    -0.109 C  
ENDBRANCH   9  25
BRANCH  11  27
HETATM   27  N   UNL     1      -8.178   7.433  68.625  1.00  0.00    -0.124 NA 
HETATM   28  H   UNL     1      -8.219   7.300  69.636  1.00  0.00     0.000 HD 
BRANCH  27  29
HETATM   29  C   UNL     1      -7.744   6.322  67.777  1.00  0.00    -0.102 C  
HETATM   30  C   UNL     1      -6.259   6.076  68.058  1.00  0.00    -0.029 C  
BRANCH  29  31
HETATM   31  C   UNL     1      -8.544   5.045  68.094  1.00  0.00    -0.102 C  
BRANCH  31  32
HETATM   32  C   UNL     1      -9.815   4.851  67.259  1.00  0.00    -0.214 C  
BRANCH  32  33
HETATM   33  C   UNL     1     -10.572   6.132  66.898  1.00  0.00    -0.312 C  
HETATM   34  N   UNL     1     -11.467   6.568  67.972  1.00  0.00    -0.611 NA 
HETATM   35  H1  UNL     1     -11.971   7.421  67.732  1.00  0.00     0.000 HD 
HETATM   36  H2  UNL     1     -10.963   6.673  68.852  1.00  0.00     0.000 HD 
ENDBRANCH  32  33
ENDBRANCH  31  32
ENDBRANCH  29  31
ENDBRANCH  27  29
ENDBRANCH  11  27
ENDBRANCH   2   3
TORSDOF 9
ENDMDL
MODEL      169
REMARK 921   NORMALIZED FREE ENERGY PREDICTED BY IDOCK:   -5.08 KCAL/MOL
REMARK 922        TOTAL FREE ENERGY PREDICTED BY IDOCK:   -8.72 KCAL/MOL
REMARK 923 INTER-LIGAND FREE ENERGY PREDICTED BY IDOCK:   -7.53 KCAL/MOL
REMARK 924 INTRA-LIGAND FREE ENERGY PREDICTED BY IDOCK:   -1.19 KCAL/MOL
REMARK 927      BINDING AFFINITY PREDICTED BY RF-SCORE:    0.00 PKD
ROOT
HETATM    1  C   UNL     1     -10.817  15.209  66.360  1.00  0.00    -0.326 C  
HETATM    2  O   UNL     1      -9.564  14.725  65.884  1.00  0.00    -0.309 OA 
ENDROOT
BRANCH   2   3
HETATM    3  C   UNL     1      -9.225  13.502  66.421  1.00  0.00    -0.119 A  
HETATM    4  C   UNL     1      -8.491  13.515  67.582  1.00  0.00    -0.184 A  
HETATM    5  C   UNL     1      -8.199  12.293  68.198  1.00  0.00    -0.168 A  
HETATM    6  C   UNL     1      -8.799  11.092  67.702  1.00  0.00    -0.131 A  
HETATM    7  C   UNL     1      -7.146  12.306  69.276  1.00  0.00     0.061 C  
HETATM    8  C   UNL     1      -8.921   9.819  68.359  1.00  0.00    -0.123 A  
HETATM    9  C   UNL     1      -9.202   8.661  67.612  1.00  0.00    -0.134 A  
HETATM   10  C   UNL     1      -9.334  11.189  66.393  1.00  0.00    -0.188 A  
HETATM   11  C   UNL     1      -9.630  10.026  65.654  1.00  0.00    -0.252 A  
HETATM   12  N   UNL     1      -9.561  12.370  65.784  1.00  0.00    -0.204 NA 
HETATM   13  C   UNL     1      -9.520   8.776  66.261  1.00  0.00    -0.300 A  
BRANCH   8  14
HETATM   14  O   UNL     1      -8.827   9.630  69.724  1.00  0.00    -0.176 OA 
BRANCH  14  15
HETATM   15  C   UNL     1      -9.906   9.336  70.534  1.00  0.00    -0.253 A  
HETATM   16  C   UNL     1     -10.917  10.304  70.478  1.00  0.00    -0.343 A  
HETATM   17  C   UNL     1     -12.186  10.037  70.987  1.00  0.00    -0.462 A  
HETATM   18  F   UNL     1     -11.293   5.479  71.299  1.00  0.00    -0.278 F  
HETATM   19  F   UNL     1     -13.093   6.199  72.266  1.00  0.00    -0.284 F  
HETATM   20  C   UNL     1     -12.455   8.791  71.546  1.00  0.00    -0.374 A  
HETATM   21  C   UNL     1     -10.129   8.156  71.248  1.00  0.00    -0.240 A  
HETATM   22  C   UNL     1     -11.755   6.436  72.152  1.00  0.00    -0.321 C  
HETATM   23  F   UNL     1     -11.218   6.149  73.368  1.00  0.00    -0.251 F  
HETATM   24  C   UNL     1     -11.435   7.834  71.675  1.00  0.00    -0.299 A  
ENDBRANCH  14  15
ENDBRANCH   8  14
BRANCH   9  25
HETATM   25  O   UNL     1      -9.276   7.366  68.059  1.00  0.00    -0.133 OA 
HETATM   26  C   UNL     1      -8.058   6.698  68.363  1.00  0.00    -0.115 C  
ENDBRANCH   9  25
BRANCH  11  27
HETATM   27  N   UNL     1     -10.102  10.161  64.330  1.00  0.00    -0.449 NA 
HETATM   28  H   UNL     1     -11.082  10.394  64.173  1.00  0.00     0.000 HD 
BRANCH  27  29
HETATM   29  C   UNL     1      -9.221   9.973  63.176  1.00  0.00    -0.283 C  
HETATM   30  C   UNL     1      -9.158  11.302  62.419  1.00  0.00    -0.217 C  
BRANCH  29  31
HETATM   31  C   UNL     1      -7.804   9.573  63.629  1.00  0.00    -0.132 C  
BRANCH  31  32
HETATM   32  C   UNL     1      -7.120   8.511  62.760  1.00  0.00    -0.091 C  
BRANCH  32  33
HETATM   33  C   UNL     1      -7.870   7.182  62.626  1.00  0.00    -0.135 C  
HETATM   34  N   UNL     1      -8.255   6.630  63.927  1.00  0.00    -0.318 NA 
HETATM   35  H1  UNL     1      -8.754   5.745  63.839  1.00  0.00     0.000 HD 
HETATM   36  H2  UNL     1      -8.794   7.305  64.469  1.00  0.00     0.000 HD 
ENDBRANCH  32  33
ENDBRANCH  31  32
ENDBRANCH  29  31
ENDBRANCH  27  29
ENDBRANCH  11  27
ENDBRANCH   2   3
TORSDOF 9
ENDMDL
MODEL      170
REMARK 921   NORMALIZED FREE ENERGY PREDICTED BY IDOCK:   -5.05 KCAL/MOL
REMARK 922        TOTAL FREE ENERGY PREDICTED BY IDOCK:   -8.68 KCAL/MOL
REMARK 923 INTER-LIGAND FREE ENERGY PREDICTED BY IDOCK:   -7.56 KCAL/MOL
REMARK 924 INTRA-LIGAND FREE ENERGY PREDICTED BY IDOCK:   -1.12 KCAL/MOL
REMARK 927      BINDING AFFINITY PREDICTED BY RF-SCORE:    0.00 PKD
ROOT
HETATM    1  C   UNL     1      -5.265  10.281  69.874  1.00  0.00    -0.038 C  
HETATM    2  O   UNL     1      -6.683  10.388  69.784  1.00  0.00    -0.083 OA 
ENDROOT
BRANCH   2   3
HETATM    3  C   UNL     1      -7.096  11.584  69.239  1.00  0.00    -0.077 A  
HETATM    4  C   UNL     1      -6.400  12.708  69.609  1.00  0.00    -0.095 A  
HETATM    5  C   UNL     1      -6.739  13.928  69.013  1.00  0.00    -0.110 A  
HETATM    6  C   UNL     1      -7.677  13.947  67.931  1.00  0.00    -0.161 A  
HETATM    7  C   UNL     1      -6.189  15.177  69.650  1.00  0.00    -0.135 C  
HETATM    8  C   UNL     1      -7.908  14.991  66.970  1.00  0.00    -0.129 A  
HETATM    9  C   UNL     1      -9.094  15.005  66.213  1.00  0.00    -0.253 A  
HETATM   10  C   UNL     1      -8.471  12.779  67.810  1.00  0.00    -0.177 A  
HETATM   11  C   UNL     1      -9.650  12.794  67.038  1.00  0.00    -0.229 A  
HETATM   12  N   UNL     1      -8.168  11.623  68.434  1.00  0.00    -0.151 NA 
HETATM   13  C   UNL     1      -9.966  13.922  66.282  1.00  0.00    -0.315 A  
BRANCH   8  14
HETATM   14  O   UNL     1      -7.011  15.999  66.678  1.00  0.00    -0.216 OA 
BRANCH  14  15
HETATM   15  C   UNL     1      -7.229  17.329  66.977  1.00  0.00    -0.183 A  
HETATM   16  C   UNL     1      -6.365  18.196  66.295  1.00  0.00    -0.249 A  
HETATM   17  C   UNL     1      -6.626  19.564  66.243  1.00  0.00    -0.208 A  
HETATM   18  F   UNL     1     -10.968  18.973  67.811  1.00  0.00    -0.460 F  
HETATM   19  F   UNL     1     -10.217  21.003  67.733  1.00  0.00    -0.429 F  
HETATM   20  C   UNL     1      -7.764  20.072  66.863  1.00  0.00    -0.327 A  
HETATM   21  C   UNL     1      -8.269  17.864  67.741  1.00  0.00    -0.233 A  
HETATM   22  C   UNL     1      -9.907  19.749  68.169  1.00  0.00    -0.424 C  
HETATM   23  F   UNL     1      -9.924  19.809  69.527  1.00  0.00    -0.477 F  
HETATM   24  C   UNL     1      -8.602  19.229  67.611  1.00  0.00    -0.332 A  
ENDBRANCH  14  15
ENDBRANCH   8  14
BRANCH   9  25
HETATM   25  O   UNL     1      -9.509  15.957  65.317  1.00  0.00    -0.306 OA 
HETATM   26  C   UNL     1     -10.856  15.900  64.864  1.00  0.00    -0.400 C  
ENDBRANCH   9  25
BRANCH  11  27
HETATM   27  N   UNL     1     -10.450  11.631  66.991  1.00  0.00    -0.216 NA 
HETATM   28  H   UNL     1     -10.774  11.216  67.864  1.00  0.00     0.000 HD 
BRANCH  27  29
HETATM   29  C   UNL     1     -10.826  11.006  65.722  1.00  0.00    -0.097 C  
HETATM   30  C   UNL     1     -11.749  11.978  64.981  1.00  0.00    -0.316 C  
BRANCH  29  31
HETATM   31  C   UNL     1      -9.581  10.724  64.861  1.00  0.00    -0.307 C  
BRANCH  31  32
HETATM   32  C   UNL     1      -8.986   9.320  65.020  1.00  0.00    -0.245 C  
BRANCH  32  33
HETATM   33  C   UNL     1      -7.581   9.260  65.626  1.00  0.00    -0.094 C  
HETATM   34  N   UNL     1      -7.613   9.088  67.080  1.00  0.00    -0.091 NA 
HETATM   35  H1  UNL     1      -6.677   9.048  67.485  1.00  0.00     0.000 HD 
HETATM   36  H2  UNL     1      -8.163   8.271  67.343  1.00  0.00     0.000 HD 
ENDBRANCH  32  33
ENDBRANCH  31  32
ENDBRANCH  29  31
ENDBRANCH  27  29
ENDBRANCH  11  27
ENDBRANCH   2   3
TORSDOF 9
ENDMDL
MODEL      171
REMARK 921   NORMALIZED FREE ENERGY PREDICTED BY IDOCK:   -5.03 KCAL/MOL
REMARK 922        TOTAL FREE ENERGY PREDICTED BY IDOCK:   -8.64 KCAL/MOL
REMARK 923 INTER-LIGAND FREE ENERGY PREDICTED BY IDOCK:   -8.22 KCAL/MOL
REMARK 924 INTRA-LIGAND FREE ENERGY PREDICTED BY IDOCK:   -0.42 KCAL/MOL
REMARK 927      BINDING AFFINITY PREDICTED BY RF-SCORE:    0.00 PKD
ROOT
HETATM    1  C   UNL     1      -9.395   7.495  71.116  1.00  0.00    -0.151 C  
HETATM    2  O   UNL     1      -8.677   8.501  70.407  1.00  0.00    -0.136 OA 
ENDROOT
BRANCH   2   3
HETATM    3  C   UNL     1      -9.483   9.250  69.578  1.00  0.00    -0.173 A  
HETATM    4  C   UNL     1     -10.398  10.076  70.182  1.00  0.00    -0.321 A  
HETATM    5  C   UNL     1     -11.177  10.911  69.373  1.00  0.00    -0.335 A  
HETATM    6  C   UNL     1     -10.894  11.000  67.972  1.00  0.00    -0.278 A  
HETATM    7  C   UNL     1     -12.372  11.567  70.016  1.00  0.00    -0.287 C  
HETATM    8  C   UNL     1     -11.312  12.012  67.040  1.00  0.00    -0.336 A  
HETATM    9  C   UNL     1     -11.259  11.764  65.656  1.00  0.00    -0.267 A  
HETATM   10  C   UNL     1     -10.098   9.947  67.457  1.00  0.00    -0.197 A  
HETATM   11  C   UNL     1     -10.034   9.712  66.068  1.00  0.00    -0.274 A  
HETATM   12  N   UNL     1      -9.394   9.111  68.247  1.00  0.00    -0.135 NA 
HETATM   13  C   UNL     1     -10.651  10.602  65.190  1.00  0.00    -0.190 A  
BRANCH   8  14
HETATM   14  O   UNL     1     -11.739  13.276  67.396  1.00  0.00    -0.333 OA 
BRANCH  14  15
HETATM   15  C   UNL     1     -10.891  14.351  67.571  1.00  0.00    -0.282 A  
HETATM   16  C   UNL     1      -9.602  13.976  67.972  1.00  0.00    -0.217 A  
HETATM   17  C   UNL     1      -8.546  14.882  67.911  1.00  0.00    -0.160 A  
HETATM   18  F   UNL     1     -11.006  17.837  65.288  1.00  0.00    -0.412 F  
HETATM   19  F   UNL     1      -9.138  18.567  66.106  1.00  0.00    -0.298 F  
HETATM   20  C   UNL     1      -8.771  16.170  67.433  1.00  0.00    -0.194 A  
HETATM   21  C   UNL     1     -11.146  15.688  67.258  1.00  0.00    -0.238 A  
HETATM   22  C   UNL     1     -10.296  17.933  66.447  1.00  0.00    -0.365 C  
HETATM   23  F   UNL     1     -10.980  18.800  67.239  1.00  0.00    -0.472 F  
HETATM   24  C   UNL     1     -10.069  16.585  67.094  1.00  0.00    -0.274 A  
ENDBRANCH  14  15
ENDBRANCH   8  14
BRANCH   9  25
HETATM   25  O   UNL     1     -11.687  12.577  64.638  1.00  0.00    -0.329 OA 
HETATM   26  C   UNL     1     -12.251  11.961  63.488  1.00  0.00    -0.482 C  
ENDBRANCH   9  25
BRANCH  11  27
HETATM   27  N   UNL     1      -9.282   8.615  65.595  1.00  0.00    -0.374 NA 
HETATM   28  H   UNL     1      -9.359   7.717  66.072  1.00  0.00     0.000 HD 
BRANCH  27  29
HETATM   29  C   UNL     1      -8.394   8.733  64.437  1.00  0.00    -0.157 C  
HETATM   30  C   UNL     1      -9.034   9.723  63.460  1.00  0.00    -0.272 C  
BRANCH  29  31
HETATM   31  C   UNL     1      -7.008   9.253  64.861  1.00  0.00    -0.090 C  
BRANCH  31  32
HETATM   32  C   UNL     1      -7.008  10.634  65.526  1.00  0.00    -0.050 C  
BRANCH  32  33
HETATM   33  C   UNL     1      -5.990  10.826  66.655  1.00  0.00    -0.089 C  
HETATM   34  N   UNL     1      -6.324  10.036  67.842  1.00  0.00    -0.058 NA 
HETATM   35  H1  UNL     1      -5.646  10.163  68.593  1.00  0.00     0.000 HD 
HETATM   36  H2  UNL     1      -6.435   9.049  67.609  1.00  0.00     0.000 HD 
ENDBRANCH  32  33
ENDBRANCH  31  32
ENDBRANCH  29  31
ENDBRANCH  27  29
ENDBRANCH  11  27
ENDBRANCH   2   3
TORSDOF 9
ENDMDL
MODEL      172
REMARK 921   NORMALIZED FREE ENERGY PREDICTED BY IDOCK:   -5.02 KCAL/MOL
REMARK 922        TOTAL FREE ENERGY PREDICTED BY IDOCK:   -8.63 KCAL/MOL
REMARK 923 INTER-LIGAND FREE ENERGY PREDICTED BY IDOCK:   -7.06 KCAL/MOL
REMARK 924 INTRA-LIGAND FREE ENERGY PREDICTED BY IDOCK:   -1.57 KCAL/MOL
REMARK 927      BINDING AFFINITY PREDICTED BY RF-SCORE:    0.00 PKD
ROOT
HETATM    1  C   UNL     1      -7.491   9.964  64.499  1.00  0.00    -0.140 C  
HETATM    2  O   UNL     1      -8.817  10.470  64.379  1.00  0.00    -0.187 OA 
ENDROOT
BRANCH   2   3
HETATM    3  C   UNL     1      -9.592  10.209  65.489  1.00  0.00    -0.250 A  
HETATM    4  C   UNL     1      -9.756   8.891  65.834  1.00  0.00    -0.259 A  
HETATM    5  C   UNL     1     -10.468   8.593  67.002  1.00  0.00    -0.354 A  
HETATM    6  C   UNL     1     -10.861   9.655  67.879  1.00  0.00    -0.272 A  
HETATM    7  C   UNL     1     -10.902   7.163  67.193  1.00  0.00    -0.403 C  
HETATM    8  C   UNL     1     -11.276   9.570  69.253  1.00  0.00    -0.000 A  
HETATM    9  C   UNL     1     -11.967  10.639  69.850  1.00  0.00    -0.310 A  
HETATM   10  C   UNL     1     -10.832  10.948  67.299  1.00  0.00    -0.287 A  
HETATM   11  C   UNL     1     -11.512  12.021  67.910  1.00  0.00    -0.330 A  
HETATM   12  N   UNL     1     -10.190  11.215  66.143  1.00  0.00    -0.237 NA 
HETATM   13  C   UNL     1     -12.105  11.840  69.158  1.00  0.00    -0.290 A  
BRANCH   8  14
HETATM   14  O   UNL     1     -11.005   8.503  70.087  1.00  0.00    -0.241 OA 
BRANCH  14  15
HETATM   15  C   UNL     1      -9.730   8.076  70.397  1.00  0.00    -0.178 A  
HETATM   16  C   UNL     1      -9.076   8.909  71.315  1.00  0.00    -0.323 A  
HETATM   17  C   UNL     1      -7.917   8.485  71.960  1.00  0.00    -0.160 A  
HETATM   18  F   UNL     1      -8.576   4.076  70.620  1.00  0.00    -0.075 F  
HETATM   19  F   UNL     1      -6.654   4.564  71.494  1.00  0.00    -0.025 F  
HETATM   20  C   UNL     1      -7.411   7.215  71.701  1.00  0.00    -0.085 A  
HETATM   21  C   UNL     1      -9.123   6.878  70.011  1.00  0.00    -0.145 A  
HETATM   22  C   UNL     1      -7.548   4.967  70.546  1.00  0.00    -0.070 C  
HETATM   23  F   UNL     1      -6.946   4.750  69.346  1.00  0.00    -0.045 F  
HETATM   24  C   UNL     1      -8.010   6.394  70.731  1.00  0.00    -0.111 A  
ENDBRANCH  14  15
ENDBRANCH   8  14
BRANCH   9  25
HETATM   25  O   UNL     1     -12.499  10.697  71.113  1.00  0.00    -0.348 OA 
HETATM   26  C   UNL     1     -13.098  11.919  71.526  1.00  0.00    -0.275 C  
ENDBRANCH   9  25
BRANCH  11  27
HETATM   27  N   UNL     1     -11.514  13.280  67.271  1.00  0.00    -0.320 NA 
HETATM   28  H   UNL     1     -12.154  13.441  66.493  1.00  0.00     0.000 HD 
BRANCH  27  29
HETATM   29  C   UNL     1     -10.622  14.360  67.697  1.00  0.00    -0.260 C  
HETATM   30  C   UNL     1     -11.421  15.285  68.619  1.00  0.00    -0.350 C  
BRANCH  29  31
HETATM   31  C   UNL     1      -9.407  13.799  68.459  1.00  0.00    -0.144 C  
BRANCH  31  32
HETATM   32  C   UNL     1      -8.144  13.603  67.612  1.00  0.00    -0.179 C  
BRANCH  32  33
HETATM   33  C   UNL     1      -7.273  12.401  67.991  1.00  0.00    -0.105 C  
HETATM   34  N   UNL     1      -7.948  11.502  68.929  1.00  0.00    -0.306 NA 
HETATM   35  H1  UNL     1      -7.368  10.702  69.181  1.00  0.00     0.000 HD 
HETATM   36  H2  UNL     1      -8.852  11.202  68.566  1.00  0.00     0.000 HD 
ENDBRANCH  32  33
ENDBRANCH  31  32
ENDBRANCH  29  31
ENDBRANCH  27  29
ENDBRANCH  11  27
ENDBRANCH   2   3
TORSDOF 9
ENDMDL
MODEL      173
REMARK 921   NORMALIZED FREE ENERGY PREDICTED BY IDOCK:   -5.02 KCAL/MOL
REMARK 922        TOTAL FREE ENERGY PREDICTED BY IDOCK:   -8.63 KCAL/MOL
REMARK 923 INTER-LIGAND FREE ENERGY PREDICTED BY IDOCK:   -7.66 KCAL/MOL
REMARK 924 INTRA-LIGAND FREE ENERGY PREDICTED BY IDOCK:   -0.97 KCAL/MOL
REMARK 927      BINDING AFFINITY PREDICTED BY RF-SCORE:    0.00 PKD
ROOT
HETATM    1  C   UNL     1     -10.336  11.195  63.120  1.00  0.00    -0.247 C  
HETATM    2  O   UNL     1     -10.606  10.986  64.503  1.00  0.00    -0.343 OA 
ENDROOT
BRANCH   2   3
HETATM    3  C   UNL     1     -10.067  11.966  65.307  1.00  0.00    -0.257 A  
HETATM    4  C   UNL     1     -10.599  13.226  65.191  1.00  0.00    -0.342 A  
HETATM    5  C   UNL     1     -10.131  14.228  66.050  1.00  0.00    -0.333 A  
HETATM    6  C   UNL     1      -9.244  13.883  67.119  1.00  0.00    -0.242 A  
HETATM    7  C   UNL     1     -10.492  15.649  65.703  1.00  0.00    -0.402 C  
HETATM    8  C   UNL     1      -8.921  14.648  68.293  1.00  0.00    -0.184 A  
HETATM    9  C   UNL     1      -7.775  14.337  69.046  1.00  0.00    -0.065 A  
HETATM   10  C   UNL     1      -8.610  12.622  66.983  1.00  0.00    -0.181 A  
HETATM   11  C   UNL     1      -7.472  12.308  67.753  1.00  0.00    -0.126 A  
HETATM   12  N   UNL     1      -9.033  11.683  66.113  1.00  0.00    -0.203 NA 
HETATM   13  C   UNL     1      -7.046  13.189  68.746  1.00  0.00    -0.098 A  
BRANCH   8  14
HETATM   14  O   UNL     1      -9.694  15.677  68.793  1.00  0.00    -0.195 OA 
BRANCH  14  15
HETATM   15  C   UNL     1     -10.876  15.485  69.479  1.00  0.00    -0.267 A  
HETATM   16  C   UNL     1     -11.785  14.667  68.794  1.00  0.00    -0.357 A  
HETATM   17  C   UNL     1     -12.890  14.128  69.448  1.00  0.00     0.558 A  
HETATM   18  F   UNL     1     -11.177  15.242  73.630  1.00  0.00    -0.211 F  
HETATM   19  F   UNL     1     -13.240  14.585  73.553  1.00  0.00    -0.564 F  
HETATM   20  C   UNL     1     -13.087  14.394  70.800  1.00  0.00    -0.344 A  
HETATM   21  C   UNL     1     -11.171  15.888  70.784  1.00  0.00    -0.398 A  
HETATM   22  C   UNL     1     -12.356  15.451  72.980  1.00  0.00    -0.425 C  
HETATM   23  F   UNL     1     -12.767  16.698  73.335  1.00  0.00    -0.454 F  
HETATM   24  C   UNL     1     -12.228  15.269  71.485  1.00  0.00    -0.416 A  
ENDBRANCH  14  15
ENDBRANCH   8  14
BRANCH   9  25
HETATM   25  O   UNL     1      -7.279  15.002  70.138  1.00  0.00    -0.113 OA 
HETATM   26  C   UNL     1      -6.002  14.615  70.629  1.00  0.00    -0.164 C  
ENDBRANCH   9  25
BRANCH  11  27
HETATM   27  N   UNL     1      -6.829  11.068  67.546  1.00  0.00    -0.081 NA 
HETATM   28  H   UNL     1      -6.172  10.972  66.772  1.00  0.00     0.000 HD 
BRANCH  27  29
HETATM   29  C   UNL     1      -7.081   9.917  68.414  1.00  0.00    -0.072 C  
HETATM   30  C   UNL     1      -5.762   9.556  69.102  1.00  0.00    -0.035 C  
BRANCH  29  31
HETATM   31  C   UNL     1      -8.140  10.256  69.479  1.00  0.00    -0.170 C  
BRANCH  31  32
HETATM   32  C   UNL     1      -9.488   9.546  69.304  1.00  0.00    -0.171 C  
BRANCH  32  33
HETATM   33  C   UNL     1     -10.491   9.737  70.446  1.00  0.00    -0.297 C  
HETATM   34  N   UNL     1     -11.878   9.636  69.988  1.00  0.00    -0.457 NA 
HETATM   35  H1  UNL     1     -12.546   9.763  70.748  1.00  0.00     0.000 HD 
HETATM   36  H2  UNL     1     -12.041   8.758  69.496  1.00  0.00     0.000 HD 
ENDBRANCH  32  33
ENDBRANCH  31  32
ENDBRANCH  29  31
ENDBRANCH  27  29
ENDBRANCH  11  27
ENDBRANCH   2   3
TORSDOF 9
ENDMDL
MODEL      174
REMARK 921   NORMALIZED FREE ENERGY PREDICTED BY IDOCK:   -5.02 KCAL/MOL
REMARK 922        TOTAL FREE ENERGY PREDICTED BY IDOCK:   -8.63 KCAL/MOL
REMARK 923 INTER-LIGAND FREE ENERGY PREDICTED BY IDOCK:   -7.52 KCAL/MOL
REMARK 924 INTRA-LIGAND FREE ENERGY PREDICTED BY IDOCK:   -1.11 KCAL/MOL
REMARK 927      BINDING AFFINITY PREDICTED BY RF-SCORE:    0.00 PKD
ROOT
HETATM    1  C   UNL     1     -13.518  15.119  71.397  1.00  0.00    -0.481 C  
HETATM    2  O   UNL     1     -12.625  15.240  70.293  1.00  0.00    -0.370 OA 
ENDROOT
BRANCH   2   3
HETATM    3  C   UNL     1     -12.001  14.053  69.978  1.00  0.00    -0.339 A  
HETATM    4  C   UNL     1     -12.500  12.915  70.562  1.00  0.00    -0.294 A  
HETATM    5  C   UNL     1     -11.942  11.683  70.202  1.00  0.00    -0.441 A  
HETATM    6  C   UNL     1     -10.993  11.624  69.131  1.00  0.00    -0.270 A  
HETATM    7  C   UNL     1     -12.281  10.499  71.070  1.00  0.00    -0.505 C  
HETATM    8  C   UNL     1     -10.566  10.475  68.381  1.00  0.00    -0.199 A  
HETATM    9  C   UNL     1      -9.380  10.524  67.626  1.00  0.00    -0.149 A  
HETATM   10  C   UNL     1     -10.410  12.868  68.783  1.00  0.00    -0.125 A  
HETATM   11  C   UNL     1      -9.231  12.914  68.012  1.00  0.00    -0.212 A  
HETATM   12  N   UNL     1     -10.922  14.050  69.181  1.00  0.00    -0.245 NA 
HETATM   13  C   UNL     1      -8.710  11.736  67.479  1.00  0.00    -0.159 A  
BRANCH   8  14
HETATM   14  O   UNL     1     -11.269   9.289  68.296  1.00  0.00     0.033 OA 
BRANCH  14  15
HETATM   15  C   UNL     1     -10.775   8.073  68.723  1.00  0.00    -0.045 A  
HETATM   16  C   UNL     1     -10.915   7.055  67.770  1.00  0.00    -0.234 A  
HETATM   17  C   UNL     1     -10.221   5.855  67.904  1.00  0.00    -0.225 A  
HETATM   18  F   UNL     1      -7.460   7.620  71.210  1.00  0.00    -0.073 F  
HETATM   19  F   UNL     1      -7.383   5.476  70.902  1.00  0.00    -0.071 F  
HETATM   20  C   UNL     1      -9.369   5.670  68.989  1.00  0.00    -0.150 A  
HETATM   21  C   UNL     1     -10.058   7.816  69.894  1.00  0.00    -0.203 A  
HETATM   22  C   UNL     1      -8.248   6.513  71.095  1.00  0.00    -0.121 C  
HETATM   23  F   UNL     1      -8.803   6.316  72.320  1.00  0.00    -0.135 F  
HETATM   24  C   UNL     1      -9.271   6.649  69.991  1.00  0.00    -0.158 A  
ENDBRANCH  14  15
ENDBRANCH   8  14
BRANCH   9  25
HETATM   25  O   UNL     1      -8.788   9.508  66.919  1.00  0.00    -0.126 OA 
HETATM   26  C   UNL     1      -7.534   9.021  67.380  1.00  0.00    -0.085 C  
ENDBRANCH   9  25
BRANCH  11  27
HETATM   27  N   UNL     1      -8.643  14.168  67.737  1.00  0.00    -0.172 NA 
HETATM   28  H   UNL     1      -7.879  14.498  68.326  1.00  0.00     0.000 HD 
BRANCH  27  29
HETATM   29  C   UNL     1      -9.103  15.007  66.629  1.00  0.00    -0.280 C  
HETATM   30  C   UNL     1      -8.020  16.055  66.360  1.00  0.00    -0.197 C  
BRANCH  29  31
HETATM   31  C   UNL     1      -9.327  14.163  65.360  1.00  0.00     0.441 C  
BRANCH  31  32
HETATM   32  C   UNL     1     -10.643  14.436  64.623  1.00  0.00    -0.331 C  
BRANCH  32  33
HETATM   33  C   UNL     1     -11.354  15.740  64.998  1.00  0.00    -0.220 C  
HETATM   34  N   UNL     1     -11.872  16.445  63.824  1.00  0.00    -1.377 NA 
HETATM   35  H1  UNL     1     -12.346  17.313  64.073  1.00  0.00     0.000 HD 
HETATM   36  H2  UNL     1     -12.477  15.842  63.268  1.00  0.00     0.000 HD 
ENDBRANCH  32  33
ENDBRANCH  31  32
ENDBRANCH  29  31
ENDBRANCH  27  29
ENDBRANCH  11  27
ENDBRANCH   2   3
TORSDOF 9
ENDMDL
MODEL      175
REMARK 921   NORMALIZED FREE ENERGY PREDICTED BY IDOCK:   -5.00 KCAL/MOL
REMARK 922        TOTAL FREE ENERGY PREDICTED BY IDOCK:   -8.60 KCAL/MOL
REMARK 923 INTER-LIGAND FREE ENERGY PREDICTED BY IDOCK:   -7.26 KCAL/MOL
REMARK 924 INTRA-LIGAND FREE ENERGY PREDICTED BY IDOCK:   -1.34 KCAL/MOL
REMARK 927      BINDING AFFINITY PREDICTED BY RF-SCORE:    0.00 PKD
ROOT
HETATM    1  C   UNL     1     -13.308  14.627  71.274  1.00  0.00    -0.383 C  
HETATM    2  O   UNL     1     -13.826  13.345  71.619  1.00  0.00    -0.245 OA 
ENDROOT
BRANCH   2   3
HETATM    3  C   UNL     1     -12.981  12.315  71.269  1.00  0.00    -0.204 A  
HETATM    4  C   UNL     1     -13.201  11.100  71.870  1.00  0.00    -0.488 A  
HETATM    5  C   UNL     1     -12.413  10.012  71.478  1.00  0.00    -0.516 A  
HETATM    6  C   UNL     1     -11.525  10.149  70.363  1.00  0.00    -0.400 A  
HETATM    7  C   UNL     1     -12.453   8.787  72.355  1.00  0.00    -0.421 C  
HETATM    8  C   UNL     1     -10.901   9.111  69.587  1.00  0.00    -0.197 A  
HETATM    9  C   UNL     1      -9.790   9.406  68.777  1.00  0.00    -0.163 A  
HETATM   10  C   UNL     1     -11.235  11.486  69.993  1.00  0.00    -0.026 A  
HETATM   11  C   UNL     1     -10.131  11.775  69.167  1.00  0.00     0.126 A  
HETATM   12  N   UNL     1     -11.965  12.536  70.421  1.00  0.00    -0.313 NA 
HETATM   13  C   UNL     1      -9.398  10.731  68.604  1.00  0.00    -0.184 A  
BRANCH   8  14
HETATM   14  O   UNL     1     -11.342   7.804  69.530  1.00  0.00     0.018 OA 
BRANCH  14  15
HETATM   15  C   UNL     1     -10.672   6.743  70.106  1.00  0.00    -0.233 A  
HETATM   16  C   UNL     1     -10.662   5.595  69.302  1.00  0.00    -0.350 A  
HETATM   17  C   UNL     1      -9.797   4.540  69.580  1.00  0.00    -0.288 A  
HETATM   18  F   UNL     1      -7.319   7.126  72.553  1.00  0.00    -0.077 F  
HETATM   19  F   UNL     1      -6.925   4.995  72.535  1.00  0.00    -0.064 F  
HETATM   20  C   UNL     1      -8.923   4.632  70.660  1.00  0.00    -0.162 A  
HETATM   21  C   UNL     1      -9.921   6.757  71.284  1.00  0.00    -0.189 A  
HETATM   22  C   UNL     1      -7.933   5.911  72.606  1.00  0.00    -0.105 C  
HETATM   23  F   UNL     1      -8.449   5.803  73.859  1.00  0.00    -0.117 F  
HETATM   24  C   UNL     1      -8.969   5.743  71.518  1.00  0.00    -0.146 A  
ENDBRANCH  14  15
ENDBRANCH   8  14
BRANCH   9  25
HETATM   25  O   UNL     1      -9.032   8.534  68.038  1.00  0.00    -0.140 OA 
HETATM   26  C   UNL     1      -9.280   8.457  66.640  1.00  0.00    -0.180 C  
ENDBRANCH   9  25
BRANCH  11  27
HETATM   27  N   UNL     1      -9.834  13.123  68.871  1.00  0.00    -0.418 NA 
HETATM   28  H   UNL     1      -9.388  13.702  69.583  1.00  0.00     0.000 HD 
BRANCH  27  29
HETATM   29  C   UNL     1     -10.151  13.713  67.569  1.00  0.00    -0.237 C  
HETATM   30  C   UNL     1     -11.362  14.630  67.757  1.00  0.00    -0.338 C  
BRANCH  29  31
HETATM   31  C   UNL     1      -8.962  14.535  67.036  1.00  0.00    -0.258 C  
BRANCH  31  32
HETATM   32  C   UNL     1      -7.739  14.582  67.959  1.00  0.00    -0.138 C  
BRANCH  32  33
HETATM   33  C   UNL     1      -6.559  15.417  67.453  1.00  0.00    -0.116 C  
HETATM   34  N   UNL     1      -5.316  14.644  67.404  1.00  0.00    -0.303 NA 
HETATM   35  H1  UNL     1      -4.530  15.200  67.067  1.00  0.00     0.000 HD 
HETATM   36  H2  UNL     1      -5.431  13.795  66.851  1.00  0.00     0.000 HD 
ENDBRANCH  32  33
ENDBRANCH  31  32
ENDBRANCH  29  31
ENDBRANCH  27  29
ENDBRANCH  11  27
ENDBRANCH   2   3
TORSDOF 9
ENDMDL
MODEL      176
REMARK 921   NORMALIZED FREE ENERGY PREDICTED BY IDOCK:   -4.98 KCAL/MOL
REMARK 922        TOTAL FREE ENERGY PREDICTED BY IDOCK:   -8.58 KCAL/MOL
REMARK 923 INTER-LIGAND FREE ENERGY PREDICTED BY IDOCK:   -7.89 KCAL/MOL
REMARK 924 INTRA-LIGAND FREE ENERGY PREDICTED BY IDOCK:   -0.69 KCAL/MOL
REMARK 927      BINDING AFFINITY PREDICTED BY RF-SCORE:    0.00 PKD
ROOT
HETATM    1  C   UNL     1     -12.867  13.591  72.534  1.00  0.00    -0.145 C  
HETATM    2  O   UNL     1     -13.513  12.868  71.490  1.00  0.00    -0.259 OA 
ENDROOT
BRANCH   2   3
HETATM    3  C   UNL     1     -12.700  11.914  70.917  1.00  0.00    -0.209 A  
HETATM    4  C   UNL     1     -12.348  10.845  71.704  1.00  0.00    -0.247 A  
HETATM    5  C   UNL     1     -11.591   9.818  71.130  1.00  0.00    -0.469 A  
HETATM    6  C   UNL     1     -11.344   9.826  69.720  1.00  0.00    -0.201 A  
HETATM    7  C   UNL     1     -10.959   8.826  72.072  1.00  0.00    -0.438 C  
HETATM    8  C   UNL     1     -10.910   8.740  68.884  1.00  0.00    -0.008 A  
HETATM    9  C   UNL     1     -10.371   8.999  67.611  1.00  0.00    -0.257 A  
HETATM   10  C   UNL     1     -11.561  11.074  69.084  1.00  0.00    -0.319 A  
HETATM   11  C   UNL     1     -11.033  11.324  67.802  1.00  0.00    -0.252 A  
HETATM   12  N   UNL     1     -12.244  12.081  69.667  1.00  0.00    -0.194 NA 
HETATM   13  C   UNL     1     -10.409  10.294  67.100  1.00  0.00    -0.292 A  
BRANCH   8  14
HETATM   14  O   UNL     1     -11.020   7.404  69.216  1.00  0.00    -0.180 OA 
BRANCH  14  15
HETATM   15  C   UNL     1     -10.008   6.676  69.809  1.00  0.00    -0.173 A  
HETATM   16  C   UNL     1      -8.779   7.348  69.821  1.00  0.00    -0.141 A  
HETATM   17  C   UNL     1      -7.732   6.903  70.626  1.00  0.00    -0.096 A  
HETATM   18  F   UNL     1     -10.549   4.078  73.025  1.00  0.00    -0.206 F  
HETATM   19  F   UNL     1      -8.418   3.841  73.335  1.00  0.00    -0.084 F  
HETATM   20  C   UNL     1      -7.915   5.787  71.437  1.00  0.00    -0.113 A  
HETATM   21  C   UNL     1     -10.128   5.461  70.489  1.00  0.00    -0.306 A  
HETATM   22  C   UNL     1      -9.368   3.932  72.361  1.00  0.00    -0.119 C  
HETATM   23  F   UNL     1      -9.417   2.710  71.768  1.00  0.00    -0.149 F  
HETATM   24  C   UNL     1      -9.115   5.059  71.385  1.00  0.00    -0.174 A  
ENDBRANCH  14  15
ENDBRANCH   8  14
BRANCH   9  25
HETATM   25  O   UNL     1      -9.841   8.100  66.721  1.00  0.00    -0.214 OA 
HETATM   26  C   UNL     1      -8.913   8.585  65.759  1.00  0.00    -0.182 C  
ENDBRANCH   9  25
BRANCH  11  27
HETATM   27  N   UNL     1     -11.214  12.601  67.226  1.00  0.00    -0.282 NA 
HETATM   28  H   UNL     1     -11.944  12.731  66.526  1.00  0.00     0.000 HD 
BRANCH  27  29
HETATM   29  C   UNL     1     -10.380  13.742  67.607  1.00  0.00    -0.239 C  
HETATM   30  C   UNL     1      -9.004  13.547  66.964  1.00  0.00    -0.237 C  
BRANCH  29  31
HETATM   31  C   UNL     1     -10.997  15.062  67.109  1.00  0.00    -0.329 C  
BRANCH  31  32
HETATM   32  C   UNL     1     -11.092  15.200  65.585  1.00  0.00    -0.334 C  
BRANCH  32  33
HETATM   33  C   UNL     1     -12.166  14.344  64.908  1.00  0.00    -0.433 C  
HETATM   34  N   UNL     1     -13.395  14.268  65.701  1.00  0.00    -0.611 NA 
HETATM   35  H1  UNL     1     -14.111  13.698  65.251  1.00  0.00     0.000 HD 
HETATM   36  H2  UNL     1     -13.750  15.199  65.921  1.00  0.00     0.000 HD 
ENDBRANCH  32  33
ENDBRANCH  31  32
ENDBRANCH  29  31
ENDBRANCH  27  29
ENDBRANCH  11  27
ENDBRANCH   2   3
TORSDOF 9
ENDMDL
MODEL      177
REMARK 921   NORMALIZED FREE ENERGY PREDICTED BY IDOCK:   -4.98 KCAL/MOL
REMARK 922        TOTAL FREE ENERGY PREDICTED BY IDOCK:   -8.57 KCAL/MOL
REMARK 923 INTER-LIGAND FREE ENERGY PREDICTED BY IDOCK:   -7.19 KCAL/MOL
REMARK 924 INTRA-LIGAND FREE ENERGY PREDICTED BY IDOCK:   -1.38 KCAL/MOL
REMARK 927      BINDING AFFINITY PREDICTED BY RF-SCORE:    0.00 PKD
ROOT
HETATM    1  C   UNL     1     -12.102  14.053  66.861  1.00  0.00    -0.430 C  
HETATM    2  O   UNL     1     -12.232  12.637  66.780  1.00  0.00    -0.506 OA 
ENDROOT
BRANCH   2   3
HETATM    3  C   UNL     1     -11.539  11.978  67.772  1.00  0.00    -0.330 A  
HETATM    4  C   UNL     1     -12.280  11.455  68.803  1.00  0.00    -0.101 A  
HETATM    5  C   UNL     1     -11.619  10.710  69.786  1.00  0.00    -0.385 A  
HETATM    6  C   UNL     1     -10.237  10.379  69.610  1.00  0.00    -0.245 A  
HETATM    7  C   UNL     1     -12.382  10.417  71.052  1.00  0.00    -0.490 C  
HETATM    8  C   UNL     1      -9.469   9.368  70.286  1.00  0.00    -0.251 A  
HETATM    9  C   UNL     1      -8.063   9.415  70.263  1.00  0.00    -0.164 A  
HETATM   10  C   UNL     1      -9.556  11.158  68.642  1.00  0.00    -0.196 A  
HETATM   11  C   UNL     1      -8.147  11.189  68.612  1.00  0.00    -0.150 A  
HETATM   12  N   UNL     1     -10.200  11.919  67.733  1.00  0.00    -0.196 NA 
HETATM   13  C   UNL     1      -7.421  10.347  69.452  1.00  0.00    -0.135 A  
BRANCH   8  14
HETATM   14  O   UNL     1     -10.011   8.284  70.947  1.00  0.00    -0.185 OA 
BRANCH  14  15
HETATM   15  C   UNL     1     -10.281   7.073  70.341  1.00  0.00    -0.196 A  
HETATM   16  C   UNL     1     -10.749   7.205  69.027  1.00  0.00    -0.204 A  
HETATM   17  C   UNL     1     -10.790   6.107  68.172  1.00  0.00    -0.389 A  
HETATM   18  F   UNL     1      -8.130   3.568  71.027  1.00  0.00    -0.060 F  
HETATM   19  F   UNL     1      -9.093   2.525  69.390  1.00  0.00    -0.128 F  
HETATM   20  C   UNL     1     -10.348   4.866  68.624  1.00  0.00    -0.041 A  
HETATM   21  C   UNL     1     -10.004   5.798  70.841  1.00  0.00    -0.243 A  
HETATM   22  C   UNL     1      -9.335   3.392  70.414  1.00  0.00    -0.170 C  
HETATM   23  F   UNL     1     -10.115   2.718  71.300  1.00  0.00    -0.228 F  
HETATM   24  C   UNL     1      -9.943   4.699  69.959  1.00  0.00    -0.302 A  
ENDBRANCH  14  15
ENDBRANCH   8  14
BRANCH   9  25
HETATM   25  O   UNL     1      -7.182   8.587  70.910  1.00  0.00    -0.053 OA 
HETATM   26  C   UNL     1      -5.915   8.362  70.306  1.00  0.00    -0.028 C  
ENDBRANCH   9  25
BRANCH  11  27
HETATM   27  N   UNL     1      -7.503  12.027  67.675  1.00  0.00    -0.121 NA 
HETATM   28  H   UNL     1      -7.373  11.696  66.719  1.00  0.00     0.000 HD 
BRANCH  27  29
HETATM   29  C   UNL     1      -7.015  13.358  68.041  1.00  0.00    -0.127 C  
HETATM   30  C   UNL     1      -5.518  13.407  67.724  1.00  0.00    -0.085 C  
BRANCH  29  31
HETATM   31  C   UNL     1      -7.746  14.449  67.237  1.00  0.00    -0.164 C  
BRANCH  31  32
HETATM   32  C   UNL     1      -8.848  15.191  68.002  1.00  0.00    -0.170 C  
BRANCH  32  33
HETATM   33  C   UNL     1      -9.381  16.460  67.330  1.00  0.00    -0.221 C  
HETATM   34  N   UNL     1      -9.041  16.518  65.907  1.00  0.00    -0.496 NA 
HETATM   35  H1  UNL     1      -9.395  17.363  65.459  1.00  0.00     0.000 HD 
HETATM   36  H2  UNL     1      -9.357  15.681  65.417  1.00  0.00     0.000 HD 
ENDBRANCH  32  33
ENDBRANCH  31  32
ENDBRANCH  29  31
ENDBRANCH  27  29
ENDBRANCH  11  27
ENDBRANCH   2   3
TORSDOF 9
ENDMDL
MODEL      178
REMARK 921   NORMALIZED FREE ENERGY PREDICTED BY IDOCK:   -4.97 KCAL/MOL
REMARK 922        TOTAL FREE ENERGY PREDICTED BY IDOCK:   -8.55 KCAL/MOL
REMARK 923 INTER-LIGAND FREE ENERGY PREDICTED BY IDOCK:   -6.83 KCAL/MOL
REMARK 924 INTRA-LIGAND FREE ENERGY PREDICTED BY IDOCK:   -1.72 KCAL/MOL
REMARK 927      BINDING AFFINITY PREDICTED BY RF-SCORE:    0.00 PKD
ROOT
HETATM    1  C   UNL     1      -8.938   8.880  62.331  1.00  0.00    -0.022 C  
HETATM    2  O   UNL     1      -7.830   9.274  63.135  1.00  0.00    -0.124 OA 
ENDROOT
BRANCH   2   3
HETATM    3  C   UNL     1      -8.159   9.417  64.466  1.00  0.00    -0.136 A  
HETATM    4  C   UNL     1      -7.667  10.525  65.111  1.00  0.00    -0.062 A  
HETATM    5  C   UNL     1      -8.047  10.744  66.439  1.00  0.00    -0.153 A  
HETATM    6  C   UNL     1      -9.051   9.913  67.032  1.00  0.00    -0.156 A  
HETATM    7  C   UNL     1      -7.264  11.771  67.214  1.00  0.00    -0.142 C  
HETATM    8  C   UNL     1      -9.826  10.158  68.219  1.00  0.00    -0.145 A  
HETATM    9  C   UNL     1     -10.494   9.099  68.859  1.00  0.00    -0.218 A  
HETATM   10  C   UNL     1      -9.298   8.696  66.348  1.00  0.00    -0.211 A  
HETATM   11  C   UNL     1      -9.982   7.643  66.988  1.00  0.00    -0.240 A  
HETATM   12  N   UNL     1      -8.878   8.471  65.087  1.00  0.00    -0.127 NA 
HETATM   13  C   UNL     1     -10.535   7.846  68.251  1.00  0.00    -0.212 A  
BRANCH   8  14
HETATM   14  O   UNL     1     -10.017  11.403  68.785  1.00  0.00    -0.206 OA 
BRANCH  14  15
HETATM   15  C   UNL     1     -10.852  12.366  68.256  1.00  0.00    -0.237 A  
HETATM   16  C   UNL     1     -11.367  13.241  69.221  1.00  0.00    -0.311 A  
HETATM   17  C   UNL     1     -11.978  14.435  68.846  1.00  0.00    -0.337 A  
HETATM   18  F   UNL     1     -10.365  14.093  64.493  1.00  0.00    -0.440 F  
HETATM   19  F   UNL     1     -11.868  15.608  64.871  1.00  0.00    -0.241 F  
HETATM   20  C   UNL     1     -12.067  14.768  67.497  1.00  0.00    -0.128 A  
HETATM   21  C   UNL     1     -11.098  12.621  66.904  1.00  0.00    -0.315 A  
HETATM   22  C   UNL     1     -11.589  14.286  65.059  1.00  0.00    -0.367 C  
HETATM   23  F   UNL     1     -12.475  13.602  64.287  1.00  0.00    -0.417 F  
HETATM   24  C   UNL     1     -11.621  13.871  66.513  1.00  0.00    -0.385 A  
ENDBRANCH  14  15
ENDBRANCH   8  14
BRANCH   9  25
HETATM   25  O   UNL     1     -11.207   9.137  70.030  1.00  0.00    -0.231 OA 
HETATM   26  C   UNL     1     -11.419   7.912  70.719  1.00  0.00    -0.263 C  
ENDBRANCH   9  25
BRANCH  11  27
HETATM   27  N   UNL     1     -10.154   6.423  66.299  1.00  0.00    -0.411 NA 
HETATM   28  H   UNL     1     -10.745   6.400  65.468  1.00  0.00     0.000 HD 
BRANCH  27  29
HETATM   29  C   UNL     1      -9.506   5.189  66.746  1.00  0.00    -0.141 C  
HETATM   30  C   UNL     1      -9.551   4.193  65.584  1.00  0.00    -0.188 C  
BRANCH  29  31
HETATM   31  C   UNL     1      -8.040   5.452  67.140  1.00  0.00    -0.101 C  
BRANCH  31  32
HETATM   32  C   UNL     1      -7.747   5.370  68.642  1.00  0.00    -0.084 C  
BRANCH  32  33
HETATM   33  C   UNL     1      -6.842   6.472  69.202  1.00  0.00    -0.065 C  
HETATM   34  N   UNL     1      -5.549   6.527  68.518  1.00  0.00    -0.015 NA 
HETATM   35  H1  UNL     1      -4.946   7.261  68.890  1.00  0.00     0.000 HD 
HETATM   36  H2  UNL     1      -5.668   6.624  67.510  1.00  0.00     0.000 HD 
ENDBRANCH  32  33
ENDBRANCH  31  32
ENDBRANCH  29  31
ENDBRANCH  27  29
ENDBRANCH  11  27
ENDBRANCH   2   3
TORSDOF 9
ENDMDL
MODEL      179
REMARK 921   NORMALIZED FREE ENERGY PREDICTED BY IDOCK:   -4.96 KCAL/MOL
REMARK 922        TOTAL FREE ENERGY PREDICTED BY IDOCK:   -8.54 KCAL/MOL
REMARK 923 INTER-LIGAND FREE ENERGY PREDICTED BY IDOCK:   -7.83 KCAL/MOL
REMARK 924 INTRA-LIGAND FREE ENERGY PREDICTED BY IDOCK:   -0.71 KCAL/MOL
REMARK 927      BINDING AFFINITY PREDICTED BY RF-SCORE:    0.00 PKD
ROOT
HETATM    1  C   UNL     1      -8.819  10.622  62.347  1.00  0.00    -0.282 C  
HETATM    2  O   UNL     1      -9.964  10.812  63.173  1.00  0.00    -0.330 OA 
ENDROOT
BRANCH   2   3
HETATM    3  C   UNL     1      -9.708  10.573  64.505  1.00  0.00    -0.314 A  
HETATM    4  C   UNL     1     -10.024   9.325  64.983  1.00  0.00     0.489 A  
HETATM    5  C   UNL     1      -9.702   9.020  66.311  1.00  0.00    -0.345 A  
HETATM    6  C   UNL     1      -8.919   9.943  67.077  1.00  0.00    -0.152 A  
HETATM    7  C   UNL     1     -10.328   7.782  66.900  1.00  0.00    -0.396 C  
HETATM    8  C   UNL     1      -8.197   9.702  68.297  1.00  0.00    -0.106 A  
HETATM    9  C   UNL     1      -7.790  10.781  69.102  1.00  0.00    -0.142 A  
HETATM   10  C   UNL     1      -8.862  11.257  66.549  1.00  0.00    -0.179 A  
HETATM   11  C   UNL     1      -8.438  12.333  67.355  1.00  0.00    -0.176 A  
HETATM   12  N   UNL     1      -9.227  11.552  65.285  1.00  0.00    -0.140 NA 
HETATM   13  C   UNL     1      -7.946  12.083  68.635  1.00  0.00    -0.082 A  
BRANCH   8  14
HETATM   14  O   UNL     1      -7.812   8.454  68.745  1.00  0.00    -0.110 OA 
BRANCH  14  15
HETATM   15  C   UNL     1      -8.413   7.800  69.802  1.00  0.00    -0.133 A  
HETATM   16  C   UNL     1      -7.511   7.060  70.577  1.00  0.00    -0.088 A  
HETATM   17  C   UNL     1      -7.877   6.584  71.834  1.00  0.00    -0.103 A  
HETATM   18  F   UNL     1     -11.667   9.284  71.945  1.00  0.00    -0.400 F  
HETATM   19  F   UNL     1     -11.502   7.753  73.469  1.00  0.00    -0.322 F  
HETATM   20  C   UNL     1      -9.148   6.858  72.331  1.00  0.00    -0.144 A  
HETATM   21  C   UNL     1      -9.738   7.923  70.228  1.00  0.00    -0.183 A  
HETATM   22  C   UNL     1     -11.419   7.956  72.123  1.00  0.00    -0.324 C  
HETATM   23  F   UNL     1     -12.476   7.297  71.578  1.00  0.00    -0.324 F  
HETATM   24  C   UNL     1     -10.089   7.536  71.539  1.00  0.00    -0.201 A  
ENDBRANCH  14  15
ENDBRANCH   8  14
BRANCH   9  25
HETATM   25  O   UNL     1      -7.167  10.732  70.323  1.00  0.00    -0.166 OA 
HETATM   26  C   UNL     1      -5.758  10.916  70.358  1.00  0.00    -0.117 C  
ENDBRANCH   9  25
BRANCH  11  27
HETATM   27  N   UNL     1      -8.454  13.638  66.816  1.00  0.00    -0.438 NA 
HETATM   28  H   UNL     1      -7.569  14.113  66.639  1.00  0.00     0.000 HD 
BRANCH  27  29
HETATM   29  C   UNL     1      -9.708  14.326  66.504  1.00  0.00    -0.291 C  
HETATM   30  C   UNL     1      -9.695  15.669  67.240  1.00  0.00    -0.219 C  
BRANCH  29  31
HETATM   31  C   UNL     1      -9.836  14.571  64.989  1.00  0.00    -0.056 C  
BRANCH  31  32
HETATM   32  C   UNL     1     -11.178  14.154  64.375  1.00  0.00    -0.290 C  
BRANCH  32  33
HETATM   33  C   UNL     1     -12.214  15.272  64.226  1.00  0.00    -0.189 C  
HETATM   34  N   UNL     1     -11.600  16.550  63.856  1.00  0.00    -1.578 NA 
HETATM   35  H1  UNL     1     -12.289  17.294  63.756  1.00  0.00     0.000 HD 
HETATM   36  H2  UNL     1     -11.033  16.456  63.013  1.00  0.00     0.000 HD 
ENDBRANCH  32  33
ENDBRANCH  31  32
ENDBRANCH  29  31
ENDBRANCH  27  29
ENDBRANCH  11  27
ENDBRANCH   2   3
TORSDOF 9
ENDMDL
MODEL      180
REMARK 921   NORMALIZED FREE ENERGY PREDICTED BY IDOCK:   -4.96 KCAL/MOL
REMARK 922        TOTAL FREE ENERGY PREDICTED BY IDOCK:   -8.54 KCAL/MOL
REMARK 923 INTER-LIGAND FREE ENERGY PREDICTED BY IDOCK:   -6.88 KCAL/MOL
REMARK 924 INTRA-LIGAND FREE ENERGY PREDICTED BY IDOCK:   -1.65 KCAL/MOL
REMARK 927      BINDING AFFINITY PREDICTED BY RF-SCORE:    0.00 PKD
ROOT
HETATM    1  C   UNL     1     -12.952  11.863  63.462  1.00  0.00    -0.171 C  
HETATM    2  O   UNL     1     -12.723  13.152  64.024  1.00  0.00    -0.653 OA 
ENDROOT
BRANCH   2   3
HETATM    3  C   UNL     1     -11.571  13.210  64.778  1.00  0.00    -0.333 A  
HETATM    4  C   UNL     1     -11.008  14.450  64.956  1.00  0.00    -0.398 A  
HETATM    5  C   UNL     1      -9.884  14.557  65.783  1.00  0.00    -0.343 A  
HETATM    6  C   UNL     1      -9.454  13.419  66.540  1.00  0.00    -0.252 A  
HETATM    7  C   UNL     1      -9.106  15.845  65.717  1.00  0.00    -0.188 C  
HETATM    8  C   UNL     1      -8.575  13.385  67.677  1.00  0.00    -0.193 A  
HETATM    9  C   UNL     1      -7.973  12.176  68.069  1.00  0.00    -0.152 A  
HETATM   10  C   UNL     1      -9.970  12.177  66.094  1.00  0.00    -0.233 A  
HETATM   11  C   UNL     1      -9.374  10.967  66.503  1.00  0.00    -0.180 A  
HETATM   12  N   UNL     1     -11.019  12.083  65.252  1.00  0.00    -0.300 NA 
HETATM   13  C   UNL     1      -8.355  10.987  67.454  1.00  0.00    -0.126 A  
BRANCH   8  14
HETATM   14  O   UNL     1      -8.291  14.472  68.480  1.00  0.00    -0.149 OA 
BRANCH  14  15
HETATM   15  C   UNL     1      -9.241  15.148  69.220  1.00  0.00    -0.205 A  
HETATM   16  C   UNL     1      -9.323  16.509  68.900  1.00  0.00    -0.256 A  
HETATM   17  C   UNL     1     -10.408  17.275  69.323  1.00  0.00    -0.237 A  
HETATM   18  F   UNL     1     -12.845  13.488  70.500  1.00  0.00    -0.331 F  
HETATM   19  F   UNL     1     -13.624  15.403  71.149  1.00  0.00    -0.471 F  
HETATM   20  C   UNL     1     -11.427  16.677  70.058  1.00  0.00     0.235 A  
HETATM   21  C   UNL     1     -10.175  14.596  70.101  1.00  0.00     0.357 A  
HETATM   22  C   UNL     1     -12.491  14.645  71.127  1.00  0.00    -0.332 C  
HETATM   23  F   UNL     1     -12.237  14.311  72.420  1.00  0.00    -0.328 F  
HETATM   24  C   UNL     1     -11.327  15.332  70.449  1.00  0.00    -0.325 A  
ENDBRANCH  14  15
ENDBRANCH   8  14
BRANCH   9  25
HETATM   25  O   UNL     1      -7.057  11.977  69.071  1.00  0.00    -0.108 OA 
HETATM   26  C   UNL     1      -5.682  11.931  68.715  1.00  0.00    -0.050 C  
ENDBRANCH   9  25
BRANCH  11  27
HETATM   27  N   UNL     1      -9.875   9.751  65.988  1.00  0.00    -0.256 NA 
HETATM   28  H   UNL     1     -10.855   9.513  66.142  1.00  0.00     0.000 HD 
BRANCH  27  29
HETATM   29  C   UNL     1      -9.025   8.824  65.240  1.00  0.00    -0.133 C  
HETATM   30  C   UNL     1      -7.998   9.657  64.468  1.00  0.00    -0.140 C  
BRANCH  29  31
HETATM   31  C   UNL     1      -8.293   7.861  66.193  1.00  0.00    -0.127 C  
BRANCH  31  32
HETATM   32  C   UNL     1      -9.203   7.055  67.127  1.00  0.00    -0.153 C  
BRANCH  32  33
HETATM   33  C   UNL     1      -9.160   7.457  68.604  1.00  0.00    -0.134 C  
HETATM   34  N   UNL     1     -10.313   8.272  68.990  1.00  0.00    -0.221 NA 
HETATM   35  H1  UNL     1     -10.285   8.540  69.974  1.00  0.00     0.000 HD 
HETATM   36  H2  UNL     1     -11.190   7.803  68.761  1.00  0.00     0.000 HD 
ENDBRANCH  32  33
ENDBRANCH  31  32
ENDBRANCH  29  31
ENDBRANCH  27  29
ENDBRANCH  11  27
ENDBRANCH   2   3
TORSDOF 9
ENDMDL
MODEL      181
REMARK 921   NORMALIZED FREE ENERGY PREDICTED BY IDOCK:   -4.95 KCAL/MOL
REMARK 922        TOTAL FREE ENERGY PREDICTED BY IDOCK:   -8.52 KCAL/MOL
REMARK 923 INTER-LIGAND FREE ENERGY PREDICTED BY IDOCK:   -7.48 KCAL/MOL
REMARK 924 INTRA-LIGAND FREE ENERGY PREDICTED BY IDOCK:   -1.04 KCAL/MOL
REMARK 927      BINDING AFFINITY PREDICTED BY RF-SCORE:    0.00 PKD
ROOT
HETATM    1  C   UNL     1     -10.406  10.754  63.283  1.00  0.00    -0.071 C  
HETATM    2  O   UNL     1     -10.774  10.789  64.659  1.00  0.00    -0.284 OA 
ENDROOT
BRANCH   2   3
HETATM    3  C   UNL     1     -10.038  11.699  65.386  1.00  0.00    -0.259 A  
HETATM    4  C   UNL     1     -10.318  13.027  65.183  1.00  0.00    -0.321 A  
HETATM    5  C   UNL     1      -9.647  13.975  65.964  1.00  0.00    -0.230 A  
HETATM    6  C   UNL     1      -8.820  13.539  67.048  1.00  0.00    -0.219 A  
HETATM    7  C   UNL     1      -9.733  15.412  65.519  1.00  0.00    -0.318 C  
HETATM    8  C   UNL     1      -8.331  14.306  68.161  1.00  0.00    -0.162 A  
HETATM    9  C   UNL     1      -7.251  13.831  68.927  1.00  0.00    -0.095 A  
HETATM   10  C   UNL     1      -8.446  12.173  67.000  1.00  0.00    -0.183 A  
HETATM   11  C   UNL     1      -7.374  11.697  67.781  1.00  0.00    -0.106 A  
HETATM   12  N   UNL     1      -9.061  11.276  66.202  1.00  0.00    -0.200 NA 
HETATM   13  C   UNL     1      -6.764  12.545  68.704  1.00  0.00    -0.087 A  
BRANCH   8  14
HETATM   14  O   UNL     1      -8.878  15.498  68.592  1.00  0.00    -0.173 OA 
BRANCH  14  15
HETATM   15  C   UNL     1      -8.538  16.730  68.072  1.00  0.00    -0.210 A  
HETATM   16  C   UNL     1      -7.320  16.719  67.379  1.00  0.00    -0.187 A  
HETATM   17  C   UNL     1      -6.964  17.778  66.548  1.00  0.00    -0.265 A  
HETATM   18  F   UNL     1     -11.282  19.516  66.626  1.00  0.00    -0.471 F  
HETATM   19  F   UNL     1      -9.731  20.767  65.775  1.00  0.00    -0.227 F  
HETATM   20  C   UNL     1      -7.835  18.854  66.393  1.00  0.00    -0.296 A  
HETATM   21  C   UNL     1      -9.324  17.885  68.050  1.00  0.00    -0.274 A  
HETATM   22  C   UNL     1     -10.035  20.010  66.868  1.00  0.00    -0.449 C  
HETATM   23  F   UNL     1     -10.167  20.881  67.903  1.00  0.00    -0.446 F  
HETATM   24  C   UNL     1      -9.026  18.916  67.134  1.00  0.00    -0.299 A  
ENDBRANCH  14  15
ENDBRANCH   8  14
BRANCH   9  25
HETATM   25  O   UNL     1      -6.611  14.461  69.964  1.00  0.00    -0.153 OA 
HETATM   26  C   UNL     1      -5.898  13.655  70.893  1.00  0.00    -0.168 C  
ENDBRANCH   9  25
BRANCH  11  27
HETATM   27  N   UNL     1      -6.988  10.344  67.659  1.00  0.00    -0.082 NA 
HETATM   28  H   UNL     1      -6.460  10.050  66.837  1.00  0.00     0.000 HD 
BRANCH  27  29
HETATM   29  C   UNL     1      -7.326   9.353  68.682  1.00  0.00    -0.075 C  
HETATM   30  C   UNL     1      -6.018   8.886  69.326  1.00  0.00    -0.041 C  
BRANCH  29  31
HETATM   31  C   UNL     1      -8.238   9.967  69.760  1.00  0.00    -0.191 C  
BRANCH  31  32
HETATM   32  C   UNL     1      -9.546   9.209  70.012  1.00  0.00    -0.218 C  
BRANCH  32  33
HETATM   33  C   UNL     1     -10.296   8.745  68.760  1.00  0.00    -0.213 C  
HETATM   34  N   UNL     1     -11.138   9.802  68.195  1.00  0.00    -0.504 NA 
HETATM   35  H1  UNL     1     -11.637   9.493  67.361  1.00  0.00     0.000 HD 
HETATM   36  H2  UNL     1     -10.596  10.645  68.009  1.00  0.00     0.000 HD 
ENDBRANCH  32  33
ENDBRANCH  31  32
ENDBRANCH  29  31
ENDBRANCH  27  29
ENDBRANCH  11  27
ENDBRANCH   2   3
TORSDOF 9
ENDMDL
MODEL      182
REMARK 921   NORMALIZED FREE ENERGY PREDICTED BY IDOCK:   -4.93 KCAL/MOL
REMARK 922        TOTAL FREE ENERGY PREDICTED BY IDOCK:   -8.49 KCAL/MOL
REMARK 923 INTER-LIGAND FREE ENERGY PREDICTED BY IDOCK:   -8.06 KCAL/MOL
REMARK 924 INTRA-LIGAND FREE ENERGY PREDICTED BY IDOCK:   -0.43 KCAL/MOL
REMARK 927      BINDING AFFINITY PREDICTED BY RF-SCORE:    0.00 PKD
ROOT
HETATM    1  C   UNL     1      -9.709  15.620  66.451  1.00  0.00    -0.279 C  
HETATM    2  O   UNL     1      -9.561  14.519  65.559  1.00  0.00    -0.254 OA 
ENDROOT
BRANCH   2   3
HETATM    3  C   UNL     1      -9.432  13.314  66.214  1.00  0.00    -0.184 A  
HETATM    4  C   UNL     1      -8.967  13.356  67.505  1.00  0.00    -0.207 A  
HETATM    5  C   UNL     1      -8.901  12.159  68.227  1.00  0.00    -0.182 A  
HETATM    6  C   UNL     1      -9.463  10.966  67.669  1.00  0.00    -0.170 A  
HETATM    7  C   UNL     1      -8.107  12.175  69.507  1.00  0.00     1.043 C  
HETATM    8  C   UNL     1      -9.813   9.745  68.343  1.00  0.00    -0.152 A  
HETATM    9  C   UNL     1     -10.007   8.562  67.607  1.00  0.00    -0.198 A  
HETATM   10  C   UNL     1      -9.696  11.014  66.272  1.00  0.00    -0.207 A  
HETATM   11  C   UNL     1      -9.906   9.827  65.541  1.00  0.00    -0.308 A  
HETATM   12  N   UNL     1      -9.702  12.167  65.572  1.00  0.00    -0.218 NA 
HETATM   13  C   UNL     1     -10.018   8.612  66.215  1.00  0.00    -0.287 A  
BRANCH   8  14
HETATM   14  O   UNL     1     -10.028   9.635  69.702  1.00  0.00    -0.193 OA 
BRANCH  14  15
HETATM   15  C   UNL     1     -11.189  10.042  70.330  1.00  0.00    -0.313 A  
HETATM   16  C   UNL     1     -11.765   9.043  71.125  1.00  0.00    -0.366 A  
HETATM   17  C   UNL     1     -12.757   9.355  72.052  1.00  0.00    -0.483 A  
HETATM   18  F   UNL     1     -11.888  13.915  71.705  1.00  0.00    -0.281 F  
HETATM   19  F   UNL     1     -13.683  13.332  72.770  1.00  0.00    -0.615 F  
HETATM   20  C   UNL     1     -13.170  10.676  72.199  1.00  0.00    -0.379 A  
HETATM   21  C   UNL     1     -11.727  11.331  70.357  1.00  0.00    -0.398 A  
HETATM   22  C   UNL     1     -12.998  13.131  71.607  1.00  0.00    -0.335 C  
HETATM   23  F   UNL     1     -13.761  13.676  70.623  1.00  0.00     0.000 F  
HETATM   24  C   UNL     1     -12.656  11.679  71.361  1.00  0.00    -0.391 A  
ENDBRANCH  14  15
ENDBRANCH   8  14
BRANCH   9  25
HETATM   25  O   UNL     1     -10.266   7.304  68.088  1.00  0.00    -0.173 OA 
HETATM   26  C   UNL     1     -10.981   6.406  67.249  1.00  0.00    -0.392 C  
ENDBRANCH   9  25
BRANCH  11  27
HETATM   27  N   UNL     1     -10.071   9.908  64.141  1.00  0.00    -0.394 NA 
HETATM   28  H   UNL     1     -10.362   9.077  63.626  1.00  0.00     0.000 HD 
BRANCH  27  29
HETATM   29  C   UNL     1      -9.835  11.153  63.409  1.00  0.00    -0.361 C  
HETATM   30  C   UNL     1      -8.761  10.874  62.353  1.00  0.00    -0.355 C  
BRANCH  29  31
HETATM   31  C   UNL     1     -11.123  11.635  62.716  1.00  0.00     0.451 C  
BRANCH  31  32
HETATM   32  C   UNL     1     -12.255  12.046  63.664  1.00  0.00    -0.642 C  
BRANCH  32  33
HETATM   33  C   UNL     1     -12.527  13.551  63.758  1.00  0.00    -0.227 C  
HETATM   34  N   UNL     1     -12.577  14.019  65.144  1.00  0.00    -0.612 NA 
HETATM   35  H1  UNL     1     -12.758  15.021  65.207  1.00  0.00     0.000 HD 
HETATM   36  H2  UNL     1     -11.730  13.765  65.651  1.00  0.00     0.000 HD 
ENDBRANCH  32  33
ENDBRANCH  31  32
ENDBRANCH  29  31
ENDBRANCH  27  29
ENDBRANCH  11  27
ENDBRANCH   2   3
TORSDOF 9
ENDMDL
MODEL      183
REMARK 921   NORMALIZED FREE ENERGY PREDICTED BY IDOCK:   -4.93 KCAL/MOL
REMARK 922        TOTAL FREE ENERGY PREDICTED BY IDOCK:   -8.49 KCAL/MOL
REMARK 923 INTER-LIGAND FREE ENERGY PREDICTED BY IDOCK:   -6.89 KCAL/MOL
REMARK 924 INTRA-LIGAND FREE ENERGY PREDICTED BY IDOCK:   -1.60 KCAL/MOL
REMARK 927      BINDING AFFINITY PREDICTED BY RF-SCORE:    0.00 PKD
ROOT
HETATM    1  C   UNL     1      -9.651   3.482  65.515  1.00  0.00    -0.125 C  
HETATM    2  O   UNL     1      -9.047   4.367  64.576  1.00  0.00    -0.146 OA 
ENDROOT
BRANCH   2   3
HETATM    3  C   UNL     1      -8.627   5.549  65.147  1.00  0.00    -0.141 A  
HETATM    4  C   UNL     1      -7.819   6.354  64.384  1.00  0.00    -0.115 A  
HETATM    5  C   UNL     1      -7.440   7.598  64.902  1.00  0.00    -0.092 A  
HETATM    6  C   UNL     1      -8.026   8.062  66.123  1.00  0.00    -0.103 A  
HETATM    7  C   UNL     1      -6.318   8.318  64.199  1.00  0.00    -0.067 C  
HETATM    8  C   UNL     1      -8.056   9.402  66.645  1.00  0.00    -0.108 A  
HETATM    9  C   UNL     1      -8.343   9.624  68.003  1.00  0.00    -0.117 A  
HETATM   10  C   UNL     1      -8.651   7.058  66.903  1.00  0.00    -0.120 A  
HETATM   11  C   UNL     1      -8.952   7.291  68.260  1.00  0.00    -0.125 A  
HETATM   12  N   UNL     1      -8.962   5.841  66.413  1.00  0.00    -0.133 NA 
HETATM   13  C   UNL     1      -8.755   8.560  68.802  1.00  0.00    -0.139 A  
BRANCH   8  14
HETATM   14  O   UNL     1      -7.864  10.541  65.889  1.00  0.00    -0.143 OA 
BRANCH  14  15
HETATM   15  C   UNL     1      -8.875  11.189  65.208  1.00  0.00    -0.076 A  
HETATM   16  C   UNL     1      -9.097  10.670  63.926  1.00  0.00    -0.244 A  
HETATM   17  C   UNL     1     -10.252  10.994  63.218  1.00  0.00    -0.360 A  
HETATM   18  F   UNL     1     -12.284  12.776  67.008  1.00  0.00    -0.421 F  
HETATM   19  F   UNL     1     -13.252  13.145  65.105  1.00  0.00    -0.455 F  
HETATM   20  C   UNL     1     -11.202  11.831  63.796  1.00  0.00    -0.518 A  
HETATM   21  C   UNL     1      -9.743  12.162  65.710  1.00  0.00    -0.245 A  
HETATM   22  C   UNL     1     -12.047  13.215  65.739  1.00  0.00    -0.447 C  
HETATM   23  F   UNL     1     -11.754  14.538  65.845  1.00  0.00    -0.349 F  
HETATM   24  C   UNL     1     -10.963  12.418  65.049  1.00  0.00    -0.336 A  
ENDBRANCH  14  15
ENDBRANCH   8  14
BRANCH   9  25
HETATM   25  O   UNL     1      -8.338  10.817  68.681  1.00  0.00    -0.126 OA 
HETATM   26  C   UNL     1      -7.101  11.274  69.213  1.00  0.00    -0.112 C  
ENDBRANCH   9  25
BRANCH  11  27
HETATM   27  N   UNL     1      -9.516   6.246  69.024  1.00  0.00    -0.128 NA 
HETATM   28  H   UNL     1      -9.552   5.306  68.630  1.00  0.00     0.000 HD 
BRANCH  27  29
HETATM   29  C   UNL     1     -10.052   6.477  70.366  1.00  0.00    -0.184 C  
HETATM   30  C   UNL     1     -11.579   6.415  70.273  1.00  0.00    -0.451 C  
BRANCH  29  31
HETATM   31  C   UNL     1      -9.553   5.401  71.348  1.00  0.00    -0.202 C  
BRANCH  31  32
HETATM   32  C   UNL     1      -9.693   3.956  70.854  1.00  0.00    -0.253 C  
BRANCH  32  33
HETATM   33  C   UNL     1      -9.960   2.908  71.939  1.00  0.00    -0.143 C  
HETATM   34  N   UNL     1     -10.783   3.437  73.029  1.00  0.00    -0.161 NA 
HETATM   35  H1  UNL     1     -10.961   2.740  73.751  1.00  0.00     0.000 HD 
HETATM   36  H2  UNL     1     -11.654   3.833  72.675  1.00  0.00     0.000 HD 
ENDBRANCH  32  33
ENDBRANCH  31  32
ENDBRANCH  29  31
ENDBRANCH  27  29
ENDBRANCH  11  27
ENDBRANCH   2   3
TORSDOF 9
ENDMDL
MODEL      184
REMARK 921   NORMALIZED FREE ENERGY PREDICTED BY IDOCK:   -4.92 KCAL/MOL
REMARK 922        TOTAL FREE ENERGY PREDICTED BY IDOCK:   -8.48 KCAL/MOL
REMARK 923 INTER-LIGAND FREE ENERGY PREDICTED BY IDOCK:   -7.19 KCAL/MOL
REMARK 924 INTRA-LIGAND FREE ENERGY PREDICTED BY IDOCK:   -1.29 KCAL/MOL
REMARK 927      BINDING AFFINITY PREDICTED BY RF-SCORE:    0.00 PKD
ROOT
HETATM    1  C   UNL     1     -10.953   6.841  72.037  1.00  0.00    -0.238 C  
HETATM    2  O   UNL     1     -11.272   8.148  71.570  1.00  0.00    -0.245 OA 
ENDROOT
BRANCH   2   3
HETATM    3  C   UNL     1     -10.487   8.544  70.509  1.00  0.00    -0.204 A  
HETATM    4  C   UNL     1      -9.207   8.050  70.466  1.00  0.00    -0.154 A  
HETATM    5  C   UNL     1      -8.409   8.366  69.361  1.00  0.00    -0.120 A  
HETATM    6  C   UNL     1      -8.989   9.049  68.244  1.00  0.00    -0.133 A  
HETATM    7  C   UNL     1      -6.934   8.083  69.479  1.00  0.00    -0.050 C  
HETATM    8  C   UNL     1      -8.477   9.165  66.905  1.00  0.00    -0.123 A  
HETATM    9  C   UNL     1      -8.974  10.157  66.041  1.00  0.00    -0.151 A  
HETATM   10  C   UNL     1     -10.226   9.687  68.512  1.00  0.00    -0.193 A  
HETATM   11  C   UNL     1     -10.728  10.670  67.635  1.00  0.00    -0.267 A  
HETATM   12  N   UNL     1     -10.962   9.418  69.609  1.00  0.00    -0.227 NA 
HETATM   13  C   UNL     1     -10.072  10.920  66.431  1.00  0.00    -0.280 A  
BRANCH   8  14
HETATM   14  O   UNL     1      -7.531   8.323  66.353  1.00  0.00    -0.078 OA 
BRANCH  14  15
HETATM   15  C   UNL     1      -7.842   7.202  65.610  1.00  0.00    -0.112 A  
HETATM   16  C   UNL     1      -6.805   6.800  64.758  1.00  0.00    -0.050 A  
HETATM   17  C   UNL     1      -6.823   5.541  64.161  1.00  0.00    -0.047 A  
HETATM   18  F   UNL     1     -10.234   4.068  66.966  1.00  0.00    -0.207 F  
HETATM   19  F   UNL     1      -9.737   2.810  65.273  1.00  0.00    -0.122 F  
HETATM   20  C   UNL     1      -7.876   4.669  64.425  1.00  0.00    -0.087 A  
HETATM   21  C   UNL     1      -8.977   6.396  65.732  1.00  0.00    -0.068 A  
HETATM   22  C   UNL     1     -10.032   4.096  65.618  1.00  0.00    -0.197 C  
HETATM   23  F   UNL     1     -11.242   4.365  65.060  1.00  0.00    -0.372 F  
HETATM   24  C   UNL     1      -8.959   5.082  65.218  1.00  0.00    -0.151 A  
ENDBRANCH  14  15
ENDBRANCH   8  14
BRANCH   9  25
HETATM   25  O   UNL     1      -8.551  10.458  64.772  1.00  0.00    -0.173 OA 
HETATM   26  C   UNL     1      -9.512  10.423  63.725  1.00  0.00    -0.305 C  
ENDBRANCH   9  25
BRANCH  11  27
HETATM   27  N   UNL     1     -11.931  11.330  67.967  1.00  0.00    -0.641 NA 
HETATM   28  H   UNL     1     -12.768  10.776  68.151  1.00  0.00     0.000 HD 
BRANCH  27  29
HETATM   29  C   UNL     1     -12.009  12.789  68.054  1.00  0.00    -0.264 C  
HETATM   30  C   UNL     1     -10.770  13.276  68.810  1.00  0.00    -0.253 C  
BRANCH  29  31
HETATM   31  C   UNL     1     -12.035  13.421  66.650  1.00  0.00    -0.452 C  
BRANCH  31  32
HETATM   32  C   UNL     1     -11.508  14.859  66.575  1.00  0.00    -0.286 C  
BRANCH  32  33
HETATM   33  C   UNL     1     -10.686  15.199  65.328  1.00  0.00    -0.404 C  
HETATM   34  N   UNL     1      -9.808  16.351  65.542  1.00  0.00    -0.533 NA 
HETATM   35  H1  UNL     1      -9.260  16.578  64.712  1.00  0.00     0.000 HD 
HETATM   36  H2  UNL     1      -9.206  16.211  66.353  1.00  0.00     0.000 HD 
ENDBRANCH  32  33
ENDBRANCH  31  32
ENDBRANCH  29  31
ENDBRANCH  27  29
ENDBRANCH  11  27
ENDBRANCH   2   3
TORSDOF 9
ENDMDL
MODEL      185
REMARK 921   NORMALIZED FREE ENERGY PREDICTED BY IDOCK:   -4.90 KCAL/MOL
REMARK 922        TOTAL FREE ENERGY PREDICTED BY IDOCK:   -8.45 KCAL/MOL
REMARK 923 INTER-LIGAND FREE ENERGY PREDICTED BY IDOCK:   -7.28 KCAL/MOL
REMARK 924 INTRA-LIGAND FREE ENERGY PREDICTED BY IDOCK:   -1.17 KCAL/MOL
REMARK 927      BINDING AFFINITY PREDICTED BY RF-SCORE:    0.00 PKD
ROOT
HETATM    1  C   UNL     1     -10.426  18.575  65.623  1.00  0.00    -0.103 C  
HETATM    2  O   UNL     1     -10.946  17.248  65.622  1.00  0.00    -0.156 OA 
ENDROOT
BRANCH   2   3
HETATM    3  C   UNL     1     -10.295  16.418  66.508  1.00  0.00    -0.303 A  
HETATM    4  C   UNL     1     -10.996  15.331  66.968  1.00  0.00    -0.324 A  
HETATM    5  C   UNL     1     -10.339  14.422  67.806  1.00  0.00    -0.238 A  
HETATM    6  C   UNL     1      -8.931  14.557  68.027  1.00  0.00    -0.180 A  
HETATM    7  C   UNL     1     -11.198  13.426  68.541  1.00  0.00    -0.316 C  
HETATM    8  C   UNL     1      -8.012  13.580  68.544  1.00  0.00    -0.119 A  
HETATM    9  C   UNL     1      -6.756  13.980  69.036  1.00  0.00    -0.109 A  
HETATM   10  C   UNL     1      -8.393  15.823  67.688  1.00  0.00    -0.157 A  
HETATM   11  C   UNL     1      -7.128  16.215  68.169  1.00  0.00    -0.131 A  
HETATM   12  N   UNL     1      -9.056  16.717  66.926  1.00  0.00    -0.220 NA 
HETATM   13  C   UNL     1      -6.344  15.300  68.872  1.00  0.00    -0.095 A  
BRANCH   8  14
HETATM   14  O   UNL     1      -8.244  12.218  68.561  1.00  0.00    -0.153 OA 
BRANCH  14  15
HETATM   15  C   UNL     1      -8.692  11.503  67.469  1.00  0.00    -0.145 A  
HETATM   16  C   UNL     1      -9.165  10.227  67.802  1.00  0.00    -0.149 A  
HETATM   17  C   UNL     1      -9.918   9.488  66.892  1.00  0.00    -0.278 A  
HETATM   18  F   UNL     1     -10.573  13.197  64.157  1.00  0.00    -0.371 F  
HETATM   19  F   UNL     1     -11.140  11.266  63.352  1.00  0.00    -0.449 F  
HETATM   20  C   UNL     1     -10.214  10.029  65.644  1.00  0.00    -0.258 A  
HETATM   21  C   UNL     1      -8.843  11.967  66.160  1.00  0.00    -0.063 A  
HETATM   22  C   UNL     1     -10.119  11.925  63.972  1.00  0.00    -0.334 C  
HETATM   23  F   UNL     1      -9.118  12.011  63.056  1.00  0.00    -0.184 F  
HETATM   24  C   UNL     1      -9.688  11.275  65.267  1.00  0.00    -0.280 A  
ENDBRANCH  14  15
ENDBRANCH   8  14
BRANCH   9  25
HETATM   25  O   UNL     1      -5.796  13.201  69.630  1.00  0.00    -0.093 OA 
HETATM   26  C   UNL     1      -5.538  13.404  71.013  1.00  0.00    -0.202 C  
ENDBRANCH   9  25
BRANCH  11  27
HETATM   27  N   UNL     1      -6.651  17.508  67.863  1.00  0.00    -0.171 NA 
HETATM   28  H   UNL     1      -5.970  17.622  67.113  1.00  0.00     0.000 HD 
BRANCH  27  29
HETATM   29  C   UNL     1      -7.109  18.689  68.596  1.00  0.00    -0.288 C  
HETATM   30  C   UNL     1      -6.008  19.076  69.588  1.00  0.00    -0.281 C  
BRANCH  29  31
HETATM   31  C   UNL     1      -7.369  19.864  67.635  1.00  0.00    -0.316 C  
BRANCH  31  32
HETATM   32  C   UNL     1      -6.255  20.915  67.577  1.00  0.00    -0.365 C  
BRANCH  32  33
HETATM   33  C   UNL     1      -5.427  20.933  66.288  1.00  0.00    -0.207 C  
HETATM   34  N   UNL     1      -6.220  20.553  65.116  1.00  0.00    -0.251 NA 
HETATM   35  H1  UNL     1      -5.670  20.565  64.258  1.00  0.00     0.000 HD 
HETATM   36  H2  UNL     1      -7.052  21.135  65.029  1.00  0.00     0.000 HD 
ENDBRANCH  32  33
ENDBRANCH  31  32
ENDBRANCH  29  31
ENDBRANCH  27  29
ENDBRANCH  11  27
ENDBRANCH   2   3
TORSDOF 9
ENDMDL
MODEL      186
REMARK 921   NORMALIZED FREE ENERGY PREDICTED BY IDOCK:   -4.89 KCAL/MOL
REMARK 922        TOTAL FREE ENERGY PREDICTED BY IDOCK:   -8.44 KCAL/MOL
REMARK 923 INTER-LIGAND FREE ENERGY PREDICTED BY IDOCK:   -7.72 KCAL/MOL
REMARK 924 INTRA-LIGAND FREE ENERGY PREDICTED BY IDOCK:   -0.72 KCAL/MOL
REMARK 927      BINDING AFFINITY PREDICTED BY RF-SCORE:    0.00 PKD
ROOT
HETATM    1  C   UNL     1      -5.221  14.028  70.939  1.00  0.00    -0.127 C  
HETATM    2  O   UNL     1      -6.013  15.004  70.268  1.00  0.00    -0.140 OA 
ENDROOT
BRANCH   2   3
HETATM    3  C   UNL     1      -6.797  14.463  69.272  1.00  0.00    -0.129 A  
HETATM    4  C   UNL     1      -6.876  13.093  69.220  1.00  0.00    -0.024 A  
HETATM    5  C   UNL     1      -7.727  12.512  68.272  1.00  0.00    -0.141 A  
HETATM    6  C   UNL     1      -8.602  13.346  67.505  1.00  0.00    -0.200 A  
HETATM    7  C   UNL     1      -7.565  11.035  68.023  1.00  0.00    -0.092 C  
HETATM    8  C   UNL     1      -9.767  12.963  66.754  1.00  0.00    -0.246 A  
HETATM    9  C   UNL     1     -10.293  13.827  65.776  1.00  0.00    -0.307 A  
HETATM   10  C   UNL     1      -8.259  14.721  67.495  1.00  0.00    -0.185 A  
HETATM   11  C   UNL     1      -8.801  15.586  66.524  1.00  0.00    -0.313 A  
HETATM   12  N   UNL     1      -7.394  15.263  68.376  1.00  0.00    -0.111 NA 
HETATM   13  C   UNL     1      -9.781  15.116  65.651  1.00  0.00    -0.351 A  
BRANCH   8  14
HETATM   14  O   UNL     1     -10.473  11.792  66.946  1.00  0.00    -0.212 OA 
BRANCH  14  15
HETATM   15  C   UNL     1     -10.172  10.603  66.312  1.00  0.00    -0.245 A  
HETATM   16  C   UNL     1      -9.381  10.773  65.168  1.00  0.00    -0.254 A  
HETATM   17  C   UNL     1      -8.742   9.685  64.577  1.00  0.00    -0.227 A  
HETATM   18  F   UNL     1      -9.554   6.978  68.276  1.00  0.00    -0.135 F  
HETATM   19  F   UNL     1      -8.822   6.005  66.484  1.00  0.00    -0.117 F  
HETATM   20  C   UNL     1      -8.880   8.419  65.138  1.00  0.00    -0.075 A  
HETATM   21  C   UNL     1     -10.447   9.310  66.766  1.00  0.00    -0.263 A  
HETATM   22  C   UNL     1      -9.771   6.875  66.934  1.00  0.00    -0.171 C  
HETATM   23  F   UNL     1     -10.963   6.238  66.792  1.00  0.00    -0.356 F  
HETATM   24  C   UNL     1      -9.726   8.217  66.241  1.00  0.00    -0.253 A  
ENDBRANCH  14  15
ENDBRANCH   8  14
BRANCH   9  25
HETATM   25  O   UNL     1     -11.340  13.593  64.921  1.00  0.00    -0.322 OA 
HETATM   26  C   UNL     1     -12.650  13.917  65.371  1.00  0.00    -0.507 C  
ENDBRANCH   9  25
BRANCH  11  27
HETATM   27  N   UNL     1      -8.388  16.936  66.505  1.00  0.00    -0.253 NA 
HETATM   28  H   UNL     1      -7.481  17.173  66.102  1.00  0.00     0.000 HD 
BRANCH  27  29
HETATM   29  C   UNL     1      -9.226  18.005  67.050  1.00  0.00    -0.265 C  
HETATM   30  C   UNL     1     -10.425  18.178  66.113  1.00  0.00    -0.377 C  
BRANCH  29  31
HETATM   31  C   UNL     1      -9.726  17.644  68.461  1.00  0.00    -0.328 C  
BRANCH  31  32
HETATM   32  C   UNL     1     -11.094  16.952  68.508  1.00  0.00    -0.213 C  
BRANCH  32  33
HETATM   33  C   UNL     1     -11.366  16.107  69.756  1.00  0.00    -0.323 C  
HETATM   34  N   UNL     1     -10.188  15.346  70.178  1.00  0.00    -0.459 NA 
HETATM   35  H1  UNL     1     -10.368  14.784  71.009  1.00  0.00     0.000 HD 
HETATM   36  H2  UNL     1      -9.383  15.958  70.314  1.00  0.00     0.000 HD 
ENDBRANCH  32  33
ENDBRANCH  31  32
ENDBRANCH  29  31
ENDBRANCH  27  29
ENDBRANCH  11  27
ENDBRANCH   2   3
TORSDOF 9
ENDMDL
MODEL      187
REMARK 921   NORMALIZED FREE ENERGY PREDICTED BY IDOCK:   -4.89 KCAL/MOL
REMARK 922        TOTAL FREE ENERGY PREDICTED BY IDOCK:   -8.43 KCAL/MOL
REMARK 923 INTER-LIGAND FREE ENERGY PREDICTED BY IDOCK:   -8.23 KCAL/MOL
REMARK 924 INTRA-LIGAND FREE ENERGY PREDICTED BY IDOCK:   -0.20 KCAL/MOL
REMARK 927      BINDING AFFINITY PREDICTED BY RF-SCORE:    0.00 PKD
ROOT
HETATM    1  C   UNL     1     -12.099  14.285  65.142  1.00  0.00    -0.410 C  
HETATM    2  O   UNL     1     -11.352  15.498  65.170  1.00  0.00    -0.318 OA 
ENDROOT
BRANCH   2   3
HETATM    3  C   UNL     1     -10.140  15.364  65.813  1.00  0.00    -0.363 A  
HETATM    4  C   UNL     1      -9.226  16.372  65.629  1.00  0.00     0.060 A  
HETATM    5  C   UNL     1      -8.016  16.309  66.330  1.00  0.00    -0.299 A  
HETATM    6  C   UNL     1      -7.831  15.300  67.329  1.00  0.00    -0.240 A  
HETATM    7  C   UNL     1      -6.918  17.239  65.884  1.00  0.00    -0.038 C  
HETATM    8  C   UNL     1      -6.853  15.255  68.381  1.00  0.00    -0.112 A  
HETATM    9  C   UNL     1      -6.575  14.043  69.038  1.00  0.00    -0.106 A  
HETATM   10  C   UNL     1      -8.739  14.214  67.254  1.00  0.00    -0.218 A  
HETATM   11  C   UNL     1      -8.465  13.006  67.927  1.00  0.00    -0.185 A  
HETATM   12  N   UNL     1      -9.875  14.262  66.529  1.00  0.00    -0.278 NA 
HETATM   13  C   UNL     1      -7.364  12.925  68.777  1.00  0.00    -0.066 A  
BRANCH   8  14
HETATM   14  O   UNL     1      -6.162  16.353  68.855  1.00  0.00    -0.134 OA 
BRANCH  14  15
HETATM   15  C   UNL     1      -6.672  17.636  68.863  1.00  0.00    -0.236 A  
HETATM   16  C   UNL     1      -5.728  18.607  68.505  1.00  0.00    -0.200 A  
HETATM   17  C   UNL     1      -6.128  19.900  68.173  1.00  0.00    -0.271 A  
HETATM   18  F   UNL     1     -10.589  18.617  67.823  1.00  0.00    -0.386 F  
HETATM   19  F   UNL     1     -10.171  20.743  67.812  1.00  0.00    -0.496 F  
HETATM   20  C   UNL     1      -7.481  20.226  68.185  1.00  0.00    -0.220 A  
HETATM   21  C   UNL     1      -8.006  18.014  69.041  1.00  0.00    -0.075 A  
HETATM   22  C   UNL     1      -9.911  19.591  68.494  1.00  0.00    -0.446 C  
HETATM   23  F   UNL     1     -10.528  19.720  69.698  1.00  0.00    -0.312 F  
HETATM   24  C   UNL     1      -8.435  19.287  68.611  1.00  0.00    -0.403 A  
ENDBRANCH  14  15
ENDBRANCH   8  14
BRANCH   9  25
HETATM   25  O   UNL     1      -5.628  13.803  70.000  1.00  0.00    -0.101 OA 
HETATM   26  C   UNL     1      -5.543  12.490  70.537  1.00  0.00    -0.172 C  
ENDBRANCH   9  25
BRANCH  11  27
HETATM   27  N   UNL     1      -9.360  11.924  67.777  1.00  0.00    -0.178 NA 
HETATM   28  H   UNL     1      -9.126  11.172  67.129  1.00  0.00     0.000 HD 
BRANCH  27  29
HETATM   29  C   UNL     1     -10.614  11.853  68.528  1.00  0.00    -0.222 C  
HETATM   30  C   UNL     1     -11.725  11.478  67.544  1.00  0.00    -0.262 C  
BRANCH  29  31
HETATM   31  C   UNL     1     -10.529  10.788  69.638  1.00  0.00    -0.183 C  
BRANCH  31  32
HETATM   32  C   UNL     1     -11.876  10.363  70.234  1.00  0.00    -0.399 C  
BRANCH  32  33
HETATM   33  C   UNL     1     -12.554  11.394  71.141  1.00  0.00    -0.386 C  
HETATM   34  N   UNL     1     -13.317  10.764  72.221  1.00  0.00    -0.576 NA 
HETATM   35  H1  UNL     1     -13.769  11.450  72.825  1.00  0.00     0.000 HD 
HETATM   36  H2  UNL     1     -12.733  10.125  72.761  1.00  0.00     0.000 HD 
ENDBRANCH  32  33
ENDBRANCH  31  32
ENDBRANCH  29  31
ENDBRANCH  27  29
ENDBRANCH  11  27
ENDBRANCH   2   3
TORSDOF 9
ENDMDL
MODEL      188
REMARK 921   NORMALIZED FREE ENERGY PREDICTED BY IDOCK:   -4.88 KCAL/MOL
REMARK 922        TOTAL FREE ENERGY PREDICTED BY IDOCK:   -8.42 KCAL/MOL
REMARK 923 INTER-LIGAND FREE ENERGY PREDICTED BY IDOCK:   -7.02 KCAL/MOL
REMARK 924 INTRA-LIGAND FREE ENERGY PREDICTED BY IDOCK:   -1.40 KCAL/MOL
REMARK 927      BINDING AFFINITY PREDICTED BY RF-SCORE:    0.00 PKD
ROOT
HETATM    1  C   UNL     1     -14.312   7.744  71.283  1.00  0.00    -0.296 C  
HETATM    2  O   UNL     1     -13.391   7.846  72.365  1.00  0.00    -0.091 OA 
ENDROOT
BRANCH   2   3
HETATM    3  C   UNL     1     -12.135   8.245  71.964  1.00  0.00    -0.348 A  
HETATM    4  C   UNL     1     -11.094   7.967  72.815  1.00  0.00    -0.462 A  
HETATM    5  C   UNL     1      -9.795   8.285  72.403  1.00  0.00    -0.375 A  
HETATM    6  C   UNL     1      -9.570   8.734  71.062  1.00  0.00    -0.290 A  
HETATM    7  C   UNL     1      -8.718   8.263  73.457  1.00  0.00    -0.259 C  
HETATM    8  C   UNL     1      -8.331   8.783  70.334  1.00  0.00    -0.140 A  
HETATM    9  C   UNL     1      -8.221   9.578  69.179  1.00  0.00    -0.111 A  
HETATM   10  C   UNL     1     -10.729   9.186  70.383  1.00  0.00    -0.238 A  
HETATM   11  C   UNL     1     -10.614   9.969  69.217  1.00  0.00    -0.227 A  
HETATM   12  N   UNL     1     -11.978   8.924  70.817  1.00  0.00    -0.209 NA 
HETATM   13  C   UNL     1      -9.357  10.189  68.654  1.00  0.00    -0.161 A  
BRANCH   8  14
HETATM   14  O   UNL     1      -7.204   8.052  70.656  1.00  0.00    -0.051 OA 
BRANCH  14  15
HETATM   15  C   UNL     1      -7.162   6.673  70.665  1.00  0.00    -0.074 A  
HETATM   16  C   UNL     1      -6.157   6.157  71.494  1.00  0.00    -0.040 A  
HETATM   17  C   UNL     1      -6.153   4.812  71.856  1.00  0.00    -0.021 A  
HETATM   18  F   UNL     1     -10.511   4.212  70.335  1.00  0.00    -0.138 F  
HETATM   19  F   UNL     1      -9.388   2.428  70.837  1.00  0.00    -0.161 F  
HETATM   20  C   UNL     1      -7.167   3.974  71.400  1.00  0.00    -0.039 A  
HETATM   21  C   UNL     1      -8.074   5.795  70.072  1.00  0.00    -0.108 A  
HETATM   22  C   UNL     1      -9.318   3.589  70.124  1.00  0.00    -0.174 C  
HETATM   23  F   UNL     1      -9.308   3.226  68.814  1.00  0.00    -0.182 F  
HETATM   24  C   UNL     1      -8.141   4.456  70.511  1.00  0.00    -0.067 A  
ENDBRANCH  14  15
ENDBRANCH   8  14
BRANCH   9  25
HETATM   25  O   UNL     1      -7.105   9.801  68.413  1.00  0.00    -0.072 OA 
HETATM   26  C   UNL     1      -7.077   9.249  67.103  1.00  0.00    -0.086 C  
ENDBRANCH   9  25
BRANCH  11  27
HETATM   27  N   UNL     1     -11.789  10.456  68.603  1.00  0.00    -0.707 NA 
HETATM   28  H   UNL     1     -12.465   9.791  68.228  1.00  0.00     0.000 HD 
BRANCH  27  29
HETATM   29  C   UNL     1     -12.060  11.889  68.489  1.00  0.00    -0.059 C  
HETATM   30  C   UNL     1     -11.896  12.505  69.881  1.00  0.00    -0.373 C  
BRANCH  29  31
HETATM   31  C   UNL     1     -11.074  12.558  67.512  1.00  0.00    -0.311 C  
BRANCH  31  32
HETATM   32  C   UNL     1     -11.625  12.811  66.105  1.00  0.00    -0.431 C  
BRANCH  32  33
HETATM   33  C   UNL     1     -12.884  13.680  66.033  1.00  0.00    -0.184 C  
HETATM   34  N   UNL     1     -12.878  14.568  64.868  1.00  0.00    -0.537 NA 
HETATM   35  H1  UNL     1     -13.716  15.147  64.819  1.00  0.00     0.000 HD 
HETATM   36  H2  UNL     1     -12.742  14.043  64.004  1.00  0.00     0.000 HD 
ENDBRANCH  32  33
ENDBRANCH  31  32
ENDBRANCH  29  31
ENDBRANCH  27  29
ENDBRANCH  11  27
ENDBRANCH   2   3
TORSDOF 9
ENDMDL
MODEL      189
REMARK 921   NORMALIZED FREE ENERGY PREDICTED BY IDOCK:   -4.88 KCAL/MOL
REMARK 922        TOTAL FREE ENERGY PREDICTED BY IDOCK:   -8.42 KCAL/MOL
REMARK 923 INTER-LIGAND FREE ENERGY PREDICTED BY IDOCK:   -8.15 KCAL/MOL
REMARK 924 INTRA-LIGAND FREE ENERGY PREDICTED BY IDOCK:   -0.26 KCAL/MOL
REMARK 927      BINDING AFFINITY PREDICTED BY RF-SCORE:    0.00 PKD
ROOT
HETATM    1  C   UNL     1      -8.936   4.112  63.704  1.00  0.00    -0.130 C  
HETATM    2  O   UNL     1      -7.979   4.561  64.659  1.00  0.00    -0.087 OA 
ENDROOT
BRANCH   2   3
HETATM    3  C   UNL     1      -8.526   5.390  65.615  1.00  0.00    -0.138 A  
HETATM    4  C   UNL     1      -8.861   4.815  66.816  1.00  0.00    -0.110 A  
HETATM    5  C   UNL     1      -9.342   5.642  67.837  1.00  0.00    -0.112 A  
HETATM    6  C   UNL     1      -9.321   7.064  67.664  1.00  0.00    -0.128 A  
HETATM    7  C   UNL     1      -9.990   4.965  69.017  1.00  0.00    -0.237 C  
HETATM    8  C   UNL     1      -9.431   8.086  68.668  1.00  0.00    -0.147 A  
HETATM    9  C   UNL     1      -9.755   9.405  68.302  1.00  0.00    -0.145 A  
HETATM   10  C   UNL     1      -9.171   7.498  66.323  1.00  0.00    -0.146 A  
HETATM   11  C   UNL     1      -9.481   8.825  65.963  1.00  0.00    -0.233 A  
HETATM   12  N   UNL     1      -8.760   6.680  65.332  1.00  0.00    -0.058 NA 
HETATM   13  C   UNL     1      -9.809   9.750  66.953  1.00  0.00    -0.256 A  
BRANCH   8  14
HETATM   14  O   UNL     1      -9.194   7.891  70.015  1.00  0.00    -0.152 OA 
BRANCH  14  15
HETATM   15  C   UNL     1     -10.152   7.449  70.905  1.00  0.00    -0.188 A  
HETATM   16  C   UNL     1     -11.436   7.933  70.620  1.00  0.00    -0.247 A  
HETATM   17  C   UNL     1     -12.559   7.368  71.220  1.00  0.00    -0.376 A  
HETATM   18  F   UNL     1     -10.123   3.698  72.724  1.00  0.00    -0.181 F  
HETATM   19  F   UNL     1     -12.126   3.942  73.514  1.00  0.00    -0.226 F  
HETATM   20  C   UNL     1     -12.405   6.302  72.102  1.00  0.00    -0.193 A  
HETATM   21  C   UNL     1      -9.991   6.499  71.917  1.00  0.00    -0.192 A  
HETATM   22  C   UNL     1     -10.956   4.609  73.301  1.00  0.00    -0.303 C  
HETATM   23  F   UNL     1     -10.440   4.866  74.532  1.00  0.00    -0.254 F  
HETATM   24  C   UNL     1     -11.123   5.851  72.454  1.00  0.00    -0.328 A  
ENDBRANCH  14  15
ENDBRANCH   8  14
BRANCH   9  25
HETATM   25  O   UNL     1      -9.975  10.479  69.126  1.00  0.00    -0.204 OA 
HETATM   26  C   UNL     1     -11.192  11.197  68.972  1.00  0.00    -0.256 C  
ENDBRANCH   9  25
BRANCH  11  27
HETATM   27  N   UNL     1      -9.381   9.206  64.607  1.00  0.00    -0.415 NA 
HETATM   28  H   UNL     1      -9.500   8.498  63.882  1.00  0.00     0.000 HD 
BRANCH  27  29
HETATM   29  C   UNL     1      -9.112  10.589  64.214  1.00  0.00    -0.228 C  
HETATM   30  C   UNL     1      -8.890  10.608  62.699  1.00  0.00    -0.293 C  
BRANCH  29  31
HETATM   31  C   UNL     1     -10.301  11.501  64.570  1.00  0.00    -0.354 C  
BRANCH  31  32
HETATM   32  C   UNL     1     -11.071  12.062  63.368  1.00  0.00    -0.476 C  
BRANCH  32  33
HETATM   33  C   UNL     1     -12.088  13.162  63.688  1.00  0.00    -0.513 C  
HETATM   34  N   UNL     1     -13.118  12.707  64.625  1.00  0.00    -0.848 NA 
HETATM   35  H1  UNL     1     -13.796  13.439  64.839  1.00  0.00     0.000 HD 
HETATM   36  H2  UNL     1     -12.702  12.330  65.477  1.00  0.00     0.000 HD 
ENDBRANCH  32  33
ENDBRANCH  31  32
ENDBRANCH  29  31
ENDBRANCH  27  29
ENDBRANCH  11  27
ENDBRANCH   2   3
TORSDOF 9
ENDMDL
MODEL      190
REMARK 921   NORMALIZED FREE ENERGY PREDICTED BY IDOCK:   -4.82 KCAL/MOL
REMARK 922        TOTAL FREE ENERGY PREDICTED BY IDOCK:   -8.32 KCAL/MOL
REMARK 923 INTER-LIGAND FREE ENERGY PREDICTED BY IDOCK:   -7.21 KCAL/MOL
REMARK 924 INTRA-LIGAND FREE ENERGY PREDICTED BY IDOCK:   -1.11 KCAL/MOL
REMARK 927      BINDING AFFINITY PREDICTED BY RF-SCORE:    0.00 PKD
ROOT
HETATM    1  C   UNL     1     -10.315   5.016  71.674  1.00  0.00    -0.192 C  
HETATM    2  O   UNL     1     -11.312   6.033  71.713  1.00  0.00    -0.276 OA 
ENDROOT
BRANCH   2   3
HETATM    3  C   UNL     1     -11.151   6.979  70.723  1.00  0.00    -0.273 A  
HETATM    4  C   UNL     1     -11.354   8.289  71.079  1.00  0.00    -0.299 A  
HETATM    5  C   UNL     1     -11.120   9.282  70.121  1.00  0.00    -0.260 A  
HETATM    6  C   UNL     1     -10.529   8.926  68.866  1.00  0.00    -0.225 A  
HETATM    7  C   UNL     1     -11.641  10.663  70.425  1.00  0.00    -0.441 C  
HETATM    8  C   UNL     1      -9.897   9.786  67.902  1.00  0.00    -0.149 A  
HETATM    9  C   UNL     1      -9.700   9.344  66.582  1.00  0.00    -0.219 A  
HETATM   10  C   UNL     1     -10.585   7.546  68.551  1.00  0.00    -0.136 A  
HETATM   11  C   UNL     1     -10.370   7.105  67.230  1.00  0.00    -0.272 A  
HETATM   12  N   UNL     1     -10.867   6.599  69.469  1.00  0.00    -0.263 NA 
HETATM   13  C   UNL     1      -9.971   8.018  66.254  1.00  0.00    -0.116 A  
BRANCH   8  14
HETATM   14  O   UNL     1      -9.405  11.046  68.181  1.00  0.00    -0.160 OA 
BRANCH  14  15
HETATM   15  C   UNL     1     -10.096  12.213  67.923  1.00  0.00    -0.197 A  
HETATM   16  C   UNL     1     -11.142  12.044  67.007  1.00  0.00    -0.351 A  
HETATM   17  C   UNL     1     -12.119  13.025  66.852  1.00  0.00    -0.349 A  
HETATM   18  F   UNL     1     -10.775  15.217  70.733  1.00  0.00    -0.322 F  
HETATM   19  F   UNL     1     -12.171  16.260  69.444  1.00  0.00    -0.220 F  
HETATM   20  C   UNL     1     -12.061  14.180  67.627  1.00  0.00    -0.337 A  
HETATM   21  C   UNL     1      -9.947  13.444  68.568  1.00  0.00    -0.193 A  
HETATM   22  C   UNL     1     -10.987  15.584  69.437  1.00  0.00    -0.276 C  
HETATM   23  F   UNL     1     -10.030  16.505  69.145  1.00  0.00    -0.237 F  
HETATM   24  C   UNL     1     -10.982  14.400  68.497  1.00  0.00    -0.264 A  
ENDBRANCH  14  15
ENDBRANCH   8  14
BRANCH   9  25
HETATM   25  O   UNL     1      -9.189  10.052  65.524  1.00  0.00    -0.170 OA 
HETATM   26  C   UNL     1      -7.808   9.898  65.226  1.00  0.00    -0.131 C  
ENDBRANCH   9  25
BRANCH  11  27
HETATM   27  N   UNL     1     -10.497   5.729  66.940  1.00  0.00    -0.255 NA 
HETATM   28  H   UNL     1     -11.428   5.319  66.874  1.00  0.00     0.000 HD 
BRANCH  27  29
HETATM   29  C   UNL     1      -9.325   4.876  66.733  1.00  0.00    -0.138 C  
HETATM   30  C   UNL     1      -9.107   4.745  65.223  1.00  0.00    -0.155 C  
BRANCH  29  31
HETATM   31  C   UNL     1      -8.074   5.497  67.380  1.00  0.00    -0.101 C  
BRANCH  31  32
HETATM   32  C   UNL     1      -7.644   4.860  68.706  1.00  0.00    -0.069 C  
BRANCH  32  33
HETATM   33  C   UNL     1      -6.944   5.797  69.696  1.00  0.00    -0.063 C  
HETATM   34  N   UNL     1      -7.635   7.082  69.824  1.00  0.00    -0.101 NA 
HETATM   35  H1  UNL     1      -7.169   7.706  70.483  1.00  0.00     0.000 HD 
HETATM   36  H2  UNL     1      -8.615   6.951  70.071  1.00  0.00     0.000 HD 
ENDBRANCH  32  33
ENDBRANCH  31  32
ENDBRANCH  29  31
ENDBRANCH  27  29
ENDBRANCH  11  27
ENDBRANCH   2   3
TORSDOF 9
ENDMDL
MODEL      191
REMARK 921   NORMALIZED FREE ENERGY PREDICTED BY IDOCK:   -4.79 KCAL/MOL
REMARK 922        TOTAL FREE ENERGY PREDICTED BY IDOCK:   -8.28 KCAL/MOL
REMARK 923 INTER-LIGAND FREE ENERGY PREDICTED BY IDOCK:   -7.12 KCAL/MOL
REMARK 924 INTRA-LIGAND FREE ENERGY PREDICTED BY IDOCK:   -1.15 KCAL/MOL
REMARK 927      BINDING AFFINITY PREDICTED BY RF-SCORE:    0.00 PKD
ROOT
HETATM    1  C   UNL     1      -6.578  14.146  69.347  1.00  0.00    -0.121 C  
HETATM    2  O   UNL     1      -6.072  12.941  68.779  1.00  0.00    -0.067 OA 
ENDROOT
BRANCH   2   3
HETATM    3  C   UNL     1      -6.813  11.833  69.127  1.00  0.00    -0.106 A  
HETATM    4  C   UNL     1      -6.208  10.916  69.951  1.00  0.00    -0.117 A  
HETATM    5  C   UNL     1      -6.959   9.819  70.390  1.00  0.00    -0.139 A  
HETATM    6  C   UNL     1      -8.362   9.766  70.107  1.00  0.00    -0.201 A  
HETATM    7  C   UNL     1      -6.202   8.682  71.023  1.00  0.00    -0.042 C  
HETATM    8  C   UNL     1      -9.367   8.949  70.731  1.00  0.00    -0.230 A  
HETATM    9  C   UNL     1     -10.609   8.752  70.101  1.00  0.00    -0.221 A  
HETATM   10  C   UNL     1      -8.796  10.638  69.078  1.00  0.00    -0.148 A  
HETATM   11  C   UNL     1     -10.048  10.447  68.461  1.00  0.00    -0.171 A  
HETATM   12  N   UNL     1      -8.043  11.659  68.620  1.00  0.00    -0.144 NA 
HETATM   13  C   UNL     1     -10.921   9.479  68.955  1.00  0.00    -0.127 A  
BRANCH   8  14
HETATM   14  O   UNL     1      -9.232   8.349  71.968  1.00  0.00    -0.187 OA 
BRANCH  14  15
HETATM   15  C   UNL     1      -9.384   6.994  72.183  1.00  0.00    -0.134 A  
HETATM   16  C   UNL     1     -10.299   6.697  73.203  1.00  0.00    -0.256 A  
HETATM   17  C   UNL     1     -10.797   5.406  73.358  1.00  0.00    -0.347 A  
HETATM   18  F   UNL     1      -9.182   4.096  69.193  1.00  0.00    -0.142 F  
HETATM   19  F   UNL     1      -9.906   2.532  70.506  1.00  0.00    -0.202 F  
HETATM   20  C   UNL     1     -10.391   4.402  72.483  1.00  0.00    -0.252 A  
HETATM   21  C   UNL     1      -8.850   5.952  71.421  1.00  0.00    -0.137 A  
HETATM   22  C   UNL     1      -9.081   3.617  70.465  1.00  0.00    -0.116 C  
HETATM   23  F   UNL     1      -7.817   3.133  70.587  1.00  0.00    -0.043 F  
HETATM   24  C   UNL     1      -9.421   4.664  71.501  1.00  0.00    -0.214 A  
ENDBRANCH  14  15
ENDBRANCH   8  14
BRANCH   9  25
HETATM   25  O   UNL     1     -11.643   7.949  70.511  1.00  0.00    -0.247 OA 
HETATM   26  C   UNL     1     -11.876   6.745  69.792  1.00  0.00    -0.069 C  
ENDBRANCH   9  25
BRANCH  11  27
HETATM   27  N   UNL     1     -10.421  11.295  67.395  1.00  0.00    -0.203 NA 
HETATM   28  H   UNL     1      -9.793  11.396  66.597  1.00  0.00     0.000 HD 
BRANCH  27  29
HETATM   29  C   UNL     1     -11.684  12.035  67.406  1.00  0.00    -0.281 C  
HETATM   30  C   UNL     1     -11.595  13.091  68.510  1.00  0.00    -0.363 C  
BRANCH  29  31
HETATM   31  C   UNL     1     -11.925  12.728  66.051  1.00  0.00    -0.491 C  
BRANCH  31  32
HETATM   32  C   UNL     1     -10.656  13.053  65.254  1.00  0.00    -0.320 C  
BRANCH  32  33
HETATM   33  C   UNL     1     -10.644  12.567  63.801  1.00  0.00    -0.436 C  
HETATM   34  N   UNL     1     -11.862  12.945  63.081  1.00  0.00    -0.848 NA 
HETATM   35  H1  UNL     1     -11.855  12.622  62.114  1.00  0.00     0.000 HD 
HETATM   36  H2  UNL     1     -12.025  13.951  63.133  1.00  0.00     0.000 HD 
ENDBRANCH  32  33
ENDBRANCH  31  32
ENDBRANCH  29  31
ENDBRANCH  27  29
ENDBRANCH  11  27
ENDBRANCH   2   3
TORSDOF 9
ENDMDL
MODEL      192
REMARK 921   NORMALIZED FREE ENERGY PREDICTED BY IDOCK:   -4.77 KCAL/MOL
REMARK 922        TOTAL FREE ENERGY PREDICTED BY IDOCK:   -8.25 KCAL/MOL
REMARK 923 INTER-LIGAND FREE ENERGY PREDICTED BY IDOCK:   -6.62 KCAL/MOL
REMARK 924 INTRA-LIGAND FREE ENERGY PREDICTED BY IDOCK:   -1.64 KCAL/MOL
REMARK 927      BINDING AFFINITY PREDICTED BY RF-SCORE:    0.00 PKD
ROOT
HETATM    1  C   UNL     1     -10.973   6.412  67.109  1.00  0.00    -0.399 C  
HETATM    2  O   UNL     1      -9.562   6.253  66.998  1.00  0.00    -0.130 OA 
ENDROOT
BRANCH   2   3
HETATM    3  C   UNL     1      -8.877   7.440  67.136  1.00  0.00    -0.125 A  
HETATM    4  C   UNL     1      -8.663   8.170  65.993  1.00  0.00    -0.182 A  
HETATM    5  C   UNL     1      -8.042   9.419  66.107  1.00  0.00    -0.111 A  
HETATM    6  C   UNL     1      -7.797   9.969  67.407  1.00  0.00    -0.099 A  
HETATM    7  C   UNL     1      -7.541  10.053  64.836  1.00  0.00    -0.139 C  
HETATM    8  C   UNL     1      -7.504  11.332  67.758  1.00  0.00    -0.095 A  
HETATM    9  C   UNL     1      -6.938  11.633  69.009  1.00  0.00    -0.111 A  
HETATM   10  C   UNL     1      -7.854   9.033  68.470  1.00  0.00    -0.102 A  
HETATM   11  C   UNL     1      -7.300   9.345  69.727  1.00  0.00    -0.083 A  
HETATM   12  N   UNL     1      -8.404   7.809  68.336  1.00  0.00    -0.124 NA 
HETATM   13  C   UNL     1      -6.812  10.629  69.966  1.00  0.00    -0.150 A  
BRANCH   8  14
HETATM   14  O   UNL     1      -7.783  12.423  66.959  1.00  0.00    -0.144 OA 
BRANCH  14  15
HETATM   15  C   UNL     1      -9.026  13.018  66.879  1.00  0.00    -0.209 A  
HETATM   16  C   UNL     1      -9.146  14.155  67.689  1.00  0.00    -0.194 A  
HETATM   17  C   UNL     1     -10.207  15.042  67.517  1.00  0.00    -0.234 A  
HETATM   18  F   UNL     1     -11.360  13.142  63.427  1.00  0.00    -0.430 F  
HETATM   19  F   UNL     1     -12.767  14.542  64.296  1.00  0.00    -0.422 F  
HETATM   20  C   UNL     1     -11.150  14.802  66.522  1.00  0.00    -0.334 A  
HETATM   21  C   UNL     1     -10.064  12.691  66.003  1.00  0.00    -0.274 A  
HETATM   22  C   UNL     1     -12.024  13.434  64.581  1.00  0.00    -0.399 C  
HETATM   23  F   UNL     1     -12.913  12.424  64.771  1.00  0.00    -0.563 F  
HETATM   24  C   UNL     1     -11.086  13.631  65.750  1.00  0.00    -0.292 A  
ENDBRANCH  14  15
ENDBRANCH   8  14
BRANCH   9  25
HETATM   25  O   UNL     1      -6.527  12.856  69.475  1.00  0.00    -0.116 OA 
HETATM   26  C   UNL     1      -5.628  12.880  70.577  1.00  0.00    -0.174 C  
ENDBRANCH   9  25
BRANCH  11  27
HETATM   27  N   UNL     1      -7.317   8.366  70.744  1.00  0.00    -0.055 NA 
HETATM   28  H   UNL     1      -6.799   7.498  70.607  1.00  0.00     0.000 HD 
BRANCH  27  29
HETATM   29  C   UNL     1      -8.061   8.563  71.989  1.00  0.00    -0.117 C  
HETATM   30  C   UNL     1      -9.531   8.782  71.623  1.00  0.00    -0.358 C  
BRANCH  29  31
HETATM   31  C   UNL     1      -7.938   7.328  72.902  1.00  0.00    -0.118 C  
BRANCH  31  32
HETATM   32  C   UNL     1      -7.693   6.002  72.171  1.00  0.00    -0.101 C  
BRANCH  32  33
HETATM   33  C   UNL     1      -8.941   5.156  71.899  1.00  0.00    -0.134 C  
HETATM   34  N   UNL     1      -8.838   3.816  72.480  1.00  0.00    -0.097 NA 
HETATM   35  H1  UNL     1      -9.668   3.252  72.299  1.00  0.00     0.000 HD 
HETATM   36  H2  UNL     1      -8.633   3.860  73.478  1.00  0.00     0.000 HD 
ENDBRANCH  32  33
ENDBRANCH  31  32
ENDBRANCH  29  31
ENDBRANCH  27  29
ENDBRANCH  11  27
ENDBRANCH   2   3
TORSDOF 9
ENDMDL
MODEL      193
REMARK 921   NORMALIZED FREE ENERGY PREDICTED BY IDOCK:   -4.77 KCAL/MOL
REMARK 922        TOTAL FREE ENERGY PREDICTED BY IDOCK:   -8.25 KCAL/MOL
REMARK 923 INTER-LIGAND FREE ENERGY PREDICTED BY IDOCK:   -6.70 KCAL/MOL
REMARK 924 INTRA-LIGAND FREE ENERGY PREDICTED BY IDOCK:   -1.55 KCAL/MOL
REMARK 927      BINDING AFFINITY PREDICTED BY RF-SCORE:    0.00 PKD
ROOT
HETATM    1  C   UNL     1     -14.176   8.761  71.476  1.00  0.00    -0.292 C  
HETATM    2  O   UNL     1     -13.183   8.392  72.429  1.00  0.00    -0.297 OA 
ENDROOT
BRANCH   2   3
HETATM    3  C   UNL     1     -11.906   8.710  72.021  1.00  0.00    -0.372 A  
HETATM    4  C   UNL     1     -10.871   8.189  72.758  1.00  0.00    -0.390 A  
HETATM    5  C   UNL     1      -9.562   8.424  72.325  1.00  0.00    -0.374 A  
HETATM    6  C   UNL     1      -9.340   9.052  71.057  1.00  0.00    -0.339 A  
HETATM    7  C   UNL     1      -8.454   8.120  73.300  1.00  0.00    -0.294 C  
HETATM    8  C   UNL     1      -8.134   9.079  70.274  1.00  0.00    -0.136 A  
HETATM    9  C   UNL     1      -7.978  10.030  69.249  1.00  0.00    -0.130 A  
HETATM   10  C   UNL     1     -10.464   9.729  70.522  1.00  0.00    -0.301 A  
HETATM   11  C   UNL     1     -10.306  10.668  69.484  1.00  0.00    -0.182 A  
HETATM   12  N   UNL     1     -11.717   9.539  70.983  1.00  0.00    -0.318 NA 
HETATM   13  C   UNL     1      -9.056  10.835  68.889  1.00  0.00    -0.170 A  
BRANCH   8  14
HETATM   14  O   UNL     1      -7.088   8.189  70.416  1.00  0.00    -0.040 OA 
BRANCH  14  15
HETATM   15  C   UNL     1      -7.122   6.887  69.958  1.00  0.00    -0.074 A  
HETATM   16  C   UNL     1      -6.901   6.782  68.578  1.00  0.00    -0.074 A  
HETATM   17  C   UNL     1      -6.609   5.551  67.996  1.00  0.00    -0.049 A  
HETATM   18  F   UNL     1      -5.803   3.588  72.140  1.00  0.00    -0.007 F  
HETATM   19  F   UNL     1      -5.946   2.262  70.432  1.00  0.00    -0.016 F  
HETATM   20  C   UNL     1      -6.522   4.415  68.796  1.00  0.00    -0.037 A  
HETATM   21  C   UNL     1      -7.205   5.723  70.726  1.00  0.00    -0.079 A  
HETATM   22  C   UNL     1      -6.583   3.290  71.062  1.00  0.00    -0.031 C  
HETATM   23  F   UNL     1      -7.734   2.768  71.562  1.00  0.00    -0.044 F  
HETATM   24  C   UNL     1      -6.810   4.488  70.169  1.00  0.00    -0.037 A  
ENDBRANCH  14  15
ENDBRANCH   8  14
BRANCH   9  25
HETATM   25  O   UNL     1      -6.875  10.247  68.463  1.00  0.00    -0.060 OA 
HETATM   26  C   UNL     1      -7.074  10.378  67.061  1.00  0.00    -0.092 C  
ENDBRANCH   9  25
BRANCH  11  27
HETATM   27  N   UNL     1     -11.439  11.370  69.019  1.00  0.00    -0.270 NA 
HETATM   28  H   UNL     1     -12.352  10.916  69.051  1.00  0.00     0.000 HD 
BRANCH  27  29
HETATM   29  C   UNL     1     -11.338  12.732  68.492  1.00  0.00    -0.291 C  
HETATM   30  C   UNL     1     -11.904  12.722  67.069  1.00  0.00    -0.428 C  
BRANCH  29  31
HETATM   31  C   UNL     1     -12.145  13.716  69.359  1.00  0.00    -0.364 C  
BRANCH  31  32
HETATM   32  C   UNL     1     -11.718  15.184  69.243  1.00  0.00    -0.352 C  
BRANCH  32  33
HETATM   33  C   UNL     1     -10.722  15.670  70.300  1.00  0.00    -0.338 C  
HETATM   34  N   UNL     1      -9.365  15.181  70.047  1.00  0.00    -0.418 NA 
HETATM   35  H1  UNL     1      -8.701  15.504  70.750  1.00  0.00     0.000 HD 
HETATM   36  H2  UNL     1      -9.054  15.425  69.107  1.00  0.00     0.000 HD 
ENDBRANCH  32  33
ENDBRANCH  31  32
ENDBRANCH  29  31
ENDBRANCH  27  29
ENDBRANCH  11  27
ENDBRANCH   2   3
TORSDOF 9
ENDMDL
MODEL      194
REMARK 921   NORMALIZED FREE ENERGY PREDICTED BY IDOCK:   -4.77 KCAL/MOL
REMARK 922        TOTAL FREE ENERGY PREDICTED BY IDOCK:   -8.24 KCAL/MOL
REMARK 923 INTER-LIGAND FREE ENERGY PREDICTED BY IDOCK:   -6.39 KCAL/MOL
REMARK 924 INTRA-LIGAND FREE ENERGY PREDICTED BY IDOCK:   -1.86 KCAL/MOL
REMARK 927      BINDING AFFINITY PREDICTED BY RF-SCORE:    0.00 PKD
ROOT
HETATM    1  C   UNL     1      -7.839   6.661  63.320  1.00  0.00    -0.108 C  
HETATM    2  O   UNL     1      -6.639   7.163  63.901  1.00  0.00    -0.043 OA 
ENDROOT
BRANCH   2   3
HETATM    3  C   UNL     1      -6.786   7.495  65.231  1.00  0.00    -0.044 A  
HETATM    4  C   UNL     1      -6.592   8.812  65.566  1.00  0.00    -0.067 A  
HETATM    5  C   UNL     1      -6.812   9.200  66.893  1.00  0.00    -0.080 A  
HETATM    6  C   UNL     1      -7.382   8.265  67.816  1.00  0.00    -0.093 A  
HETATM    7  C   UNL     1      -6.300  10.556  67.303  1.00  0.00    -0.062 C  
HETATM    8  C   UNL     1      -8.001   8.531  69.086  1.00  0.00    -0.112 A  
HETATM    9  C   UNL     1      -8.175   7.492  70.018  1.00  0.00    -0.130 A  
HETATM   10  C   UNL     1      -7.318   6.910  67.407  1.00  0.00    -0.092 A  
HETATM   11  C   UNL     1      -7.510   5.872  68.341  1.00  0.00    -0.086 A  
HETATM   12  N   UNL     1      -7.049   6.542  66.138  1.00  0.00    -0.065 NA 
HETATM   13  C   UNL     1      -7.896   6.180  69.645  1.00  0.00    -0.103 A  
BRANCH   8  14
HETATM   14  O   UNL     1      -8.500   9.759  69.472  1.00  0.00    -0.139 OA 
BRANCH  14  15
HETATM   15  C   UNL     1      -9.737  10.239  69.090  1.00  0.00    -0.217 A  
HETATM   16  C   UNL     1     -10.682  10.212  70.123  1.00  0.00    -0.355 A  
HETATM   17  C   UNL     1     -11.878  10.918  70.012  1.00  0.00    -0.428 A  
HETATM   18  F   UNL     1     -10.320  13.317  66.339  1.00  0.00    -0.266 F  
HETATM   19  F   UNL     1     -12.433  13.472  66.793  1.00  0.00    -0.407 F  
HETATM   20  C   UNL     1     -12.129  11.670  68.867  1.00  0.00    -0.253 A  
HETATM   21  C   UNL     1     -10.068  10.849  67.877  1.00  0.00    -0.199 A  
HETATM   22  C   UNL     1     -11.427  12.570  66.608  1.00  0.00    -0.359 C  
HETATM   23  F   UNL     1     -11.724  11.907  65.459  1.00  0.00    -0.397 F  
HETATM   24  C   UNL     1     -11.226  11.650  67.792  1.00  0.00    -0.333 A  
ENDBRANCH  14  15
ENDBRANCH   8  14
BRANCH   9  25
HETATM   25  O   UNL     1      -8.670   7.580  71.295  1.00  0.00    -0.124 OA 
HETATM   26  C   UNL     1      -8.866   6.371  72.016  1.00  0.00    -0.134 C  
ENDBRANCH   9  25
BRANCH  11  27
HETATM   27  N   UNL     1      -7.376   4.534  67.912  1.00  0.00    -0.065 NA 
HETATM   28  H   UNL     1      -6.566   3.993  68.216  1.00  0.00     0.000 HD 
BRANCH  27  29
HETATM   29  C   UNL     1      -8.369   3.902  67.041  1.00  0.00    -0.100 C  
HETATM   30  C   UNL     1      -8.186   2.386  67.152  1.00  0.00    -0.082 C  
BRANCH  29  31
HETATM   31  C   UNL     1      -9.797   4.279  67.476  1.00  0.00    -0.162 C  
BRANCH  31  32
HETATM   32  C   UNL     1     -10.554   5.187  66.499  1.00  0.00    -0.320 C  
BRANCH  32  33
HETATM   33  C   UNL     1     -10.916   6.577  67.032  1.00  0.00    -0.396 C  
HETATM   34  N   UNL     1     -11.343   6.539  68.432  1.00  0.00    -0.566 NA 
HETATM   35  H1  UNL     1     -11.583   7.465  68.787  1.00  0.00     0.000 HD 
HETATM   36  H2  UNL     1     -10.641   6.091  69.020  1.00  0.00     0.000 HD 
ENDBRANCH  32  33
ENDBRANCH  31  32
ENDBRANCH  29  31
ENDBRANCH  27  29
ENDBRANCH  11  27
ENDBRANCH   2   3
TORSDOF 9
ENDMDL
MODEL      195
REMARK 921   NORMALIZED FREE ENERGY PREDICTED BY IDOCK:   -4.74 KCAL/MOL
REMARK 922        TOTAL FREE ENERGY PREDICTED BY IDOCK:   -8.21 KCAL/MOL
REMARK 923 INTER-LIGAND FREE ENERGY PREDICTED BY IDOCK:   -7.56 KCAL/MOL
REMARK 924 INTRA-LIGAND FREE ENERGY PREDICTED BY IDOCK:   -0.64 KCAL/MOL
REMARK 927      BINDING AFFINITY PREDICTED BY RF-SCORE:    0.00 PKD
ROOT
HETATM    1  C   UNL     1     -11.598  13.645  64.640  1.00  0.00    -0.371 C  
HETATM    2  O   UNL     1     -10.474  13.381  65.475  1.00  0.00    -0.279 OA 
ENDROOT
BRANCH   2   3
HETATM    3  C   UNL     1     -10.249  12.034  65.659  1.00  0.00    -0.252 A  
HETATM    4  C   UNL     1      -9.622  11.364  64.638  1.00  0.00    -0.228 A  
HETATM    5  C   UNL     1      -9.305  10.013  64.824  1.00  0.00    -0.330 A  
HETATM    6  C   UNL     1      -9.491   9.416  66.112  1.00  0.00    -0.287 A  
HETATM    7  C   UNL     1      -8.911   9.228  63.600  1.00  0.00    -0.146 C  
HETATM    8  C   UNL     1      -8.931   8.192  66.617  1.00  0.00    -0.152 A  
HETATM    9  C   UNL     1      -9.493   7.570  67.746  1.00  0.00    -0.141 A  
HETATM   10  C   UNL     1     -10.340  10.139  66.987  1.00  0.00    -0.244 A  
HETATM   11  C   UNL     1     -10.888   9.517  68.127  1.00  0.00    -0.156 A  
HETATM   12  N   UNL     1     -10.687  11.424  66.771  1.00  0.00    -0.259 NA 
HETATM   13  C   UNL     1     -10.488   8.226  68.467  1.00  0.00    -0.199 A  
BRANCH   8  14
HETATM   14  O   UNL     1      -7.815   7.568  66.096  1.00  0.00    -0.090 OA 
BRANCH  14  15
HETATM   15  C   UNL     1      -7.845   6.335  65.476  1.00  0.00    -0.101 A  
HETATM   16  C   UNL     1      -6.753   5.523  65.809  1.00  0.00    -0.056 A  
HETATM   17  C   UNL     1      -6.764   4.161  65.521  1.00  0.00    -0.052 A  
HETATM   18  F   UNL     1     -11.331   4.215  64.620  1.00  0.00    -0.339 F  
HETATM   19  F   UNL     1     -10.240   2.424  64.075  1.00  0.00    -0.147 F  
HETATM   20  C   UNL     1      -7.880   3.597  64.907  1.00  0.00    -0.085 A  
HETATM   21  C   UNL     1      -8.882   5.801  64.707  1.00  0.00     0.107 A  
HETATM   22  C   UNL     1     -10.219   3.783  63.961  1.00  0.00    -0.229 C  
HETATM   23  F   UNL     1     -10.431   4.052  62.645  1.00  0.00    -0.175 F  
HETATM   24  C   UNL     1      -8.953   4.407  64.501  1.00  0.00    -0.151 A  
ENDBRANCH  14  15
ENDBRANCH   8  14
BRANCH   9  25
HETATM   25  O   UNL     1      -9.140   6.371  68.312  1.00  0.00    -0.117 OA 
HETATM   26  C   UNL     1      -9.159   6.274  69.730  1.00  0.00    -0.143 C  
ENDBRANCH   9  25
BRANCH  11  27
HETATM   27  N   UNL     1     -11.781  10.248  68.941  1.00  0.00    -0.520 NA 
HETATM   28  H   UNL     1     -12.656  10.584  68.541  1.00  0.00     0.000 HD 
BRANCH  27  29
HETATM   29  C   UNL     1     -11.481  10.536  70.344  1.00  0.00    -0.341 C  
HETATM   30  C   UNL     1     -12.778  11.006  71.009  1.00  0.00    -0.485 C  
BRANCH  29  31
HETATM   31  C   UNL     1     -10.963   9.277  71.064  1.00  0.00    -0.390 C  
BRANCH  31  32
HETATM   32  C   UNL     1     -11.801   8.823  72.264  1.00  0.00    -0.403 C  
BRANCH  32  33
HETATM   33  C   UNL     1     -11.249   7.626  73.043  1.00  0.00    -0.333 C  
HETATM   34  N   UNL     1     -11.713   6.349  72.496  1.00  0.00    -0.470 NA 
HETATM   35  H1  UNL     1     -11.346   5.551  73.014  1.00  0.00     0.000 HD 
HETATM   36  H2  UNL     1     -11.498   6.273  71.502  1.00  0.00     0.000 HD 
ENDBRANCH  32  33
ENDBRANCH  31  32
ENDBRANCH  29  31
ENDBRANCH  27  29
ENDBRANCH  11  27
ENDBRANCH   2   3
TORSDOF 9
ENDMDL
MODEL      196
REMARK 921   NORMALIZED FREE ENERGY PREDICTED BY IDOCK:   -4.72 KCAL/MOL
REMARK 922        TOTAL FREE ENERGY PREDICTED BY IDOCK:   -8.17 KCAL/MOL
REMARK 923 INTER-LIGAND FREE ENERGY PREDICTED BY IDOCK:   -7.01 KCAL/MOL
REMARK 924 INTRA-LIGAND FREE ENERGY PREDICTED BY IDOCK:   -1.16 KCAL/MOL
REMARK 927      BINDING AFFINITY PREDICTED BY RF-SCORE:    0.00 PKD
ROOT
HETATM    1  C   UNL     1     -14.398   8.169  71.766  1.00  0.00    -0.484 C  
HETATM    2  O   UNL     1     -13.468   9.003  72.452  1.00  0.00    -0.430 OA 
ENDROOT
BRANCH   2   3
HETATM    3  C   UNL     1     -12.171   8.821  72.025  1.00  0.00    -0.377 A  
HETATM    4  C   UNL     1     -11.314   8.193  72.895  1.00  0.00    -0.301 A  
HETATM    5  C   UNL     1     -10.011   7.919  72.463  1.00  0.00    -0.312 A  
HETATM    6  C   UNL     1      -9.658   8.149  71.094  1.00  0.00    -0.196 A  
HETATM    7  C   UNL     1      -9.010   7.523  73.518  1.00  0.00    -0.271 C  
HETATM    8  C   UNL     1      -8.530   7.635  70.366  1.00  0.00    -0.136 A  
HETATM    9  C   UNL     1      -8.134   8.238  69.158  1.00  0.00    -0.120 A  
HETATM   10  C   UNL     1     -10.546   8.994  70.384  1.00  0.00    -0.218 A  
HETATM   11  C   UNL     1     -10.152   9.583  69.166  1.00  0.00    -0.195 A  
HETATM   12  N   UNL     1     -11.781   9.299  70.834  1.00  0.00    -0.288 NA 
HETATM   13  C   UNL     1      -8.933   9.227  68.591  1.00  0.00    -0.132 A  
BRANCH   8  14
HETATM   14  O   UNL     1      -7.795   6.527  70.740  1.00  0.00    -0.102 OA 
BRANCH  14  15
HETATM   15  C   UNL     1      -8.125   5.234  70.387  1.00  0.00    -0.096 A  
HETATM   16  C   UNL     1      -8.942   4.596  71.330  1.00  0.00    -0.164 A  
HETATM   17  C   UNL     1      -9.609   3.415  71.011  1.00  0.00    -0.239 A  
HETATM   18  F   UNL     1      -8.736   3.945  66.470  1.00  0.00    -0.107 F  
HETATM   19  F   UNL     1      -9.523   2.029  67.105  1.00  0.00    -0.148 F  
HETATM   20  C   UNL     1      -9.471   2.870  69.738  1.00  0.00    -0.167 A  
HETATM   21  C   UNL     1      -7.854   4.593  69.175  1.00  0.00    -0.070 A  
HETATM   22  C   UNL     1      -8.554   2.948  67.381  1.00  0.00    -0.102 C  
HETATM   23  F   UNL     1      -7.373   2.355  67.061  1.00  0.00    -0.056 F  
HETATM   24  C   UNL     1      -8.601   3.455  68.804  1.00  0.00    -0.118 A  
ENDBRANCH  14  15
ENDBRANCH   8  14
BRANCH   9  25
HETATM   25  O   UNL     1      -7.047   7.930  68.380  1.00  0.00    -0.076 OA 
HETATM   26  C   UNL     1      -7.284   7.522  67.039  1.00  0.00    -0.085 C  
ENDBRANCH   9  25
BRANCH  11  27
HETATM   27  N   UNL     1     -11.039  10.470  68.517  1.00  0.00    -0.259 NA 
HETATM   28  H   UNL     1     -11.783  10.090  67.933  1.00  0.00     0.000 HD 
BRANCH  27  29
HETATM   29  C   UNL     1     -10.917  11.921  68.662  1.00  0.00    -0.228 C  
HETATM   30  C   UNL     1      -9.430  12.274  68.571  1.00  0.00    -0.115 C  
BRANCH  29  31
HETATM   31  C   UNL     1     -11.686  12.649  67.543  1.00  0.00    -0.429 C  
BRANCH  31  32
HETATM   32  C   UNL     1     -11.441  14.161  67.464  1.00  0.00    -0.365 C  
BRANCH  32  33
HETATM   33  C   UNL     1     -11.844  14.963  68.706  1.00  0.00    -0.296 C  
HETATM   34  N   UNL     1     -11.056  16.189  68.852  1.00  0.00    -0.326 NA 
HETATM   35  H1  UNL     1     -11.324  16.723  69.678  1.00  0.00     0.000 HD 
HETATM   36  H2  UNL     1     -11.105  16.762  68.010  1.00  0.00     0.000 HD 
ENDBRANCH  32  33
ENDBRANCH  31  32
ENDBRANCH  29  31
ENDBRANCH  27  29
ENDBRANCH  11  27
ENDBRANCH   2   3
TORSDOF 9
ENDMDL
MODEL      197
REMARK 921   NORMALIZED FREE ENERGY PREDICTED BY IDOCK:   -4.69 KCAL/MOL
REMARK 922        TOTAL FREE ENERGY PREDICTED BY IDOCK:   -8.13 KCAL/MOL
REMARK 923 INTER-LIGAND FREE ENERGY PREDICTED BY IDOCK:   -6.73 KCAL/MOL
REMARK 924 INTRA-LIGAND FREE ENERGY PREDICTED BY IDOCK:   -1.40 KCAL/MOL
REMARK 927      BINDING AFFINITY PREDICTED BY RF-SCORE:    0.00 PKD
ROOT
HETATM    1  C   UNL     1      -9.551   3.890  67.625  1.00  0.00    -0.153 C  
HETATM    2  O   UNL     1     -10.073   4.864  66.726  1.00  0.00    -0.199 OA 
ENDROOT
BRANCH   2   3
HETATM    3  C   UNL     1      -9.465   6.094  66.857  1.00  0.00    -0.136 A  
HETATM    4  C   UNL     1      -8.732   6.541  65.786  1.00  0.00    -0.129 A  
HETATM    5  C   UNL     1      -8.168   7.820  65.853  1.00  0.00    -0.128 A  
HETATM    6  C   UNL     1      -8.498   8.680  66.950  1.00  0.00    -0.113 A  
HETATM    7  C   UNL     1      -7.125   8.163  64.821  1.00  0.00    -0.079 C  
HETATM    8  C   UNL     1      -8.327  10.104  67.049  1.00  0.00    -0.125 A  
HETATM    9  C   UNL     1      -8.360  10.734  68.306  1.00  0.00    -0.125 A  
HETATM   10  C   UNL     1      -9.065   8.025  68.071  1.00  0.00    -0.129 A  
HETATM   11  C   UNL     1      -9.111   8.666  69.325  1.00  0.00    -0.149 A  
HETATM   12  N   UNL     1      -9.555   6.770  68.012  1.00  0.00    -0.119 NA 
HETATM   13  C   UNL     1      -8.719   9.999  69.433  1.00  0.00    -0.195 A  
BRANCH   8  14
HETATM   14  O   UNL     1      -8.170  10.951  65.970  1.00  0.00    -0.162 OA 
BRANCH  14  15
HETATM   15  C   UNL     1      -9.222  11.546  65.303  1.00  0.00    -0.080 A  
HETATM   16  C   UNL     1      -9.601  10.856  64.144  1.00  0.00    -0.321 A  
HETATM   17  C   UNL     1     -10.812  11.134  63.514  1.00  0.00    -0.275 A  
HETATM   18  F   UNL     1     -12.354  13.567  67.171  1.00  0.00    -0.398 F  
HETATM   19  F   UNL     1     -13.505  13.702  65.340  1.00  0.00    -0.344 F  
HETATM   20  C   UNL     1     -11.661  12.099  64.050  1.00  0.00    -0.504 A  
HETATM   21  C   UNL     1      -9.993  12.629  65.734  1.00  0.00    -0.266 A  
HETATM   22  C   UNL     1     -12.237  13.799  65.833  1.00  0.00    -0.466 C  
HETATM   23  F   UNL     1     -11.883  15.105  65.705  1.00  0.00    -0.264 F  
HETATM   24  C   UNL     1     -11.266  12.851  65.168  1.00  0.00    -0.319 A  
ENDBRANCH  14  15
ENDBRANCH   8  14
BRANCH   9  25
HETATM   25  O   UNL     1      -8.141  12.058  68.591  1.00  0.00    -0.137 OA 
HETATM   26  C   UNL     1      -6.802  12.473  68.828  1.00  0.00    -0.096 C  
ENDBRANCH   9  25
BRANCH  11  27
HETATM   27  N   UNL     1      -9.624   7.959  70.435  1.00  0.00    -0.171 NA 
HETATM   28  H   UNL     1     -10.634   7.855  70.534  1.00  0.00     0.000 HD 
BRANCH  27  29
HETATM   29  C   UNL     1      -8.744   7.373  71.447  1.00  0.00    -0.125 C  
HETATM   30  C   UNL     1      -7.363   7.192  70.813  1.00  0.00    -0.072 C  
BRANCH  29  31
HETATM   31  C   UNL     1      -8.629   8.297  72.674  1.00  0.00    -0.264 C  
BRANCH  31  32
HETATM   32  C   UNL     1      -8.183   7.606  73.968  1.00  0.00    -0.245 C  
BRANCH  32  33
HETATM   33  C   UNL     1      -6.769   7.947  74.448  1.00  0.00    -0.114 C  
HETATM   34  N   UNL     1      -6.268   9.188  73.854  1.00  0.00    -0.330 NA 
HETATM   35  H1  UNL     1      -5.326   9.416  74.173  1.00  0.00     0.000 HD 
HETATM   36  H2  UNL     1      -6.910   9.963  74.019  1.00  0.00     0.000 HD 
ENDBRANCH  32  33
ENDBRANCH  31  32
ENDBRANCH  29  31
ENDBRANCH  27  29
ENDBRANCH  11  27
ENDBRANCH   2   3
TORSDOF 9
ENDMDL
MODEL      198
REMARK 921   NORMALIZED FREE ENERGY PREDICTED BY IDOCK:   -4.68 KCAL/MOL
REMARK 922        TOTAL FREE ENERGY PREDICTED BY IDOCK:   -8.11 KCAL/MOL
REMARK 923 INTER-LIGAND FREE ENERGY PREDICTED BY IDOCK:   -7.00 KCAL/MOL
REMARK 924 INTRA-LIGAND FREE ENERGY PREDICTED BY IDOCK:   -1.11 KCAL/MOL
REMARK 927      BINDING AFFINITY PREDICTED BY RF-SCORE:    0.00 PKD
ROOT
HETATM    1  C   UNL     1      -5.140  12.058  72.356  1.00  0.00     0.288 C  
HETATM    2  O   UNL     1      -5.211  10.773  71.745  1.00  0.00    -0.253 OA 
ENDROOT
BRANCH   2   3
HETATM    3  C   UNL     1      -6.229  10.675  70.822  1.00  0.00     0.016 A  
HETATM    4  C   UNL     1      -6.200  11.558  69.770  1.00  0.00    -0.138 A  
HETATM    5  C   UNL     1      -7.172  11.434  68.771  1.00  0.00    -0.107 A  
HETATM    6  C   UNL     1      -8.059  10.310  68.785  1.00  0.00    -0.120 A  
HETATM    7  C   UNL     1      -7.314  12.584  67.808  1.00  0.00    -0.124 C  
HETATM    8  C   UNL     1      -8.874   9.804  67.714  1.00  0.00    -0.129 A  
HETATM    9  C   UNL     1      -9.944   8.933  67.990  1.00  0.00    -0.178 A  
HETATM   10  C   UNL     1      -8.129   9.621  70.022  1.00  0.00    -0.178 A  
HETATM   11  C   UNL     1      -9.194   8.737  70.288  1.00  0.00    -0.174 A  
HETATM   12  N   UNL     1      -7.219   9.788  71.002  1.00  0.00    -0.324 NA 
HETATM   13  C   UNL     1     -10.110   8.438  69.281  1.00  0.00    -0.202 A  
BRANCH   8  14
HETATM   14  O   UNL     1      -8.664  10.072  66.376  1.00  0.00    -0.128 OA 
BRANCH  14  15
HETATM   15  C   UNL     1      -9.433  10.951  65.640  1.00  0.00    -0.215 A  
HETATM   16  C   UNL     1      -9.657  10.522  64.326  1.00  0.00    -0.364 A  
HETATM   17  C   UNL     1     -10.639  11.119  63.539  1.00  0.00    -0.393 A  
HETATM   18  F   UNL     1     -12.526  13.261  67.217  1.00  0.00    -0.329 F  
HETATM   19  F   UNL     1     -13.211  13.880  65.257  1.00  0.00    -0.460 F  
HETATM   20  C   UNL     1     -11.415  12.146  64.070  1.00  0.00    -0.488 A  
HETATM   21  C   UNL     1     -10.093  12.091  66.107  1.00  0.00    -0.252 A  
HETATM   22  C   UNL     1     -12.083  13.654  65.989  1.00  0.00    -0.441 C  
HETATM   23  F   UNL     1     -11.502  14.870  66.169  1.00  0.00    -0.344 F  
HETATM   24  C   UNL     1     -11.157  12.638  65.360  1.00  0.00    -0.327 A  
ENDBRANCH  14  15
ENDBRANCH   8  14
BRANCH   9  25
HETATM   25  O   UNL     1     -10.862   8.421  67.110  1.00  0.00    -0.226 OA 
HETATM   26  C   UNL     1     -11.097   7.019  67.135  1.00  0.00    -0.228 C  
ENDBRANCH   9  25
BRANCH  11  27
HETATM   27  N   UNL     1      -9.266   8.118  71.555  1.00  0.00    -0.149 NA 
HETATM   28  H   UNL     1      -9.104   8.678  72.392  1.00  0.00     0.000 HD 
BRANCH  27  29
HETATM   29  C   UNL     1      -9.567   6.693  71.698  1.00  0.00    -0.162 C  
HETATM   30  C   UNL     1      -8.388   5.908  71.116  1.00  0.00    -0.124 C  
BRANCH  29  31
HETATM   31  C   UNL     1      -9.751   6.318  73.180  1.00  0.00    -0.164 C  
BRANCH  31  32
HETATM   32  C   UNL     1      -9.796   4.813  73.469  1.00  0.00    -0.169 C  
BRANCH  32  33
HETATM   33  C   UNL     1     -11.194   4.188  73.515  1.00  0.00    -0.250 C  
HETATM   34  N   UNL     1     -11.159   2.737  73.318  1.00  0.00    -0.162 NA 
HETATM   35  H1  UNL     1     -12.090   2.321  73.349  1.00  0.00     0.000 HD 
HETATM   36  H2  UNL     1     -10.532   2.289  73.986  1.00  0.00     0.000 HD 
ENDBRANCH  32  33
ENDBRANCH  31  32
ENDBRANCH  29  31
ENDBRANCH  27  29
ENDBRANCH  11  27
ENDBRANCH   2   3
TORSDOF 9
ENDMDL
MODEL      199
REMARK 921   NORMALIZED FREE ENERGY PREDICTED BY IDOCK:   -4.65 KCAL/MOL
REMARK 922        TOTAL FREE ENERGY PREDICTED BY IDOCK:   -8.07 KCAL/MOL
REMARK 923 INTER-LIGAND FREE ENERGY PREDICTED BY IDOCK:   -7.11 KCAL/MOL
REMARK 924 INTRA-LIGAND FREE ENERGY PREDICTED BY IDOCK:   -0.96 KCAL/MOL
REMARK 927      BINDING AFFINITY PREDICTED BY RF-SCORE:    0.00 PKD
ROOT
HETATM    1  C   UNL     1      -8.751   6.886  71.481  1.00  0.00    -0.122 C  
HETATM    2  O   UNL     1      -8.349   8.203  71.114  1.00  0.00    -0.106 OA 
ENDROOT
BRANCH   2   3
HETATM    3  C   UNL     1      -9.263   8.835  70.299  1.00  0.00    -0.174 A  
HETATM    4  C   UNL     1     -10.364   9.382  70.910  1.00  0.00    -0.380 A  
HETATM    5  C   UNL     1     -11.272  10.101  70.124  1.00  0.00    -0.377 A  
HETATM    6  C   UNL     1     -10.953  10.382  68.756  1.00  0.00    -0.287 A  
HETATM    7  C   UNL     1     -12.610  10.418  70.741  1.00  0.00    -0.462 C  
HETATM    8  C   UNL     1     -11.544  11.363  67.886  1.00  0.00    -0.266 A  
HETATM    9  C   UNL     1     -11.375  11.265  66.493  1.00  0.00    -0.047 A  
HETATM   10  C   UNL     1      -9.921   9.580  68.208  1.00  0.00    -0.161 A  
HETATM   11  C   UNL     1      -9.746   9.498  66.812  1.00  0.00    -0.197 A  
HETATM   12  N   UNL     1      -9.086   8.845  68.970  1.00  0.00    -0.137 NA 
HETATM   13  C   UNL     1     -10.504  10.312  65.972  1.00  0.00    -0.181 A  
BRANCH   8  14
HETATM   14  O   UNL     1     -12.256  12.465  68.318  1.00  0.00    -0.275 OA 
BRANCH  14  15
HETATM   15  C   UNL     1     -11.669  13.653  68.704  1.00  0.00    -0.354 A  
HETATM   16  C   UNL     1     -12.274  14.227  69.829  1.00  0.00    -0.390 A  
HETATM   17  C   UNL     1     -11.645  15.253  70.530  1.00  0.00    -0.340 A  
HETATM   18  F   UNL     1      -7.600  14.492  68.357  1.00  0.00    -0.100 F  
HETATM   19  F   UNL     1      -7.759  16.302  69.537  1.00  0.00    -0.235 F  
HETATM   20  C   UNL     1     -10.396  15.705  70.115  1.00  0.00    -0.268 A  
HETATM   21  C   UNL     1     -10.502  14.225  68.191  1.00  0.00    -0.246 A  
HETATM   22  C   UNL     1      -8.394  15.578  68.571  1.00  0.00    -0.161 C  
HETATM   23  F   UNL     1      -8.327  16.326  67.438  1.00  0.00    -0.161 F  
HETATM   24  C   UNL     1      -9.807  15.192  68.948  1.00  0.00    -0.229 A  
ENDBRANCH  14  15
ENDBRANCH   8  14
BRANCH   9  25
HETATM   25  O   UNL     1     -11.926  12.059  65.520  1.00  0.00    -0.443 OA 
HETATM   26  C   UNL     1     -11.091  13.029  64.902  1.00  0.00    -0.301 C  
ENDBRANCH   9  25
BRANCH  11  27
HETATM   27  N   UNL     1      -8.749   8.639  66.299  1.00  0.00    -0.134 NA 
HETATM   28  H   UNL     1      -8.631   7.713  66.709  1.00  0.00     0.000 HD 
BRANCH  27  29
HETATM   29  C   UNL     1      -7.879   9.045  65.194  1.00  0.00    -0.108 C  
HETATM   30  C   UNL     1      -8.562  10.207  64.468  1.00  0.00    -0.198 C  
BRANCH  29  31
HETATM   31  C   UNL     1      -6.505   9.503  65.717  1.00  0.00    -0.074 C  
BRANCH  31  32
HETATM   32  C   UNL     1      -6.434  10.969  66.158  1.00  0.00    -0.082 C  
BRANCH  32  33
HETATM   33  C   UNL     1      -5.849  11.214  67.553  1.00  0.00    -0.048 C  
HETATM   34  N   UNL     1      -6.880  11.209  68.593  1.00  0.00    -0.064 NA 
HETATM   35  H1  UNL     1      -6.491  11.372  69.522  1.00  0.00     0.000 HD 
HETATM   36  H2  UNL     1      -7.426  10.349  68.568  1.00  0.00     0.000 HD 
ENDBRANCH  32  33
ENDBRANCH  31  32
ENDBRANCH  29  31
ENDBRANCH  27  29
ENDBRANCH  11  27
ENDBRANCH   2   3
TORSDOF 9
ENDMDL
MODEL      200
REMARK 921   NORMALIZED FREE ENERGY PREDICTED BY IDOCK:   -4.64 KCAL/MOL
REMARK 922        TOTAL FREE ENERGY PREDICTED BY IDOCK:   -8.05 KCAL/MOL
REMARK 923 INTER-LIGAND FREE ENERGY PREDICTED BY IDOCK:   -7.52 KCAL/MOL
REMARK 924 INTRA-LIGAND FREE ENERGY PREDICTED BY IDOCK:   -0.53 KCAL/MOL
REMARK 927      BINDING AFFINITY PREDICTED BY RF-SCORE:    0.00 PKD
ROOT
HETATM    1  C   UNL     1      -8.700  10.475  63.872  1.00  0.00    -0.171 C  
HETATM    2  O   UNL     1      -7.904   9.836  64.867  1.00  0.00    -0.121 OA 
ENDROOT
BRANCH   2   3
HETATM    3  C   UNL     1      -8.595   9.604  66.037  1.00  0.00    -0.132 A  
HETATM    4  C   UNL     1      -8.197   8.527  66.789  1.00  0.00    -0.105 A  
HETATM    5  C   UNL     1      -8.823   8.309  68.022  1.00  0.00    -0.135 A  
HETATM    6  C   UNL     1      -9.731   9.290  68.535  1.00  0.00    -0.162 A  
HETATM    7  C   UNL     1      -8.599   6.970  68.675  1.00  0.00    -0.120 C  
HETATM    8  C   UNL     1     -10.206   9.447  69.883  1.00  0.00    -0.222 A  
HETATM    9  C   UNL     1     -11.355  10.215  70.143  1.00  0.00    -0.303 A  
HETATM   10  C   UNL     1     -10.214  10.214  67.576  1.00  0.00    -0.211 A  
HETATM   11  C   UNL     1     -11.356  10.994  67.846  1.00  0.00    -0.311 A  
HETATM   12  N   UNL     1      -9.640  10.378  66.367  1.00  0.00    -0.172 NA 
HETATM   13  C   UNL     1     -11.935  10.952  69.114  1.00  0.00    -0.359 A  
BRANCH   8  14
HETATM   14  O   UNL     1      -9.582   8.924  70.999  1.00  0.00    -0.208 OA 
BRANCH  14  15
HETATM   15  C   UNL     1      -9.874   7.684  71.530  1.00  0.00    -0.166 A  
HETATM   16  C   UNL     1     -11.025   7.105  70.979  1.00  0.00    -0.277 A  
HETATM   17  C   UNL     1     -11.304   5.754  71.173  1.00  0.00    -0.138 A  
HETATM   18  F   UNL     1      -7.010   4.917  72.763  1.00  0.00    -0.065 F  
HETATM   19  F   UNL     1      -8.477   3.342  73.011  1.00  0.00    -0.077 F  
HETATM   20  C   UNL     1     -10.422   4.968  71.910  1.00  0.00    -0.255 A  
HETATM   21  C   UNL     1      -9.088   6.936  72.410  1.00  0.00    -0.144 A  
HETATM   22  C   UNL     1      -8.273   4.676  73.213  1.00  0.00    -0.100 C  
HETATM   23  F   UNL     1      -8.233   4.849  74.561  1.00  0.00    -0.096 F  
HETATM   24  C   UNL     1      -9.302   5.546  72.530  1.00  0.00    -0.153 A  
ENDBRANCH  14  15
ENDBRANCH   8  14
BRANCH   9  25
HETATM   25  O   UNL     1     -11.987  10.406  71.345  1.00  0.00    -0.354 OA 
HETATM   26  C   UNL     1     -13.262  11.033  71.334  1.00  0.00    -0.229 C  
ENDBRANCH   9  25
BRANCH  11  27
HETATM   27  N   UNL     1     -11.847  11.858  66.843  1.00  0.00    -0.610 NA 
HETATM   28  H   UNL     1     -12.494  11.492  66.145  1.00  0.00     0.000 HD 
BRANCH  27  29
HETATM   29  C   UNL     1     -11.450  13.266  66.779  1.00  0.00    -0.350 C  
HETATM   30  C   UNL     1     -12.535  14.019  66.005  1.00  0.00    -0.489 C  
BRANCH  29  31
HETATM   31  C   UNL     1     -11.320  13.863  68.193  1.00  0.00    -0.324 C  
BRANCH  31  32
HETATM   32  C   UNL     1     -11.477  15.386  68.272  1.00  0.00    -0.362 C  
BRANCH  32  33
HETATM   33  C   UNL     1     -10.226  16.199  67.926  1.00  0.00    -0.261 C  
HETATM   34  N   UNL     1     -10.556  17.496  67.331  1.00  0.00    -0.340 NA 
HETATM   35  H1  UNL     1      -9.723  18.038  67.100  1.00  0.00     0.000 HD 
HETATM   36  H2  UNL     1     -11.187  18.027  67.930  1.00  0.00     0.000 HD 
ENDBRANCH  32  33
ENDBRANCH  31  32
ENDBRANCH  29  31
ENDBRANCH  27  29
ENDBRANCH  11  27
ENDBRANCH   2   3
TORSDOF 9
ENDMDL
MODEL      201
REMARK 921   NORMALIZED FREE ENERGY PREDICTED BY IDOCK:   -4.63 KCAL/MOL
REMARK 922        TOTAL FREE ENERGY PREDICTED BY IDOCK:   -8.04 KCAL/MOL
REMARK 923 INTER-LIGAND FREE ENERGY PREDICTED BY IDOCK:   -8.27 KCAL/MOL
REMARK 924 INTRA-LIGAND FREE ENERGY PREDICTED BY IDOCK:    0.23 KCAL/MOL
REMARK 927      BINDING AFFINITY PREDICTED BY RF-SCORE:    0.00 PKD
ROOT
HETATM    1  C   UNL     1      -5.855  14.726  70.690  1.00  0.00    -0.149 C  
HETATM    2  O   UNL     1      -6.526  15.930  70.328  1.00  0.00    -0.047 OA 
ENDROOT
BRANCH   2   3
HETATM    3  C   UNL     1      -7.565  15.719  69.447  1.00  0.00    -0.214 A  
HETATM    4  C   UNL     1      -7.335  16.034  68.131  1.00  0.00    -0.133 A  
HETATM    5  C   UNL     1      -8.339  15.757  67.196  1.00  0.00    -0.231 A  
HETATM    6  C   UNL     1      -9.496  15.016  67.601  1.00  0.00    -0.195 A  
HETATM    7  C   UNL     1      -8.198  16.386  65.834  1.00  0.00     0.179 C  
HETATM    8  C   UNL     1     -10.454  14.336  66.773  1.00  0.00    -0.273 A  
HETATM    9  C   UNL     1     -11.709  13.974  67.295  1.00  0.00    -0.389 A  
HETATM   10  C   UNL     1      -9.706  14.959  69.001  1.00  0.00    -0.212 A  
HETATM   11  C   UNL     1     -10.960  14.580  69.521  1.00  0.00    -0.224 A  
HETATM   12  N   UNL     1      -8.750  15.282  69.897  1.00  0.00     0.000 NA 
HETATM   13  C   UNL     1     -11.958  14.132  68.657  1.00  0.00    -0.373 A  
BRANCH   8  14
HETATM   14  O   UNL     1     -10.226  13.950  65.467  1.00  0.00    -0.311 OA 
BRANCH  14  15
HETATM   15  C   UNL     1     -10.156  12.633  65.058  1.00  0.00    -0.231 A  
HETATM   16  C   UNL     1     -10.303  12.477  63.674  1.00  0.00    -0.382 A  
HETATM   17  C   UNL     1      -9.970  11.275  63.054  1.00  0.00    -0.345 A  
HETATM   18  F   UNL     1      -7.741   9.740  66.841  1.00  0.00    -0.096 F  
HETATM   19  F   UNL     1      -8.108   8.301  65.263  1.00  0.00    -0.108 F  
HETATM   20  C   UNL     1      -9.472  10.222  63.817  1.00  0.00    -0.352 A  
HETATM   21  C   UNL     1      -9.823  11.523  65.838  1.00  0.00    -0.262 A  
HETATM   22  C   UNL     1      -8.720   9.250  66.029  1.00  0.00    -0.153 C  
HETATM   23  F   UNL     1      -9.583   8.581  66.838  1.00  0.00    -0.181 F  
HETATM   24  C   UNL     1      -9.386  10.336  65.214  1.00  0.00    -0.267 A  
ENDBRANCH  14  15
ENDBRANCH   8  14
BRANCH   9  25
HETATM   25  O   UNL     1     -12.762  13.396  66.634  1.00  0.00    -0.155 OA 
HETATM   26  C   UNL     1     -13.236  14.032  65.454  1.00  0.00     0.014 C  
ENDBRANCH   9  25
BRANCH  11  27
HETATM   27  N   UNL     1     -11.153  14.595  70.920  1.00  0.00    -0.518 NA 
HETATM   28  H   UNL     1     -10.371  14.845  71.526  1.00  0.00     0.000 HD 
BRANCH  27  29
HETATM   29  C   UNL     1     -12.444  14.263  71.522  1.00  0.00    -0.356 C  
HETATM   30  C   UNL     1     -13.434  15.366  71.138  1.00  0.00    -0.565 C  
BRANCH  29  31
HETATM   31  C   UNL     1     -12.959  12.908  71.001  1.00  0.00    -0.180 C  
BRANCH  31  32
HETATM   32  C   UNL     1     -13.152  11.830  72.074  1.00  0.00    -0.436 C  
BRANCH  32  33
HETATM   33  C   UNL     1     -13.160  10.385  71.567  1.00  0.00    -0.431 C  
HETATM   34  N   UNL     1     -13.562   9.436  72.607  1.00  0.00    -0.699 NA 
HETATM   35  H1  UNL     1     -13.568   8.473  72.270  1.00  0.00     0.000 HD 
HETATM   36  H2  UNL     1     -14.464   9.690  73.010  1.00  0.00     0.000 HD 
ENDBRANCH  32  33
ENDBRANCH  31  32
ENDBRANCH  29  31
ENDBRANCH  27  29
ENDBRANCH  11  27
ENDBRANCH   2   3
TORSDOF 9
ENDMDL
MODEL      202
REMARK 921   NORMALIZED FREE ENERGY PREDICTED BY IDOCK:   -4.63 KCAL/MOL
REMARK 922        TOTAL FREE ENERGY PREDICTED BY IDOCK:   -8.03 KCAL/MOL
REMARK 923 INTER-LIGAND FREE ENERGY PREDICTED BY IDOCK:   -6.99 KCAL/MOL
REMARK 924 INTRA-LIGAND FREE ENERGY PREDICTED BY IDOCK:   -1.04 KCAL/MOL
REMARK 927      BINDING AFFINITY PREDICTED BY RF-SCORE:    0.00 PKD
ROOT
HETATM    1  C   UNL     1      -9.824  11.035  62.582  1.00  0.00    -0.136 C  
HETATM    2  O   UNL     1     -10.789  11.232  63.611  1.00  0.00    -0.381 OA 
ENDROOT
BRANCH   2   3
HETATM    3  C   UNL     1     -10.252  11.126  64.876  1.00  0.00    -0.303 A  
HETATM    4  C   UNL     1     -10.403   9.920  65.515  1.00  0.00    -0.060 A  
HETATM    5  C   UNL     1      -9.801   9.751  66.767  1.00  0.00    -0.265 A  
HETATM    6  C   UNL     1      -8.921  10.763  67.269  1.00  0.00    -0.143 A  
HETATM    7  C   UNL     1     -10.232   8.556  67.577  1.00  0.00    -0.307 C  
HETATM    8  C   UNL     1      -7.952  10.657  68.326  1.00  0.00    -0.116 A  
HETATM    9  C   UNL     1      -7.438  11.818  68.933  1.00  0.00    -0.080 A  
HETATM   10  C   UNL     1      -9.036  12.023  66.630  1.00  0.00    -0.204 A  
HETATM   11  C   UNL     1      -8.505  13.180  67.234  1.00  0.00    -0.198 A  
HETATM   12  N   UNL     1      -9.667  12.188  65.450  1.00  0.00    -0.207 NA 
HETATM   13  C   UNL     1      -7.749  13.066  68.399  1.00  0.00    -0.137 A  
BRANCH   8  14
HETATM   14  O   UNL     1      -7.424   9.468  68.789  1.00  0.00    -0.073 OA 
BRANCH  14  15
HETATM   15  C   UNL     1      -8.022   8.691  69.760  1.00  0.00    -0.095 A  
HETATM   16  C   UNL     1      -8.811   9.431  70.651  1.00  0.00    -0.275 A  
HETATM   17  C   UNL     1      -9.713   8.795  71.501  1.00  0.00    -0.361 A  
HETATM   18  F   UNL     1      -9.355   4.786  69.161  1.00  0.00    -0.134 F  
HETATM   19  F   UNL     1     -10.383   4.726  71.068  1.00  0.00    -0.283 F  
HETATM   20  C   UNL     1      -9.841   7.409  71.455  1.00  0.00    -0.194 A  
HETATM   21  C   UNL     1      -8.029   7.296  69.841  1.00  0.00    -0.122 A  
HETATM   22  C   UNL     1      -9.238   5.159  70.467  1.00  0.00    -0.146 C  
HETATM   23  F   UNL     1      -8.233   4.405  70.986  1.00  0.00    -0.074 F  
HETATM   24  C   UNL     1      -9.009   6.646  70.621  1.00  0.00    -0.151 A  
ENDBRANCH  14  15
ENDBRANCH   8  14
BRANCH   9  25
HETATM   25  O   UNL     1      -6.575  11.902  69.995  1.00  0.00    -0.069 OA 
HETATM   26  C   UNL     1      -5.941  13.150  70.239  1.00  0.00    -0.131 C  
ENDBRANCH   9  25
BRANCH  11  27
HETATM   27  N   UNL     1      -8.694  14.428  66.600  1.00  0.00    -0.439 NA 
HETATM   28  H   UNL     1      -8.372  14.552  65.640  1.00  0.00     0.000 HD 
BRANCH  27  29
HETATM   29  C   UNL     1      -9.339  15.549  67.285  1.00  0.00    -0.212 C  
HETATM   30  C   UNL     1      -9.602  16.641  66.244  1.00  0.00    -0.325 C  
BRANCH  29  31
HETATM   31  C   UNL     1     -10.673  15.111  67.918  1.00  0.00    -0.268 C  
BRANCH  31  32
HETATM   32  C   UNL     1     -10.999  15.765  69.266  1.00  0.00    -0.281 C  
BRANCH  32  33
HETATM   33  C   UNL     1     -12.095  15.079  70.087  1.00  0.00    -0.331 C  
HETATM   34  N   UNL     1     -11.796  13.668  70.340  1.00  0.00    -0.495 NA 
HETATM   35  H1  UNL     1     -12.526  13.211  70.887  1.00  0.00     0.000 HD 
HETATM   36  H2  UNL     1     -10.883  13.557  70.779  1.00  0.00     0.000 HD 
ENDBRANCH  32  33
ENDBRANCH  31  32
ENDBRANCH  29  31
ENDBRANCH  27  29
ENDBRANCH  11  27
ENDBRANCH   2   3
TORSDOF 9
ENDMDL
MODEL      203
REMARK 921   NORMALIZED FREE ENERGY PREDICTED BY IDOCK:   -4.62 KCAL/MOL
REMARK 922        TOTAL FREE ENERGY PREDICTED BY IDOCK:   -8.01 KCAL/MOL
REMARK 923 INTER-LIGAND FREE ENERGY PREDICTED BY IDOCK:   -6.14 KCAL/MOL
REMARK 924 INTRA-LIGAND FREE ENERGY PREDICTED BY IDOCK:   -1.88 KCAL/MOL
REMARK 927      BINDING AFFINITY PREDICTED BY RF-SCORE:    0.00 PKD
ROOT
HETATM    1  C   UNL     1      -9.376  10.718  62.500  1.00  0.00    -0.278 C  
HETATM    2  O   UNL     1      -9.132   9.466  63.135  1.00  0.00    -0.212 OA 
ENDROOT
BRANCH   2   3
HETATM    3  C   UNL     1      -8.827   9.595  64.472  1.00  0.00    -0.223 A  
HETATM    4  C   UNL     1      -7.759  10.399  64.790  1.00  0.00    -0.069 A  
HETATM    5  C   UNL     1      -7.471  10.617  66.142  1.00  0.00    -0.138 A  
HETATM    6  C   UNL     1      -8.377  10.139  67.143  1.00  0.00    -0.125 A  
HETATM    7  C   UNL     1      -6.134  11.232  66.466  1.00  0.00    -0.139 C  
HETATM    8  C   UNL     1      -8.469  10.533  68.523  1.00  0.00    -0.131 A  
HETATM    9  C   UNL     1      -9.154   9.720  69.445  1.00  0.00    -0.201 A  
HETATM   10  C   UNL     1      -9.291   9.152  66.697  1.00  0.00    -0.177 A  
HETATM   11  C   UNL     1      -9.987   8.352  67.625  1.00  0.00    -0.190 A  
HETATM   12  N   UNL     1      -9.522   8.909  65.391  1.00  0.00    -0.111 NA 
HETATM   13  C   UNL     1      -9.876   8.621  68.988  1.00  0.00    -0.184 A  
BRANCH   8  14
HETATM   14  O   UNL     1      -7.962  11.710  69.038  1.00  0.00    -0.064 OA 
BRANCH  14  15
HETATM   15  C   UNL     1      -8.305  12.962  68.569  1.00  0.00    -0.054 A  
HETATM   16  C   UNL     1      -7.294  13.914  68.748  1.00  0.00    -0.118 A  
HETATM   17  C   UNL     1      -7.341  15.137  68.083  1.00  0.00    -0.117 A  
HETATM   18  F   UNL     1     -10.707  13.650  65.231  1.00  0.00    -0.291 F  
HETATM   19  F   UNL     1     -10.265  15.771  65.213  1.00  0.00    -0.343 F  
HETATM   20  C   UNL     1      -8.399  15.410  67.220  1.00  0.00    -0.224 A  
HETATM   21  C   UNL     1      -9.447  13.308  67.842  1.00  0.00    -0.214 A  
HETATM   22  C   UNL     1     -10.535  14.728  66.048  1.00  0.00    -0.303 C  
HETATM   23  F   UNL     1     -11.754  14.988  66.591  1.00  0.00    -0.349 F  
HETATM   24  C   UNL     1      -9.458  14.498  67.083  1.00  0.00    -0.236 A  
ENDBRANCH  14  15
ENDBRANCH   8  14
BRANCH   9  25
HETATM   25  O   UNL     1      -9.273   9.900  70.800  1.00  0.00    -0.033 OA 
HETATM   26  C   UNL     1      -9.538   8.756  71.601  1.00  0.00    -0.293 C  
ENDBRANCH   9  25
BRANCH  11  27
HETATM   27  N   UNL     1     -10.841   7.335  67.144  1.00  0.00    -0.498 NA 
HETATM   28  H   UNL     1     -11.688   7.596  66.640  1.00  0.00     0.000 HD 
BRANCH  27  29
HETATM   29  C   UNL     1     -10.542   5.918  67.352  1.00  0.00    -0.282 C  
HETATM   30  C   UNL     1     -10.772   5.195  66.021  1.00  0.00    -0.199 C  
BRANCH  29  31
HETATM   31  C   UNL     1      -9.080   5.725  67.795  1.00  0.00    -0.106 C  
BRANCH  31  32
HETATM   32  C   UNL     1      -8.271   4.733  66.951  1.00  0.00    -0.107 C  
BRANCH  32  33
HETATM   33  C   UNL     1      -6.972   5.280  66.350  1.00  0.00    -0.067 C  
HETATM   34  N   UNL     1      -7.065   6.708  66.037  1.00  0.00    -0.061 NA 
HETATM   35  H1  UNL     1      -6.201   7.072  65.637  1.00  0.00     0.000 HD 
HETATM   36  H2  UNL     1      -7.349   7.247  66.855  1.00  0.00     0.000 HD 
ENDBRANCH  32  33
ENDBRANCH  31  32
ENDBRANCH  29  31
ENDBRANCH  27  29
ENDBRANCH  11  27
ENDBRANCH   2   3
TORSDOF 9
ENDMDL
MODEL      204
REMARK 921   NORMALIZED FREE ENERGY PREDICTED BY IDOCK:   -4.61 KCAL/MOL
REMARK 922        TOTAL FREE ENERGY PREDICTED BY IDOCK:   -8.00 KCAL/MOL
REMARK 923 INTER-LIGAND FREE ENERGY PREDICTED BY IDOCK:   -6.85 KCAL/MOL
REMARK 924 INTRA-LIGAND FREE ENERGY PREDICTED BY IDOCK:   -1.15 KCAL/MOL
REMARK 927      BINDING AFFINITY PREDICTED BY RF-SCORE:    0.00 PKD
ROOT
HETATM    1  C   UNL     1      -7.043   9.643  64.793  1.00  0.00    -0.115 C  
HETATM    2  O   UNL     1      -8.320  10.235  64.575  1.00  0.00    -0.163 OA 
ENDROOT
BRANCH   2   3
HETATM    3  C   UNL     1      -9.185  10.048  65.632  1.00  0.00    -0.186 A  
HETATM    4  C   UNL     1      -9.540   8.753  65.920  1.00  0.00    -0.255 A  
HETATM    5  C   UNL     1     -10.351   8.520  67.037  1.00  0.00    -0.379 A  
HETATM    6  C   UNL     1     -10.652   9.598  67.929  1.00  0.00    -0.308 A  
HETATM    7  C   UNL     1     -10.978   7.154  67.153  1.00  0.00    -0.342 C  
HETATM    8  C   UNL     1     -11.152   9.529  69.275  1.00  0.00    -0.082 A  
HETATM    9  C   UNL     1     -11.731  10.663  69.873  1.00  0.00    -0.317 A  
HETATM   10  C   UNL     1     -10.420  10.892  67.399  1.00  0.00    -0.224 A  
HETATM   11  C   UNL     1     -10.988  12.028  68.011  1.00  0.00    -0.223 A  
HETATM   12  N   UNL     1      -9.683  11.105  66.290  1.00  0.00    -0.204 NA 
HETATM   13  C   UNL     1     -11.671  11.891  69.218  1.00  0.00    -0.389 A  
BRANCH   8  14
HETATM   14  O   UNL     1     -11.072   8.413  70.084  1.00  0.00    -0.245 OA 
BRANCH  14  15
HETATM   15  C   UNL     1      -9.888   7.776  70.397  1.00  0.00    -0.183 A  
HETATM   16  C   UNL     1      -8.954   8.620  71.011  1.00  0.00    -0.242 A  
HETATM   17  C   UNL     1      -7.836   8.095  71.656  1.00  0.00    -0.130 A  
HETATM   18  F   UNL     1      -9.600   3.788  71.576  1.00  0.00    -0.181 F  
HETATM   19  F   UNL     1      -7.519   3.990  72.143  1.00  0.00    -0.057 F  
HETATM   20  C   UNL     1      -7.654   6.715  71.702  1.00  0.00    -0.093 A  
HETATM   21  C   UNL     1      -9.611   6.410  70.296  1.00  0.00    -0.177 A  
HETATM   22  C   UNL     1      -8.424   4.360  71.192  1.00  0.00    -0.094 C  
HETATM   23  F   UNL     1      -8.051   3.725  70.050  1.00  0.00    -0.053 F  
HETATM   24  C   UNL     1      -8.541   5.858  71.030  1.00  0.00    -0.131 A  
ENDBRANCH  14  15
ENDBRANCH   8  14
BRANCH   9  25
HETATM   25  O   UNL     1     -12.323  10.755  71.107  1.00  0.00    -0.356 OA 
HETATM   26  C   UNL     1     -12.501  12.051  71.664  1.00  0.00     0.028 C  
ENDBRANCH   9  25
BRANCH  11  27
HETATM   27  N   UNL     1     -10.788  13.294  67.419  1.00  0.00    -0.264 NA 
HETATM   28  H   UNL     1     -11.269  13.516  66.547  1.00  0.00     0.000 HD 
BRANCH  27  29
HETATM   29  C   UNL     1      -9.910  14.296  68.024  1.00  0.00    -0.224 C  
HETATM   30  C   UNL     1      -9.151  14.993  66.892  1.00  0.00    -0.269 C  
BRANCH  29  31
HETATM   31  C   UNL     1     -10.728  15.338  68.811  1.00  0.00    -0.241 C  
BRANCH  31  32
HETATM   32  C   UNL     1     -11.012  14.972  70.272  1.00  0.00    -0.238 C  
BRANCH  32  33
HETATM   33  C   UNL     1     -12.395  15.370  70.797  1.00  0.00    -0.396 C  
HETATM   34  N   UNL     1     -13.218  16.004  69.765  1.00  0.00    -0.119 NA 
HETATM   35  H1  UNL     1     -14.138  16.269  70.114  1.00  0.00     0.000 HD 
HETATM   36  H2  UNL     1     -13.294  15.412  68.938  1.00  0.00     0.000 HD 
ENDBRANCH  32  33
ENDBRANCH  31  32
ENDBRANCH  29  31
ENDBRANCH  27  29
ENDBRANCH  11  27
ENDBRANCH   2   3
TORSDOF 9
ENDMDL
MODEL      205
REMARK 921   NORMALIZED FREE ENERGY PREDICTED BY IDOCK:   -4.59 KCAL/MOL
REMARK 922        TOTAL FREE ENERGY PREDICTED BY IDOCK:   -7.98 KCAL/MOL
REMARK 923 INTER-LIGAND FREE ENERGY PREDICTED BY IDOCK:   -7.16 KCAL/MOL
REMARK 924 INTRA-LIGAND FREE ENERGY PREDICTED BY IDOCK:   -0.82 KCAL/MOL
REMARK 927      BINDING AFFINITY PREDICTED BY RF-SCORE:    0.00 PKD
ROOT
HETATM    1  C   UNL     1     -11.221  12.369  67.821  1.00  0.00    -0.275 C  
HETATM    2  O   UNL     1     -11.802  11.090  68.055  1.00  0.00    -0.593 OA 
ENDROOT
BRANCH   2   3
HETATM    3  C   UNL     1     -11.325  10.486  69.198  1.00  0.00    -0.257 A  
HETATM    4  C   UNL     1     -12.254  10.112  70.137  1.00  0.00    -0.188 A  
HETATM    5  C   UNL     1     -11.812   9.424  71.272  1.00  0.00    -0.435 A  
HETATM    6  C   UNL     1     -10.450   8.990  71.349  1.00  0.00    -0.395 A  
HETATM    7  C   UNL     1     -12.782   9.302  72.419  1.00  0.00    -0.383 C  
HETATM    8  C   UNL     1      -9.876   8.002  72.222  1.00  0.00    -0.236 A  
HETATM    9  C   UNL     1      -8.484   7.958  72.421  1.00  0.00    -0.141 A  
HETATM   10  C   UNL     1      -9.569   9.629  70.441  1.00  0.00    -0.234 A  
HETATM   11  C   UNL     1      -8.174   9.568  70.635  1.00  0.00    -0.112 A  
HETATM   12  N   UNL     1     -10.004  10.339  69.380  1.00  0.00    -0.225 NA 
HETATM   13  C   UNL     1      -7.654   8.765  71.649  1.00  0.00    -0.109 A  
BRANCH   8  14
HETATM   14  O   UNL     1     -10.596   7.022  72.876  1.00  0.00    -0.228 OA 
BRANCH  14  15
HETATM   15  C   UNL     1     -10.312   5.675  72.789  1.00  0.00    -0.193 A  
HETATM   16  C   UNL     1     -10.906   4.919  73.808  1.00  0.00    -0.376 A  
HETATM   17  C   UNL     1     -10.976   3.530  73.716  1.00  0.00    -0.308 A  
HETATM   18  F   UNL     1      -9.819   3.599  69.207  1.00  0.00    -0.252 F  
HETATM   19  F   UNL     1      -9.816   1.671  70.196  1.00  0.00    -0.161 F  
HETATM   20  C   UNL     1     -10.460   2.889  72.593  1.00  0.00    -0.180 A  
HETATM   21  C   UNL     1      -9.645   5.017  71.752  1.00  0.00    -0.205 A  
HETATM   22  C   UNL     1      -9.360   2.951  70.315  1.00  0.00    -0.149 C  
HETATM   23  F   UNL     1      -8.009   2.882  70.180  1.00  0.00    -0.043 F  
HETATM   24  C   UNL     1      -9.797   3.623  71.596  1.00  0.00    -0.230 A  
ENDBRANCH  14  15
ENDBRANCH   8  14
BRANCH   9  25
HETATM   25  O   UNL     1      -7.780   7.141  73.269  1.00  0.00    -0.085 OA 
HETATM   26  C   UNL     1      -7.461   7.641  74.561  1.00  0.00    -0.150 C  
ENDBRANCH   9  25
BRANCH  11  27
HETATM   27  N   UNL     1      -7.330  10.270  69.747  1.00  0.00    -0.151 NA 
HETATM   28  H   UNL     1      -7.031  11.215  69.988  1.00  0.00     0.000 HD 
BRANCH  27  29
HETATM   29  C   UNL     1      -6.874   9.677  68.489  1.00  0.00    -0.057 C  
HETATM   30  C   UNL     1      -5.427  10.124  68.262  1.00  0.00    -0.034 C  
BRANCH  29  31
HETATM   31  C   UNL     1      -6.931   8.139  68.556  1.00  0.00    -0.072 C  
BRANCH  31  32
HETATM   32  C   UNL     1      -7.871   7.479  67.540  1.00  0.00    -0.116 C  
BRANCH  32  33
HETATM   33  C   UNL     1      -8.906   8.406  66.895  1.00  0.00    -0.142 C  
HETATM   34  N   UNL     1     -10.195   7.741  66.693  1.00  0.00    -0.444 NA 
HETATM   35  H1  UNL     1     -10.885   8.358  66.264  1.00  0.00     0.000 HD 
HETATM   36  H2  UNL     1     -10.546   7.345  67.565  1.00  0.00     0.000 HD 
ENDBRANCH  32  33
ENDBRANCH  31  32
ENDBRANCH  29  31
ENDBRANCH  27  29
ENDBRANCH  11  27
ENDBRANCH   2   3
TORSDOF 9
ENDMDL
MODEL      206
REMARK 921   NORMALIZED FREE ENERGY PREDICTED BY IDOCK:   -4.58 KCAL/MOL
REMARK 922        TOTAL FREE ENERGY PREDICTED BY IDOCK:   -7.95 KCAL/MOL
REMARK 923 INTER-LIGAND FREE ENERGY PREDICTED BY IDOCK:   -7.08 KCAL/MOL
REMARK 924 INTRA-LIGAND FREE ENERGY PREDICTED BY IDOCK:   -0.88 KCAL/MOL
REMARK 927      BINDING AFFINITY PREDICTED BY RF-SCORE:    0.00 PKD
ROOT
HETATM    1  C   UNL     1      -5.330  14.085  70.997  1.00  0.00    -0.157 C  
HETATM    2  O   UNL     1      -6.323  14.773  70.242  1.00  0.00    -0.169 OA 
ENDROOT
BRANCH   2   3
HETATM    3  C   UNL     1      -6.963  13.960  69.332  1.00  0.00    -0.022 A  
HETATM    4  C   UNL     1      -6.743  12.609  69.445  1.00  0.00    -0.022 A  
HETATM    5  C   UNL     1      -7.440  11.748  68.590  1.00  0.00    -0.120 A  
HETATM    6  C   UNL     1      -8.468  12.274  67.743  1.00  0.00    -0.163 A  
HETATM    7  C   UNL     1      -6.960  10.322  68.515  1.00  0.00    -0.066 C  
HETATM    8  C   UNL     1      -9.516  11.561  67.065  1.00  0.00    -0.183 A  
HETATM    9  C   UNL     1     -10.208  12.166  66.000  1.00  0.00    -0.237 A  
HETATM   10  C   UNL     1      -8.431  13.679  67.564  1.00  0.00    -0.189 A  
HETATM   11  C   UNL     1      -9.140  14.283  66.506  1.00  0.00    -0.185 A  
HETATM   12  N   UNL     1      -7.712  14.498  68.358  1.00  0.00    -0.120 NA 
HETATM   13  C   UNL     1      -9.986  13.510  65.713  1.00  0.00    -0.266 A  
BRANCH   8  14
HETATM   14  O   UNL     1      -9.953  10.297  67.408  1.00  0.00    -0.176 OA 
BRANCH  14  15
HETATM   15  C   UNL     1      -9.625   9.155  66.705  1.00  0.00    -0.203 A  
HETATM   16  C   UNL     1      -8.538   9.334  65.839  1.00  0.00    -0.163 A  
HETATM   17  C   UNL     1      -7.887   8.238  65.278  1.00  0.00    -0.120 A  
HETATM   18  F   UNL     1      -9.972   5.282  68.208  1.00  0.00    -0.163 F  
HETATM   19  F   UNL     1      -8.892   4.419  66.539  1.00  0.00    -0.112 F  
HETATM   20  C   UNL     1      -8.312   6.950  65.593  1.00  0.00    -0.147 A  
HETATM   21  C   UNL     1     -10.154   7.874  66.878  1.00  0.00    -0.362 A  
HETATM   22  C   UNL     1      -9.825   5.362  66.855  1.00  0.00    -0.166 C  
HETATM   23  F   UNL     1     -10.996   4.926  66.321  1.00  0.00    -0.329 F  
HETATM   24  C   UNL     1      -9.444   6.753  66.401  1.00  0.00    -0.166 A  
ENDBRANCH  14  15
ENDBRANCH   8  14
BRANCH   9  25
HETATM   25  O   UNL     1     -11.173  11.611  65.198  1.00  0.00    -0.275 OA 
HETATM   26  C   UNL     1     -11.056  11.795  63.793  1.00  0.00    -0.436 C  
ENDBRANCH   9  25
BRANCH  11  27
HETATM   27  N   UNL     1      -9.029  15.679  66.318  1.00  0.00    -0.324 NA 
HETATM   28  H   UNL     1      -8.113  16.082  66.119  1.00  0.00     0.000 HD 
BRANCH  27  29
HETATM   29  C   UNL     1     -10.193  16.561  66.402  1.00  0.00    -0.316 C  
HETATM   30  C   UNL     1     -10.906  16.265  67.725  1.00  0.00    -0.315 C  
BRANCH  29  31
HETATM   31  C   UNL     1      -9.763  18.040  66.370  1.00  0.00    -0.324 C  
BRANCH  31  32
HETATM   32  C   UNL     1      -9.055  18.538  67.635  1.00  0.00    -0.293 C  
BRANCH  32  33
HETATM   33  C   UNL     1      -7.888  19.504  67.404  1.00  0.00    -0.257 C  
HETATM   34  N   UNL     1      -8.070  20.311  66.196  1.00  0.00    -0.534 NA 
HETATM   35  H1  UNL     1      -7.293  20.954  66.042  1.00  0.00     0.000 HD 
HETATM   36  H2  UNL     1      -8.961  20.806  66.213  1.00  0.00     0.000 HD 
ENDBRANCH  32  33
ENDBRANCH  31  32
ENDBRANCH  29  31
ENDBRANCH  27  29
ENDBRANCH  11  27
ENDBRANCH   2   3
TORSDOF 9
ENDMDL
MODEL      207
REMARK 921   NORMALIZED FREE ENERGY PREDICTED BY IDOCK:   -4.56 KCAL/MOL
REMARK 922        TOTAL FREE ENERGY PREDICTED BY IDOCK:   -7.92 KCAL/MOL
REMARK 923 INTER-LIGAND FREE ENERGY PREDICTED BY IDOCK:   -6.32 KCAL/MOL
REMARK 924 INTRA-LIGAND FREE ENERGY PREDICTED BY IDOCK:   -1.61 KCAL/MOL
REMARK 927      BINDING AFFINITY PREDICTED BY RF-SCORE:    0.00 PKD
ROOT
HETATM    1  C   UNL     1      -7.350   6.008  70.883  1.00  0.00    -0.082 C  
HETATM    2  O   UNL     1      -6.980   5.753  69.531  1.00  0.00    -0.059 OA 
ENDROOT
BRANCH   2   3
HETATM    3  C   UNL     1      -7.452   6.709  68.658  1.00  0.00    -0.088 A  
HETATM    4  C   UNL     1      -7.947   7.864  69.211  1.00  0.00    -0.117 A  
HETATM    5  C   UNL     1      -8.360   8.889  68.352  1.00  0.00    -0.125 A  
HETATM    6  C   UNL     1      -8.108   8.776  66.947  1.00  0.00    -0.101 A  
HETATM    7  C   UNL     1      -9.178  10.000  68.956  1.00  0.00    -0.180 C  
HETATM    8  C   UNL     1      -8.123   9.813  65.952  1.00  0.00    -0.114 A  
HETATM    9  C   UNL     1      -8.216   9.483  64.587  1.00  0.00    -0.146 A  
HETATM   10  C   UNL     1      -7.808   7.465  66.499  1.00  0.00    -0.098 A  
HETATM   11  C   UNL     1      -7.886   7.143  65.129  1.00  0.00    -0.124 A  
HETATM   12  N   UNL     1      -7.466   6.467  67.339  1.00  0.00    -0.090 NA 
HETATM   13  C   UNL     1      -8.129   8.150  64.196  1.00  0.00    -0.128 A  
BRANCH   8  14
HETATM   14  O   UNL     1      -8.006  11.162  66.225  1.00  0.00    -0.164 OA 
BRANCH  14  15
HETATM   15  C   UNL     1      -9.084  12.013  66.364  1.00  0.00    -0.193 A  
HETATM   16  C   UNL     1      -8.842  13.069  67.251  1.00  0.00    -0.208 A  
HETATM   17  C   UNL     1      -9.690  14.174  67.291  1.00  0.00    -0.236 A  
HETATM   18  F   UNL     1     -11.753  12.950  63.301  1.00  0.00    -0.530 F  
HETATM   19  F   UNL     1     -12.689  14.531  64.450  1.00  0.00    -0.420 F  
HETATM   20  C   UNL     1     -10.783  14.233  66.430  1.00  0.00    -0.297 A  
HETATM   21  C   UNL     1     -10.273  11.997  65.629  1.00  0.00    -0.284 A  
HETATM   22  C   UNL     1     -12.182  13.269  64.555  1.00  0.00    -0.400 C  
HETATM   23  F   UNL     1     -13.243  12.458  64.809  1.00  0.00    -0.495 F  
HETATM   24  C   UNL     1     -11.082  13.152  65.585  1.00  0.00    -0.296 A  
ENDBRANCH  14  15
ENDBRANCH   8  14
BRANCH   9  25
HETATM   25  O   UNL     1      -8.320  10.338  63.519  1.00  0.00    -0.160 OA 
HETATM   26  C   UNL     1      -9.051   9.895  62.383  1.00  0.00    -0.290 C  
ENDBRANCH   9  25
BRANCH  11  27
HETATM   27  N   UNL     1      -7.642   5.812  64.726  1.00  0.00    -0.080 NA 
HETATM   28  H   UNL     1      -6.986   5.242  65.261  1.00  0.00     0.000 HD 
BRANCH  27  29
HETATM   29  C   UNL     1      -8.306   5.227  63.559  1.00  0.00    -0.118 C  
HETATM   30  C   UNL     1      -7.239   4.511  62.728  1.00  0.00    -0.040 C  
BRANCH  29  31
HETATM   31  C   UNL     1      -9.384   4.216  63.992  1.00  0.00    -0.153 C  
BRANCH  31  32
HETATM   32  C   UNL     1      -9.632   4.138  65.503  1.00  0.00    -0.188 C  
BRANCH  32  33
HETATM   33  C   UNL     1     -10.865   4.891  66.012  1.00  0.00    -0.076 C  
HETATM   34  N   UNL     1     -10.633   5.515  67.316  1.00  0.00    -0.240 NA 
HETATM   35  H1  UNL     1     -11.453   6.017  67.656  1.00  0.00     0.000 HD 
HETATM   36  H2  UNL     1      -9.813   6.122  67.294  1.00  0.00     0.000 HD 
ENDBRANCH  32  33
ENDBRANCH  31  32
ENDBRANCH  29  31
ENDBRANCH  27  29
ENDBRANCH  11  27
ENDBRANCH   2   3
TORSDOF 9
ENDMDL
MODEL      208
REMARK 921   NORMALIZED FREE ENERGY PREDICTED BY IDOCK:   -4.55 KCAL/MOL
REMARK 922        TOTAL FREE ENERGY PREDICTED BY IDOCK:   -7.92 KCAL/MOL
REMARK 923 INTER-LIGAND FREE ENERGY PREDICTED BY IDOCK:   -7.09 KCAL/MOL
REMARK 924 INTRA-LIGAND FREE ENERGY PREDICTED BY IDOCK:   -0.83 KCAL/MOL
REMARK 927      BINDING AFFINITY PREDICTED BY RF-SCORE:    0.00 PKD
ROOT
HETATM    1  C   UNL     1      -8.777  16.890  68.619  1.00  0.00    -0.267 C  
HETATM    2  O   UNL     1      -9.509  15.712  68.291  1.00  0.00    -0.196 OA 
ENDROOT
BRANCH   2   3
HETATM    3  C   UNL     1      -8.726  14.578  68.290  1.00  0.00    -0.173 A  
HETATM    4  C   UNL     1      -7.774  14.481  69.274  1.00  0.00    -0.042 A  
HETATM    5  C   UNL     1      -7.015  13.307  69.351  1.00  0.00     0.082 A  
HETATM    6  C   UNL     1      -7.355  12.191  68.522  1.00  0.00    -0.105 A  
HETATM    7  C   UNL     1      -5.785  13.345  70.220  1.00  0.00    -0.154 C  
HETATM    8  C   UNL     1      -6.959  10.817  68.669  1.00  0.00    -0.070 A  
HETATM    9  C   UNL     1      -7.074   9.928  67.585  1.00  0.00    -0.087 A  
HETATM   10  C   UNL     1      -8.189  12.501  67.418  1.00  0.00    -0.183 A  
HETATM   11  C   UNL     1      -8.315  11.600  66.342  1.00  0.00    -0.084 A  
HETATM   12  N   UNL     1      -8.874  13.660  67.324  1.00  0.00    -0.214 NA 
HETATM   13  C   UNL     1      -7.721  10.342  66.423  1.00  0.00    -0.116 A  
BRANCH   8  14
HETATM   14  O   UNL     1      -6.498  10.257  69.844  1.00  0.00    -0.067 OA 
BRANCH  14  15
HETATM   15  C   UNL     1      -7.250   9.416  70.640  1.00  0.00    -0.128 A  
HETATM   16  C   UNL     1      -6.522   8.866  71.703  1.00  0.00    -0.076 A  
HETATM   17  C   UNL     1      -7.174   8.242  72.764  1.00  0.00    -0.136 A  
HETATM   18  F   UNL     1     -11.302   9.952  71.459  1.00  0.00    -0.424 F  
HETATM   19  F   UNL     1     -11.310   8.415  72.987  1.00  0.00    -0.398 F  
HETATM   20  C   UNL     1      -8.564   8.176  72.774  1.00  0.00    -0.269 A  
HETATM   21  C   UNL     1      -8.627   9.195  70.570  1.00  0.00    -0.252 A  
HETATM   22  C   UNL     1     -10.816   8.713  71.751  1.00  0.00    -0.325 C  
HETATM   23  F   UNL     1     -11.423   7.856  70.888  1.00  0.00    -0.269 F  
HETATM   24  C   UNL     1      -9.306   8.657  71.683  1.00  0.00    -0.333 A  
ENDBRANCH  14  15
ENDBRANCH   8  14
BRANCH   9  25
HETATM   25  O   UNL     1      -6.676   8.617  67.525  1.00  0.00    -0.064 OA 
HETATM   26  C   UNL     1      -5.406   8.333  66.953  1.00  0.00    -0.032 C  
ENDBRANCH   9  25
BRANCH  11  27
HETATM   27  N   UNL     1      -9.103  11.970  65.231  1.00  0.00    -0.404 NA 
HETATM   28  H   UNL     1      -8.749  12.671  64.581  1.00  0.00     0.000 HD 
BRANCH  27  29
HETATM   29  C   UNL     1     -10.417  11.373  64.987  1.00  0.00    -0.303 C  
HETATM   30  C   UNL     1     -10.402   9.960  65.578  1.00  0.00    -0.060 C  
BRANCH  29  31
HETATM   31  C   UNL     1     -11.528  12.199  65.662  1.00  0.00    -0.408 C  
BRANCH  31  32
HETATM   32  C   UNL     1     -12.149  13.292  64.784  1.00  0.00    -0.456 C  
BRANCH  32  33
HETATM   33  C   UNL     1     -11.697  14.723  65.090  1.00  0.00    -0.337 C  
HETATM   34  N   UNL     1     -11.557  15.531  63.876  1.00  0.00    -0.740 NA 
HETATM   35  H1  UNL     1     -11.257  16.484  64.079  1.00  0.00     0.000 HD 
HETATM   36  H2  UNL     1     -12.417  15.524  63.327  1.00  0.00     0.000 HD 
ENDBRANCH  32  33
ENDBRANCH  31  32
ENDBRANCH  29  31
ENDBRANCH  27  29
ENDBRANCH  11  27
ENDBRANCH   2   3
TORSDOF 9
ENDMDL
MODEL      209
REMARK 921   NORMALIZED FREE ENERGY PREDICTED BY IDOCK:   -4.55 KCAL/MOL
REMARK 922        TOTAL FREE ENERGY PREDICTED BY IDOCK:   -7.91 KCAL/MOL
REMARK 923 INTER-LIGAND FREE ENERGY PREDICTED BY IDOCK:   -6.75 KCAL/MOL
REMARK 924 INTRA-LIGAND FREE ENERGY PREDICTED BY IDOCK:   -1.16 KCAL/MOL
REMARK 927      BINDING AFFINITY PREDICTED BY RF-SCORE:    0.00 PKD
ROOT
HETATM    1  C   UNL     1      -7.190  16.441  69.245  1.00  0.00    -0.221 C  
HETATM    2  O   UNL     1      -7.209  15.097  69.717  1.00  0.00    -0.191 OA 
ENDROOT
BRANCH   2   3
HETATM    3  C   UNL     1      -7.365  14.176  68.704  1.00  0.00    -0.126 A  
HETATM    4  C   UNL     1      -6.374  13.236  68.562  1.00  0.00    -0.083 A  
HETATM    5  C   UNL     1      -6.540  12.236  67.596  1.00  0.00    -0.122 A  
HETATM    6  C   UNL     1      -7.788  12.123  66.905  1.00  0.00    -0.069 A  
HETATM    7  C   UNL     1      -5.325  11.417  67.245  1.00  0.00    -0.064 C  
HETATM    8  C   UNL     1      -8.294  11.005  66.155  1.00  0.00    -0.163 A  
HETATM    9  C   UNL     1      -9.355  11.184  65.248  1.00  0.00    -0.219 A  
HETATM   10  C   UNL     1      -8.617  13.270  66.980  1.00  0.00    -0.161 A  
HETATM   11  C   UNL     1      -9.689  13.437  66.080  1.00  0.00    -0.250 A  
HETATM   12  N   UNL     1      -8.418  14.257  67.877  1.00  0.00    -0.157 NA 
HETATM   13  C   UNL     1     -10.017  12.408  65.199  1.00  0.00    -0.219 A  
BRANCH   8  14
HETATM   14  O   UNL     1      -7.842   9.707  66.283  1.00  0.00    -0.100 OA 
BRANCH  14  15
HETATM   15  C   UNL     1      -8.427   8.769  67.110  1.00  0.00    -0.110 A  
HETATM   16  C   UNL     1      -7.981   7.464  66.867  1.00  0.00    -0.115 A  
HETATM   17  C   UNL     1      -8.231   6.444  67.782  1.00  0.00    -0.118 A  
HETATM   18  F   UNL     1      -9.515   9.476  71.072  1.00  0.00    -0.311 F  
HETATM   19  F   UNL     1      -9.916   7.381  71.452  1.00  0.00    -0.184 F  
HETATM   20  C   UNL     1      -8.921   6.728  68.957  1.00  0.00    -0.131 A  
HETATM   21  C   UNL     1      -9.266   9.011  68.201  1.00  0.00    -0.141 A  
HETATM   22  C   UNL     1     -10.066   8.360  70.515  1.00  0.00    -0.190 C  
HETATM   23  F   UNL     1     -11.402   8.599  70.432  1.00  0.00    -0.262 F  
HETATM   24  C   UNL     1      -9.439   8.014  69.184  1.00  0.00    -0.155 A  
ENDBRANCH  14  15
ENDBRANCH   8  14
BRANCH   9  25
HETATM   25  O   UNL     1      -9.906  10.256  64.402  1.00  0.00    -0.327 OA 
HETATM   26  C   UNL     1      -9.631  10.377  63.013  1.00  0.00    -0.302 C  
ENDBRANCH   9  25
BRANCH  11  27
HETATM   27  N   UNL     1     -10.455  14.622  66.143  1.00  0.00    -0.292 NA 
HETATM   28  H   UNL     1     -10.053  15.492  65.793  1.00  0.00     0.000 HD 
BRANCH  27  29
HETATM   29  C   UNL     1     -11.809  14.635  66.698  1.00  0.00    -0.310 C  
HETATM   30  C   UNL     1     -12.708  13.839  65.746  1.00  0.00    -0.494 C  
BRANCH  29  31
HETATM   31  C   UNL     1     -11.835  13.983  68.093  1.00  0.00    -0.402 C  
BRANCH  31  32
HETATM   32  C   UNL     1     -12.260  12.511  68.115  1.00  0.00     0.103 C  
BRANCH  32  33
HETATM   33  C   UNL     1     -11.802  11.707  69.335  1.00  0.00    -0.342 C  
HETATM   34  N   UNL     1     -12.797  10.714  69.749  1.00  0.00    -0.521 NA 
HETATM   35  H1  UNL     1     -12.492  10.179  70.562  1.00  0.00     0.000 HD 
HETATM   36  H2  UNL     1     -13.048  10.099  68.976  1.00  0.00     0.000 HD 
ENDBRANCH  32  33
ENDBRANCH  31  32
ENDBRANCH  29  31
ENDBRANCH  27  29
ENDBRANCH  11  27
ENDBRANCH   2   3
TORSDOF 9
ENDMDL
MODEL      210
REMARK 921   NORMALIZED FREE ENERGY PREDICTED BY IDOCK:   -4.54 KCAL/MOL
REMARK 922        TOTAL FREE ENERGY PREDICTED BY IDOCK:   -7.90 KCAL/MOL
REMARK 923 INTER-LIGAND FREE ENERGY PREDICTED BY IDOCK:   -7.87 KCAL/MOL
REMARK 924 INTRA-LIGAND FREE ENERGY PREDICTED BY IDOCK:   -0.03 KCAL/MOL
REMARK 927      BINDING AFFINITY PREDICTED BY RF-SCORE:    0.00 PKD
ROOT
HETATM    1  C   UNL     1      -9.440   7.568  70.647  1.00  0.00    -0.164 C  
HETATM    2  O   UNL     1      -8.619   8.191  69.664  1.00  0.00    -0.128 OA 
ENDROOT
BRANCH   2   3
HETATM    3  C   UNL     1      -9.324   9.041  68.839  1.00  0.00    -0.143 A  
HETATM    4  C   UNL     1     -10.228   9.881  69.440  1.00  0.00    -0.231 A  
HETATM    5  C   UNL     1     -10.903  10.812  68.642  1.00  0.00    -0.260 A  
HETATM    6  C   UNL     1     -10.522  10.975  67.272  1.00  0.00    -0.270 A  
HETATM    7  C   UNL     1     -12.097  11.498  69.253  1.00  0.00    -0.344 C  
HETATM    8  C   UNL     1     -10.818  12.069  66.387  1.00  0.00    -0.278 A  
HETATM    9  C   UNL     1     -10.687  11.909  64.996  1.00  0.00    -0.292 A  
HETATM   10  C   UNL     1      -9.755   9.910  66.736  1.00  0.00    -0.192 A  
HETATM   11  C   UNL     1      -9.612   9.763  65.342  1.00  0.00    -0.292 A  
HETATM   12  N   UNL     1      -9.154   8.983  67.510  1.00  0.00    -0.132 NA 
HETATM   13  C   UNL     1     -10.117  10.744  64.490  1.00  0.00    -0.415 A  
BRANCH   8  14
HETATM   14  O   UNL     1     -11.195  13.331  66.802  1.00  0.00    -0.289 OA 
BRANCH  14  15
HETATM   15  C   UNL     1     -10.334  14.409  66.856  1.00  0.00    -0.265 A  
HETATM   16  C   UNL     1     -10.831  15.545  66.205  1.00  0.00    -0.295 A  
HETATM   17  C   UNL     1     -10.247  16.794  66.405  1.00  0.00    -0.329 A  
HETATM   18  F   UNL     1      -7.829  15.263  70.077  1.00  0.00    -0.196 F  
HETATM   19  F   UNL     1      -7.301  17.213  69.292  1.00  0.00    -0.241 F  
HETATM   20  C   UNL     1      -9.164  16.915  67.272  1.00  0.00    -0.231 A  
HETATM   21  C   UNL     1      -9.146  14.506  67.584  1.00  0.00    -0.195 A  
HETATM   22  C   UNL     1      -7.524  15.919  68.922  1.00  0.00    -0.178 C  
HETATM   23  F   UNL     1      -6.321  15.433  68.517  1.00  0.00    -0.090 F  
HETATM   24  C   UNL     1      -8.607  15.777  67.877  1.00  0.00    -0.160 A  
ENDBRANCH  14  15
ENDBRANCH   8  14
BRANCH   9  25
HETATM   25  O   UNL     1     -10.998  12.811  64.011  1.00  0.00    -0.363 OA 
HETATM   26  C   UNL     1     -12.320  12.794  63.487  1.00  0.00    -0.467 C  
ENDBRANCH   9  25
BRANCH  11  27
HETATM   27  N   UNL     1      -8.894   8.654  64.842  1.00  0.00    -0.396 NA 
HETATM   28  H   UNL     1      -8.739   7.849  65.449  1.00  0.00     0.000 HD 
BRANCH  27  29
HETATM   29  C   UNL     1      -8.368   8.631  63.477  1.00  0.00    -0.114 C  
HETATM   30  C   UNL     1      -8.777   9.941  62.799  1.00  0.00    -0.215 C  
BRANCH  29  31
HETATM   31  C   UNL     1      -6.832   8.515  63.484  1.00  0.00    -0.088 C  
BRANCH  31  32
HETATM   32  C   UNL     1      -6.081   9.812  63.163  1.00  0.00    -0.112 C  
BRANCH  32  33
HETATM   33  C   UNL     1      -5.305  10.435  64.327  1.00  0.00    -0.144 C  
HETATM   34  N   UNL     1      -6.179  11.176  65.240  1.00  0.00    -0.362 NA 
HETATM   35  H1  UNL     1      -5.663  11.591  66.016  1.00  0.00     0.000 HD 
HETATM   36  H2  UNL     1      -6.942  10.590  65.577  1.00  0.00     0.000 HD 
ENDBRANCH  32  33
ENDBRANCH  31  32
ENDBRANCH  29  31
ENDBRANCH  27  29
ENDBRANCH  11  27
ENDBRANCH   2   3
TORSDOF 9
ENDMDL
MODEL      211
REMARK 921   NORMALIZED FREE ENERGY PREDICTED BY IDOCK:   -4.49 KCAL/MOL
REMARK 922        TOTAL FREE ENERGY PREDICTED BY IDOCK:   -7.82 KCAL/MOL
REMARK 923 INTER-LIGAND FREE ENERGY PREDICTED BY IDOCK:   -6.51 KCAL/MOL
REMARK 924 INTRA-LIGAND FREE ENERGY PREDICTED BY IDOCK:   -1.31 KCAL/MOL
REMARK 927      BINDING AFFINITY PREDICTED BY RF-SCORE:    0.00 PKD
ROOT
HETATM    1  C   UNL     1     -10.096  11.614  63.353  1.00  0.00    -0.440 C  
HETATM    2  O   UNL     1     -10.399  10.485  64.167  1.00  0.00    -0.313 OA 
ENDROOT
BRANCH   2   3
HETATM    3  C   UNL     1      -9.550  10.358  65.245  1.00  0.00    -0.259 A  
HETATM    4  C   UNL     1      -8.260  10.796  65.073  1.00  0.00    -0.005 A  
HETATM    5  C   UNL     1      -7.393  10.758  66.171  1.00  0.00    -0.127 A  
HETATM    6  C   UNL     1      -7.908  10.423  67.465  1.00  0.00    -0.106 A  
HETATM    7  C   UNL     1      -5.925  10.941  65.890  1.00  0.00    -0.116 C  
HETATM    8  C   UNL     1      -7.306  10.652  68.751  1.00  0.00    -0.100 A  
HETATM    9  C   UNL     1      -7.761   9.948  69.880  1.00  0.00    -0.171 A  
HETATM   10  C   UNL     1      -9.173   9.785  67.456  1.00  0.00    -0.130 A  
HETATM   11  C   UNL     1      -9.633   9.094  68.596  1.00  0.00    -0.152 A  
HETATM   12  N   UNL     1      -9.979   9.778  66.375  1.00  0.00    -0.233 NA 
HETATM   13  C   UNL     1      -8.899   9.152  69.780  1.00  0.00    -0.165 A  
BRANCH   8  14
HETATM   14  O   UNL     1      -6.306  11.573  68.995  1.00  0.00    -0.058 OA 
BRANCH  14  15
HETATM   15  C   UNL     1      -6.480  12.939  68.891  1.00  0.00    -0.091 A  
HETATM   16  C   UNL     1      -5.325  13.667  69.204  1.00  0.00    -0.073 A  
HETATM   17  C   UNL     1      -5.225  15.017  68.874  1.00  0.00    -0.096 A  
HETATM   18  F   UNL     1      -8.943  14.791  66.083  1.00  0.00    -0.291 F  
HETATM   19  F   UNL     1      -8.182  16.765  66.554  1.00  0.00    -0.215 F  
HETATM   20  C   UNL     1      -6.278  15.645  68.215  1.00  0.00    -0.120 A  
HETATM   21  C   UNL     1      -7.597  13.612  68.389  1.00  0.00    -0.132 A  
HETATM   22  C   UNL     1      -8.560  15.584  67.123  1.00  0.00    -0.215 C  
HETATM   23  F   UNL     1      -9.689  15.852  67.830  1.00  0.00    -0.215 F  
HETATM   24  C   UNL     1      -7.471  14.950  67.958  1.00  0.00    -0.133 A  
ENDBRANCH  14  15
ENDBRANCH   8  14
BRANCH   9  25
HETATM   25  O   UNL     1      -7.256   9.983  71.155  1.00  0.00    -0.250 OA 
HETATM   26  C   UNL     1      -6.234   9.054  71.491  1.00  0.00    -0.075 C  
ENDBRANCH   9  25
BRANCH  11  27
HETATM   27  N   UNL     1     -10.870   8.416  68.530  1.00  0.00    -0.435 NA 
HETATM   28  H   UNL     1     -11.732   8.959  68.483  1.00  0.00     0.000 HD 
BRANCH  27  29
HETATM   29  C   UNL     1     -10.946   6.955  68.529  1.00  0.00    -0.136 C  
HETATM   30  C   UNL     1      -9.526   6.415  68.339  1.00  0.00    -0.119 C  
BRANCH  29  31
HETATM   31  C   UNL     1     -11.518   6.435  69.862  1.00  0.00    -0.483 C  
BRANCH  31  32
HETATM   32  C   UNL     1     -10.508   5.725  70.770  1.00  0.00    -0.324 C  
BRANCH  32  33
HETATM   33  C   UNL     1     -10.773   5.841  72.274  1.00  0.00    -0.234 C  
HETATM   34  N   UNL     1     -12.202   5.794  72.589  1.00  0.00    -0.497 NA 
HETATM   35  H1  UNL     1     -12.379   5.871  73.591  1.00  0.00     0.000 HD 
HETATM   36  H2  UNL     1     -12.638   4.958  72.201  1.00  0.00     0.000 HD 
ENDBRANCH  32  33
ENDBRANCH  31  32
ENDBRANCH  29  31
ENDBRANCH  27  29
ENDBRANCH  11  27
ENDBRANCH   2   3
TORSDOF 9
ENDMDL
MODEL      212
REMARK 921   NORMALIZED FREE ENERGY PREDICTED BY IDOCK:   -4.46 KCAL/MOL
REMARK 922        TOTAL FREE ENERGY PREDICTED BY IDOCK:   -7.78 KCAL/MOL
REMARK 923 INTER-LIGAND FREE ENERGY PREDICTED BY IDOCK:   -6.72 KCAL/MOL
REMARK 924 INTRA-LIGAND FREE ENERGY PREDICTED BY IDOCK:   -1.05 KCAL/MOL
REMARK 927      BINDING AFFINITY PREDICTED BY RF-SCORE:    0.00 PKD
ROOT
HETATM    1  C   UNL     1     -12.363  13.724  65.954  1.00  0.00    -0.476 C  
HETATM    2  O   UNL     1     -12.200  12.308  65.973  1.00  0.00    -0.646 OA 
ENDROOT
BRANCH   2   3
HETATM    3  C   UNL     1     -11.443  11.872  67.039  1.00  0.00    -0.316 A  
HETATM    4  C   UNL     1     -12.094  11.714  68.238  1.00  0.00    -0.067 A  
HETATM    5  C   UNL     1     -11.375  11.195  69.321  1.00  0.00    -0.349 A  
HETATM    6  C   UNL     1     -10.048  10.698  69.114  1.00  0.00    -0.234 A  
HETATM    7  C   UNL     1     -12.005  11.321  70.684  1.00  0.00    -0.435 C  
HETATM    8  C   UNL     1      -9.277   9.832  69.965  1.00  0.00    -0.229 A  
HETATM    9  C   UNL     1      -7.884   9.736  69.800  1.00  0.00    -0.156 A  
HETATM   10  C   UNL     1      -9.433  11.125  67.911  1.00  0.00    -0.175 A  
HETATM   11  C   UNL     1      -8.038  11.011  67.743  1.00  0.00    -0.116 A  
HETATM   12  N   UNL     1     -10.124  11.676  66.893  1.00  0.00    -0.208 NA 
HETATM   13  C   UNL     1      -7.277  10.355  68.709  1.00  0.00    -0.085 A  
BRANCH   8  14
HETATM   14  O   UNL     1      -9.811   9.018  70.945  1.00  0.00    -0.218 OA 
BRANCH  14  15
HETATM   15  C   UNL     1     -10.181   7.705  70.733  1.00  0.00    -0.201 A  
HETATM   16  C   UNL     1     -10.853   7.511  69.519  1.00  0.00    -0.184 A  
HETATM   17  C   UNL     1     -11.037   6.229  69.005  1.00  0.00    -0.446 A  
HETATM   18  F   UNL     1      -7.969   4.404  71.992  1.00  0.00    -0.086 F  
HETATM   19  F   UNL     1      -9.188   3.016  70.859  1.00  0.00    -0.145 F  
HETATM   20  C   UNL     1     -10.535   5.132  69.698  1.00  0.00    -0.262 A  
HETATM   21  C   UNL     1      -9.835   6.595  71.506  1.00  0.00    -0.182 A  
HETATM   22  C   UNL     1      -9.257   4.132  71.640  1.00  0.00    -0.129 C  
HETATM   23  F   UNL     1      -9.889   3.752  72.782  1.00  0.00    -0.157 F  
HETATM   24  C   UNL     1      -9.923   5.301  70.951  1.00  0.00    -0.274 A  
ENDBRANCH  14  15
ENDBRANCH   8  14
BRANCH   9  25
HETATM   25  O   UNL     1      -6.991   9.028  70.564  1.00  0.00    -0.052 OA 
HETATM   26  C   UNL     1      -6.029   8.228  69.890  1.00  0.00    -0.025 C  
ENDBRANCH   9  25
BRANCH  11  27
HETATM   27  N   UNL     1      -7.451  11.506  66.557  1.00  0.00    -0.327 NA 
HETATM   28  H   UNL     1      -7.664  12.457  66.257  1.00  0.00     0.000 HD 
BRANCH  27  29
HETATM   29  C   UNL     1      -6.545  10.689  65.749  1.00  0.00    -0.105 C  
HETATM   30  C   UNL     1      -5.129  10.884  66.297  1.00  0.00    -0.099 C  
BRANCH  29  31
HETATM   31  C   UNL     1      -6.927   9.199  65.834  1.00  0.00    -0.088 C  
BRANCH  31  32
HETATM   32  C   UNL     1      -7.754   8.672  64.656  1.00  0.00    -0.121 C  
BRANCH  32  33
HETATM   33  C   UNL     1      -8.688   7.500  64.973  1.00  0.00     0.196 C  
HETATM   34  N   UNL     1      -8.358   6.304  64.195  1.00  0.00    -0.323 NA 
HETATM   35  H1  UNL     1      -8.980   5.523  64.406  1.00  0.00     0.000 HD 
HETATM   36  H2  UNL     1      -7.381   6.041  64.320  1.00  0.00     0.000 HD 
ENDBRANCH  32  33
ENDBRANCH  31  32
ENDBRANCH  29  31
ENDBRANCH  27  29
ENDBRANCH  11  27
ENDBRANCH   2   3
TORSDOF 9
ENDMDL
MODEL      213
REMARK 921   NORMALIZED FREE ENERGY PREDICTED BY IDOCK:   -4.45 KCAL/MOL
REMARK 922        TOTAL FREE ENERGY PREDICTED BY IDOCK:   -7.76 KCAL/MOL
REMARK 923 INTER-LIGAND FREE ENERGY PREDICTED BY IDOCK:   -7.40 KCAL/MOL
REMARK 924 INTRA-LIGAND FREE ENERGY PREDICTED BY IDOCK:   -0.35 KCAL/MOL
REMARK 927      BINDING AFFINITY PREDICTED BY RF-SCORE:    0.00 PKD
ROOT
HETATM    1  C   UNL     1      -8.774  11.027  62.966  1.00  0.00    -0.139 C  
HETATM    2  O   UNL     1      -7.896  10.127  63.637  1.00  0.00    -0.154 OA 
ENDROOT
BRANCH   2   3
HETATM    3  C   UNL     1      -8.351   9.768  64.888  1.00  0.00    -0.148 A  
HETATM    4  C   UNL     1      -8.110   8.477  65.288  1.00  0.00    -0.138 A  
HETATM    5  C   UNL     1      -8.486   8.102  66.583  1.00  0.00    -0.129 A  
HETATM    6  C   UNL     1      -8.955   9.098  67.498  1.00  0.00    -0.131 A  
HETATM    7  C   UNL     1      -8.502   6.627  66.889  1.00  0.00    -0.115 C  
HETATM    8  C   UNL     1      -9.061   9.014  68.930  1.00  0.00    -0.140 A  
HETATM    9  C   UNL     1      -9.869   9.926  69.633  1.00  0.00    -0.232 A  
HETATM   10  C   UNL     1      -9.362  10.315  66.898  1.00  0.00    -0.158 A  
HETATM   11  C   UNL     1     -10.157  11.233  67.612  1.00  0.00    -0.179 A  
HETATM   12  N   UNL     1      -9.043  10.645  65.629  1.00  0.00    -0.176 NA 
HETATM   13  C   UNL     1     -10.434  11.005  68.959  1.00  0.00    -0.242 A  
BRANCH   8  14
HETATM   14  O   UNL     1      -8.376   8.106  69.714  1.00  0.00    -0.120 OA 
BRANCH  14  15
HETATM   15  C   UNL     1      -8.953   6.979  70.263  1.00  0.00    -0.149 A  
HETATM   16  C   UNL     1     -10.342   6.926  70.082  1.00  0.00    -0.218 A  
HETATM   17  C   UNL     1     -11.044   5.743  70.301  1.00  0.00    -0.300 A  
HETATM   18  F   UNL     1      -7.123   3.236  70.420  1.00  0.00    -0.033 F  
HETATM   19  F   UNL     1      -8.943   2.250  71.058  1.00  0.00    -0.098 F  
HETATM   20  C   UNL     1     -10.356   4.597  70.691  1.00  0.00    -0.119 A  
HETATM   21  C   UNL     1      -8.296   5.879  70.820  1.00  0.00    -0.125 A  
HETATM   22  C   UNL     1      -8.204   3.382  71.236  1.00  0.00    -0.063 C  
HETATM   23  F   UNL     1      -7.728   3.322  72.508  1.00  0.00    -0.053 F  
HETATM   24  C   UNL     1      -8.976   4.649  70.947  1.00  0.00    -0.163 A  
ENDBRANCH  14  15
ENDBRANCH   8  14
BRANCH   9  25
HETATM   25  O   UNL     1     -10.144   9.944  70.977  1.00  0.00    -0.120 OA 
HETATM   26  C   UNL     1     -11.451   9.567  71.392  1.00  0.00    -0.392 C  
ENDBRANCH   9  25
BRANCH  11  27
HETATM   27  N   UNL     1     -10.598  12.406  66.960  1.00  0.00    -0.223 NA 
HETATM   28  H   UNL     1      -9.937  12.939  66.395  1.00  0.00     0.000 HD 
BRANCH  27  29
HETATM   29  C   UNL     1     -11.979  12.877  67.075  1.00  0.00    -0.325 C  
HETATM   30  C   UNL     1     -12.012  13.962  68.155  1.00  0.00    -0.385 C  
BRANCH  29  31
HETATM   31  C   UNL     1     -12.469  13.467  65.739  1.00  0.00    -0.514 C  
BRANCH  31  32
HETATM   32  C   UNL     1     -11.452  14.349  65.007  1.00  0.00    -0.372 C  
BRANCH  32  33
HETATM   33  C   UNL     1     -12.034  15.300  63.956  1.00  0.00     0.000 C  
HETATM   34  N   UNL     1     -11.486  16.653  64.070  1.00  0.00    -1.551 NA 
HETATM   35  H1  UNL     1     -11.873  17.286  63.371  1.00  0.00     0.000 HD 
HETATM   36  H2  UNL     1     -10.467  16.643  64.034  1.00  0.00     0.000 HD 
ENDBRANCH  32  33
ENDBRANCH  31  32
ENDBRANCH  29  31
ENDBRANCH  27  29
ENDBRANCH  11  27
ENDBRANCH   2   3
TORSDOF 9
ENDMDL
MODEL      214
REMARK 921   NORMALIZED FREE ENERGY PREDICTED BY IDOCK:   -4.44 KCAL/MOL
REMARK 922        TOTAL FREE ENERGY PREDICTED BY IDOCK:   -7.74 KCAL/MOL
REMARK 923 INTER-LIGAND FREE ENERGY PREDICTED BY IDOCK:   -6.07 KCAL/MOL
REMARK 924 INTRA-LIGAND FREE ENERGY PREDICTED BY IDOCK:   -1.67 KCAL/MOL
REMARK 927      BINDING AFFINITY PREDICTED BY RF-SCORE:    0.00 PKD
ROOT
HETATM    1  C   UNL     1     -13.268  11.935  63.748  1.00  0.00     0.159 C  
HETATM    2  O   UNL     1     -12.518  13.131  63.553  1.00  0.00    -0.714 OA 
ENDROOT
BRANCH   2   3
HETATM    3  C   UNL     1     -11.406  13.204  64.364  1.00  0.00    -0.363 A  
HETATM    4  C   UNL     1     -10.969  14.460  64.706  1.00  0.00    -0.409 A  
HETATM    5  C   UNL     1      -9.893  14.571  65.594  1.00  0.00    -0.337 A  
HETATM    6  C   UNL     1      -9.386  13.397  66.239  1.00  0.00    -0.137 A  
HETATM    7  C   UNL     1      -9.238  15.923  65.709  1.00  0.00    -0.241 C  
HETATM    8  C   UNL     1      -8.553  13.311  67.407  1.00  0.00    -0.204 A  
HETATM    9  C   UNL     1      -7.855  12.123  67.691  1.00  0.00    -0.153 A  
HETATM   10  C   UNL     1      -9.766  12.173  65.633  1.00  0.00    -0.207 A  
HETATM   11  C   UNL     1      -9.075  10.982  65.933  1.00  0.00    -0.197 A  
HETATM   12  N   UNL     1     -10.769  12.084  64.736  1.00  0.00    -0.293 NA 
HETATM   13  C   UNL     1      -8.100  10.983  66.930  1.00  0.00    -0.142 A  
BRANCH   8  14
HETATM   14  O   UNL     1      -8.404  14.319  68.339  1.00  0.00    -0.152 OA 
BRANCH  14  15
HETATM   15  C   UNL     1      -9.446  14.836  69.082  1.00  0.00    -0.113 A  
HETATM   16  C   UNL     1      -9.643  16.208  68.874  1.00  0.00    -0.245 A  
HETATM   17  C   UNL     1     -10.814  16.831  69.301  1.00  0.00    -0.275 A  
HETATM   18  F   UNL     1     -12.928  12.748  70.027  1.00  0.00     0.073 F  
HETATM   19  F   UNL     1     -13.914  14.519  70.793  1.00  0.00    -0.314 F  
HETATM   20  C   UNL     1     -11.803  16.080  69.930  1.00  0.00    -0.237 A  
HETATM   21  C   UNL     1     -10.360  14.126  69.864  1.00  0.00     0.506 A  
HETATM   22  C   UNL     1     -12.713  13.872  70.767  1.00  0.00    -0.313 C  
HETATM   23  F   UNL     1     -12.486  13.450  72.039  1.00  0.00    -0.289 F  
HETATM   24  C   UNL     1     -11.592  14.720  70.211  1.00  0.00    -0.333 A  
ENDBRANCH  14  15
ENDBRANCH   8  14
BRANCH   9  25
HETATM   25  O   UNL     1      -6.964  11.892  68.708  1.00  0.00    -0.091 OA 
HETATM   26  C   UNL     1      -7.154  10.733  69.508  1.00  0.00    -0.132 C  
ENDBRANCH   9  25
BRANCH  11  27
HETATM   27  N   UNL     1      -9.439   9.794  65.263  1.00  0.00    -0.261 NA 
HETATM   28  H   UNL     1     -10.347   9.743  64.801  1.00  0.00     0.000 HD 
BRANCH  27  29
HETATM   29  C   UNL     1      -8.548   8.634  65.216  1.00  0.00    -0.180 C  
HETATM   30  C   UNL     1      -9.224   7.497  65.988  1.00  0.00    -0.102 C  
BRANCH  29  31
HETATM   31  C   UNL     1      -8.303   8.191  63.761  1.00  0.00     0.005 C  
BRANCH  31  32
HETATM   32  C   UNL     1      -8.176   9.333  62.747  1.00  0.00    -0.172 C  
BRANCH  32  33
HETATM   33  C   UNL     1      -6.829  10.063  62.737  1.00  0.00    -0.127 C  
HETATM   34  N   UNL     1      -5.726   9.195  63.154  1.00  0.00    -0.083 NA 
HETATM   35  H1  UNL     1      -4.829   9.680  63.147  1.00  0.00     0.000 HD 
HETATM   36  H2  UNL     1      -5.690   8.346  62.590  1.00  0.00     0.000 HD 
ENDBRANCH  32  33
ENDBRANCH  31  32
ENDBRANCH  29  31
ENDBRANCH  27  29
ENDBRANCH  11  27
ENDBRANCH   2   3
TORSDOF 9
ENDMDL
MODEL      215
REMARK 921   NORMALIZED FREE ENERGY PREDICTED BY IDOCK:   -4.43 KCAL/MOL
REMARK 922        TOTAL FREE ENERGY PREDICTED BY IDOCK:   -7.72 KCAL/MOL
REMARK 923 INTER-LIGAND FREE ENERGY PREDICTED BY IDOCK:   -6.28 KCAL/MOL
REMARK 924 INTRA-LIGAND FREE ENERGY PREDICTED BY IDOCK:   -1.44 KCAL/MOL
REMARK 927      BINDING AFFINITY PREDICTED BY RF-SCORE:    0.00 PKD
ROOT
HETATM    1  C   UNL     1     -11.231   6.520  67.381  1.00  0.00    -0.214 C  
HETATM    2  O   UNL     1      -9.905   6.475  66.863  1.00  0.00    -0.149 OA 
ENDROOT
BRANCH   2   3
HETATM    3  C   UNL     1      -9.244   7.678  66.979  1.00  0.00    -0.138 A  
HETATM    4  C   UNL     1      -9.135   8.439  65.842  1.00  0.00    -0.225 A  
HETATM    5  C   UNL     1      -8.541   9.702  65.941  1.00  0.00    -0.146 A  
HETATM    6  C   UNL     1      -8.214  10.229  67.232  1.00  0.00    -0.121 A  
HETATM    7  C   UNL     1      -8.153  10.379  64.652  1.00  0.00    -0.122 C  
HETATM    8  C   UNL     1      -7.932  11.591  67.594  1.00  0.00    -0.126 A  
HETATM    9  C   UNL     1      -7.282  11.880  68.808  1.00  0.00    -0.112 A  
HETATM   10  C   UNL     1      -8.166   9.268  68.273  1.00  0.00    -0.115 A  
HETATM   11  C   UNL     1      -7.528   9.567  69.493  1.00  0.00    -0.092 A  
HETATM   12  N   UNL     1      -8.692   8.032  68.149  1.00  0.00    -0.126 NA 
HETATM   13  C   UNL     1      -7.058  10.858  69.727  1.00  0.00    -0.092 A  
BRANCH   8  14
HETATM   14  O   UNL     1      -8.299  12.692  66.846  1.00  0.00    -0.161 OA 
BRANCH  14  15
HETATM   15  C   UNL     1      -9.441  13.432  67.078  1.00  0.00    -0.247 A  
HETATM   16  C   UNL     1     -10.535  13.012  66.312  1.00  0.00    -0.285 A  
HETATM   17  C   UNL     1     -11.825  13.437  66.621  1.00  0.00    -0.443 A  
HETATM   18  F   UNL     1     -10.484  15.053  70.775  1.00  0.00    -0.208 F  
HETATM   19  F   UNL     1     -12.470  15.595  70.102  1.00  0.00    -0.381 F  
HETATM   20  C   UNL     1     -12.030  14.277  67.712  1.00  0.00    -0.384 A  
HETATM   21  C   UNL     1      -9.629  14.409  68.060  1.00  0.00    -0.216 A  
HETATM   22  C   UNL     1     -11.164  15.564  69.711  1.00  0.00    -0.304 C  
HETATM   23  F   UNL     1     -10.774  16.862  69.602  1.00  0.00    -0.313 F  
HETATM   24  C   UNL     1     -10.938  14.766  68.447  1.00  0.00    -0.259 A  
ENDBRANCH  14  15
ENDBRANCH   8  14
BRANCH   9  25
HETATM   25  O   UNL     1      -6.869  13.103  69.272  1.00  0.00    -0.098 OA 
HETATM   26  C   UNL     1      -5.611  13.174  69.929  1.00  0.00    -0.112 C  
ENDBRANCH   9  25
BRANCH  11  27
HETATM   27  N   UNL     1      -7.443   8.564  70.483  1.00  0.00    -0.057 NA 
HETATM   28  H   UNL     1      -6.902   7.721  70.292  1.00  0.00     0.000 HD 
BRANCH  27  29
HETATM   29  C   UNL     1      -8.113   8.702  71.777  1.00  0.00    -0.114 C  
HETATM   30  C   UNL     1      -9.602   8.934  71.507  1.00  0.00    -0.362 C  
BRANCH  29  31
HETATM   31  C   UNL     1      -7.938   7.428  72.624  1.00  0.00    -0.116 C  
BRANCH  31  32
HETATM   32  C   UNL     1      -9.209   6.591  72.810  1.00  0.00    -0.143 C  
BRANCH  32  33
HETATM   33  C   UNL     1      -9.021   5.073  72.730  1.00  0.00    -0.120 C  
HETATM   34  N   UNL     1     -10.297   4.364  72.609  1.00  0.00    -0.183 NA 
HETATM   35  H1  UNL     1     -10.172   3.353  72.556  1.00  0.00     0.000 HD 
HETATM   36  H2  UNL     1     -10.839   4.711  71.819  1.00  0.00     0.000 HD 
ENDBRANCH  32  33
ENDBRANCH  31  32
ENDBRANCH  29  31
ENDBRANCH  27  29
ENDBRANCH  11  27
ENDBRANCH   2   3
TORSDOF 9
ENDMDL
MODEL      216
REMARK 921   NORMALIZED FREE ENERGY PREDICTED BY IDOCK:   -4.40 KCAL/MOL
REMARK 922        TOTAL FREE ENERGY PREDICTED BY IDOCK:   -7.69 KCAL/MOL
REMARK 923 INTER-LIGAND FREE ENERGY PREDICTED BY IDOCK:   -5.60 KCAL/MOL
REMARK 924 INTRA-LIGAND FREE ENERGY PREDICTED BY IDOCK:   -2.10 KCAL/MOL
REMARK 927      BINDING AFFINITY PREDICTED BY RF-SCORE:    0.00 PKD
ROOT
HETATM    1  C   UNL     1     -11.252   6.784  71.088  1.00  0.00    -0.283 C  
HETATM    2  O   UNL     1     -11.393   8.030  70.412  1.00  0.00    -0.261 OA 
ENDROOT
BRANCH   2   3
HETATM    3  C   UNL     1     -10.357   8.286  69.540  1.00  0.00    -0.219 A  
HETATM    4  C   UNL     1      -9.288   7.425  69.578  1.00  0.00    -0.156 A  
HETATM    5  C   UNL     1      -8.254   7.607  68.652  1.00  0.00    -0.128 A  
HETATM    6  C   UNL     1      -8.410   8.568  67.601  1.00  0.00    -0.129 A  
HETATM    7  C   UNL     1      -6.969   6.865  68.907  1.00  0.00    -0.082 C  
HETATM    8  C   UNL     1      -7.664   8.679  66.377  1.00  0.00    -0.095 A  
HETATM    9  C   UNL     1      -7.694   9.875  65.637  1.00  0.00    -0.121 A  
HETATM   10  C   UNL     1      -9.435   9.523  67.814  1.00  0.00    -0.131 A  
HETATM   11  C   UNL     1      -9.471  10.713  67.059  1.00  0.00    -0.164 A  
HETATM   12  N   UNL     1     -10.395   9.367  68.748  1.00  0.00    -0.204 NA 
HETATM   13  C   UNL     1      -8.573  10.889  66.007  1.00  0.00    -0.179 A  
BRANCH   8  14
HETATM   14  O   UNL     1      -6.923   7.658  65.816  1.00  0.00    -0.058 OA 
BRANCH  14  15
HETATM   15  C   UNL     1      -7.466   6.655  65.039  1.00  0.00    -0.089 A  
HETATM   16  C   UNL     1      -6.617   6.237  64.005  1.00  0.00    -0.033 A  
HETATM   17  C   UNL     1      -6.865   5.053  63.315  1.00  0.00    -0.038 A  
HETATM   18  F   UNL     1      -9.979   3.658  66.481  1.00  0.00    -0.196 F  
HETATM   19  F   UNL     1      -9.881   2.532  64.632  1.00  0.00    -0.146 F  
HETATM   20  C   UNL     1      -7.962   4.270  63.665  1.00  0.00    -0.089 A  
HETATM   21  C   UNL     1      -8.655   5.958  65.268  1.00  0.00    -0.119 A  
HETATM   22  C   UNL     1      -9.974   3.800  65.126  1.00  0.00    -0.130 C  
HETATM   23  F   UNL     1     -11.213   4.245  64.787  1.00  0.00    -0.363 F  
HETATM   24  C   UNL     1      -8.863   4.708  64.648  1.00  0.00    -0.153 A  
ENDBRANCH  14  15
ENDBRANCH   8  14
BRANCH   9  25
HETATM   25  O   UNL     1      -6.990  10.180  64.500  1.00  0.00    -0.135 OA 
HETATM   26  C   UNL     1      -5.601  10.453  64.632  1.00  0.00    -0.136 C  
ENDBRANCH   9  25
BRANCH  11  27
HETATM   27  N   UNL     1     -10.469  11.671  67.342  1.00  0.00    -0.204 NA 
HETATM   28  H   UNL     1     -11.450  11.408  67.253  1.00  0.00     0.000 HD 
BRANCH  27  29
HETATM   29  C   UNL     1     -10.131  13.033  67.759  1.00  0.00    -0.229 C  
HETATM   30  C   UNL     1     -10.376  13.958  66.565  1.00  0.00    -0.286 C  
BRANCH  29  31
HETATM   31  C   UNL     1     -11.012  13.477  68.942  1.00  0.00    -0.286 C  
BRANCH  31  32
HETATM   32  C   UNL     1     -12.229  12.587  69.216  1.00  0.00    -0.087 C  
BRANCH  32  33
HETATM   33  C   UNL     1     -12.347  12.046  70.644  1.00  0.00    -0.304 C  
HETATM   34  N   UNL     1     -12.756  10.640  70.671  1.00  0.00    -0.364 NA 
HETATM   35  H1  UNL     1     -12.835  10.279  71.621  1.00  0.00     0.000 HD 
HETATM   36  H2  UNL     1     -12.132  10.063  70.108  1.00  0.00     0.000 HD 
ENDBRANCH  32  33
ENDBRANCH  31  32
ENDBRANCH  29  31
ENDBRANCH  27  29
ENDBRANCH  11  27
ENDBRANCH   2   3
TORSDOF 9
ENDMDL
MODEL      217
REMARK 921   NORMALIZED FREE ENERGY PREDICTED BY IDOCK:   -4.40 KCAL/MOL
REMARK 922        TOTAL FREE ENERGY PREDICTED BY IDOCK:   -7.68 KCAL/MOL
REMARK 923 INTER-LIGAND FREE ENERGY PREDICTED BY IDOCK:   -6.44 KCAL/MOL
REMARK 924 INTRA-LIGAND FREE ENERGY PREDICTED BY IDOCK:   -1.24 KCAL/MOL
REMARK 927      BINDING AFFINITY PREDICTED BY RF-SCORE:    0.00 PKD
ROOT
HETATM    1  C   UNL     1      -9.089  10.976  63.031  1.00  0.00    -0.291 C  
HETATM    2  O   UNL     1      -9.609  11.680  64.156  1.00  0.00    -0.202 OA 
ENDROOT
BRANCH   2   3
HETATM    3  C   UNL     1      -9.398  11.018  65.346  1.00  0.00    -0.216 A  
HETATM    4  C   UNL     1     -10.027   9.807  65.502  1.00  0.00    -0.329 A  
HETATM    5  C   UNL     1      -9.771   9.070  66.664  1.00  0.00    -0.295 A  
HETATM    6  C   UNL     1      -8.753   9.511  67.569  1.00  0.00    -0.126 A  
HETATM    7  C   UNL     1     -10.694   7.916  66.959  1.00  0.00    -0.289 C  
HETATM    8  C   UNL     1      -8.097   8.762  68.606  1.00  0.00    -0.116 A  
HETATM    9  C   UNL     1      -7.397   9.431  69.627  1.00  0.00    -0.077 A  
HETATM   10  C   UNL     1      -8.356  10.862  67.407  1.00  0.00    -0.117 A  
HETATM   11  C   UNL     1      -7.641  11.523  68.426  1.00  0.00    -0.125 A  
HETATM   12  N   UNL     1      -8.655  11.584  66.308  1.00  0.00    -0.166 NA 
HETATM   13  C   UNL     1      -7.207  10.808  69.541  1.00  0.00    -0.132 A  
BRANCH   8  14
HETATM   14  O   UNL     1      -8.052   7.383  68.667  1.00  0.00    -0.121 OA 
BRANCH  14  15
HETATM   15  C   UNL     1      -9.009   6.612  69.296  1.00  0.00    -0.135 A  
HETATM   16  C   UNL     1      -8.860   5.241  69.051  1.00  0.00    -0.111 A  
HETATM   17  C   UNL     1      -9.539   4.302  69.826  1.00  0.00    -0.279 A  
HETATM   18  F   UNL     1     -10.679   7.499  73.011  1.00  0.00    -0.287 F  
HETATM   19  F   UNL     1     -11.657   5.571  73.156  1.00  0.00    -0.321 F  
HETATM   20  C   UNL     1     -10.363   4.732  70.862  1.00  0.00    -0.187 A  
HETATM   21  C   UNL     1      -9.967   7.041  70.218  1.00  0.00    -0.186 A  
HETATM   22  C   UNL     1     -11.362   6.574  72.280  1.00  0.00    -0.282 C  
HETATM   23  F   UNL     1     -12.550   7.150  71.957  1.00  0.00    -0.327 F  
HETATM   24  C   UNL     1     -10.581   6.103  71.075  1.00  0.00    -0.301 A  
ENDBRANCH  14  15
ENDBRANCH   8  14
BRANCH   9  25
HETATM   25  O   UNL     1      -6.784   8.885  70.726  1.00  0.00    -0.045 OA 
HETATM   26  C   UNL     1      -7.527   8.816  71.936  1.00  0.00    -0.008 C  
ENDBRANCH   9  25
BRANCH  11  27
HETATM   27  N   UNL     1      -7.317  12.888  68.258  1.00  0.00    -0.108 NA 
HETATM   28  H   UNL     1      -6.548  13.143  67.638  1.00  0.00     0.000 HD 
BRANCH  27  29
HETATM   29  C   UNL     1      -8.057  13.944  68.949  1.00  0.00     0.033 C  
HETATM   30  C   UNL     1      -7.101  15.123  69.153  1.00  0.00    -0.154 C  
BRANCH  29  31
HETATM   31  C   UNL     1      -9.267  14.403  68.114  1.00  0.00    -0.199 C  
BRANCH  31  32
HETATM   32  C   UNL     1     -10.626  13.892  68.604  1.00  0.00    -0.265 C  
BRANCH  32  33
HETATM   33  C   UNL     1     -11.750  14.931  68.644  1.00  0.00    -0.330 C  
HETATM   34  N   UNL     1     -12.043  15.378  70.007  1.00  0.00    -0.341 NA 
HETATM   35  H1  UNL     1     -12.791  16.071  70.034  1.00  0.00     0.000 HD 
HETATM   36  H2  UNL     1     -11.203  15.726  70.470  1.00  0.00     0.000 HD 
ENDBRANCH  32  33
ENDBRANCH  31  32
ENDBRANCH  29  31
ENDBRANCH  27  29
ENDBRANCH  11  27
ENDBRANCH   2   3
TORSDOF 9
ENDMDL
MODEL      218
REMARK 921   NORMALIZED FREE ENERGY PREDICTED BY IDOCK:   -4.38 KCAL/MOL
REMARK 922        TOTAL FREE ENERGY PREDICTED BY IDOCK:   -7.66 KCAL/MOL
REMARK 923 INTER-LIGAND FREE ENERGY PREDICTED BY IDOCK:   -6.17 KCAL/MOL
REMARK 924 INTRA-LIGAND FREE ENERGY PREDICTED BY IDOCK:   -1.49 KCAL/MOL
REMARK 927      BINDING AFFINITY PREDICTED BY RF-SCORE:    0.00 PKD
ROOT
HETATM    1  C   UNL     1     -10.046  15.397  67.287  1.00  0.00    -0.238 C  
HETATM    2  O   UNL     1      -9.428  14.569  66.305  1.00  0.00    -0.289 OA 
ENDROOT
BRANCH   2   3
HETATM    3  C   UNL     1      -9.072  13.332  66.796  1.00  0.00    -0.210 A  
HETATM    4  C   UNL     1      -8.304  13.314  67.934  1.00  0.00    -0.163 A  
HETATM    5  C   UNL     1      -7.992  12.075  68.506  1.00  0.00    -0.132 A  
HETATM    6  C   UNL     1      -8.604  10.887  67.993  1.00  0.00    -0.131 A  
HETATM    7  C   UNL     1      -6.908  12.058  69.553  1.00  0.00     0.021 C  
HETATM    8  C   UNL     1      -8.705   9.595  68.616  1.00  0.00    -0.124 A  
HETATM    9  C   UNL     1      -9.006   8.459  67.844  1.00  0.00    -0.137 A  
HETATM   10  C   UNL     1      -9.178  11.021  66.704  1.00  0.00    -0.167 A  
HETATM   11  C   UNL     1      -9.493   9.879  65.940  1.00  0.00    -0.215 A  
HETATM   12  N   UNL     1      -9.424  12.219  66.136  1.00  0.00    -0.237 NA 
HETATM   13  C   UNL     1      -9.363   8.612  66.506  1.00  0.00    -0.257 A  
BRANCH   8  14
HETATM   14  O   UNL     1      -8.571   9.367  69.972  1.00  0.00    -0.163 OA 
BRANCH  14  15
HETATM   15  C   UNL     1      -9.618   9.009  70.796  1.00  0.00    -0.249 A  
HETATM   16  C   UNL     1      -9.208   8.305  71.936  1.00  0.00    -0.272 A  
HETATM   17  C   UNL     1     -10.074   8.124  73.011  1.00  0.00    -0.290 A  
HETATM   18  F   UNL     1     -13.055  11.299  71.367  1.00  0.00    -0.451 F  
HETATM   19  F   UNL     1     -13.736  10.068  73.014  1.00  0.00    -0.004 F  
HETATM   20  C   UNL     1     -11.358   8.660  72.958  1.00  0.00     0.603 A  
HETATM   21  C   UNL     1     -10.957   9.391  70.676  1.00  0.00    -0.352 A  
HETATM   22  C   UNL     1     -13.151  10.005  71.784  1.00  0.00    -0.457 C  
HETATM   23  F   UNL     1     -14.059   9.411  70.965  1.00  0.00    -0.373 F  
HETATM   24  C   UNL     1     -11.811   9.305  71.795  1.00  0.00    -0.454 A  
ENDBRANCH  14  15
ENDBRANCH   8  14
BRANCH   9  25
HETATM   25  O   UNL     1      -9.065   7.151  68.255  1.00  0.00    -0.135 OA 
HETATM   26  C   UNL     1     -10.339   6.522  68.289  1.00  0.00    -0.190 C  
ENDBRANCH   9  25
BRANCH  11  27
HETATM   27  N   UNL     1     -10.004  10.051  64.634  1.00  0.00    -0.391 NA 
HETATM   28  H   UNL     1     -10.972  10.350  64.515  1.00  0.00     0.000 HD 
BRANCH  27  29
HETATM   29  C   UNL     1      -9.180   9.811  63.448  1.00  0.00    -0.176 C  
HETATM   30  C   UNL     1      -9.650  10.774  62.354  1.00  0.00    -0.172 C  
BRANCH  29  31
HETATM   31  C   UNL     1      -7.693  10.067  63.754  1.00  0.00    -0.148 C  
BRANCH  31  32
HETATM   32  C   UNL     1      -6.706   9.298  62.868  1.00  0.00    -0.093 C  
BRANCH  32  33
HETATM   33  C   UNL     1      -6.844   7.772  62.893  1.00  0.00    -0.079 C  
HETATM   34  N   UNL     1      -6.847   7.240  64.257  1.00  0.00    -0.046 NA 
HETATM   35  H1  UNL     1      -6.939   6.224  64.275  1.00  0.00     0.000 HD 
HETATM   36  H2  UNL     1      -7.568   7.684  64.825  1.00  0.00     0.000 HD 
ENDBRANCH  32  33
ENDBRANCH  31  32
ENDBRANCH  29  31
ENDBRANCH  27  29
ENDBRANCH  11  27
ENDBRANCH   2   3
TORSDOF 9
ENDMDL
MODEL      219
REMARK 921   NORMALIZED FREE ENERGY PREDICTED BY IDOCK:   -4.33 KCAL/MOL
REMARK 922        TOTAL FREE ENERGY PREDICTED BY IDOCK:   -7.58 KCAL/MOL
REMARK 923 INTER-LIGAND FREE ENERGY PREDICTED BY IDOCK:   -7.18 KCAL/MOL
REMARK 924 INTRA-LIGAND FREE ENERGY PREDICTED BY IDOCK:   -0.40 KCAL/MOL
REMARK 927      BINDING AFFINITY PREDICTED BY RF-SCORE:    0.00 PKD
ROOT
HETATM    1  C   UNL     1      -7.657   4.822  67.029  1.00  0.00    -0.087 C  
HETATM    2  O   UNL     1      -7.783   6.184  66.631  1.00  0.00    -0.100 OA 
ENDROOT
BRANCH   2   3
HETATM    3  C   UNL     1      -8.792   6.845  67.297  1.00  0.00    -0.118 A  
HETATM    4  C   UNL     1      -9.424   6.159  68.305  1.00  0.00    -0.117 A  
HETATM    5  C   UNL     1     -10.398   6.827  69.055  1.00  0.00    -0.212 A  
HETATM    6  C   UNL     1     -10.593   8.233  68.866  1.00  0.00    -0.160 A  
HETATM    7  C   UNL     1     -11.286   5.981  69.931  1.00  0.00    -0.438 C  
HETATM    8  C   UNL     1     -11.262   9.165  69.733  1.00  0.00    -0.056 A  
HETATM    9  C   UNL     1     -11.681  10.414  69.239  1.00  0.00    -0.140 A  
HETATM   10  C   UNL     1     -10.052   8.753  67.664  1.00  0.00    -0.216 A  
HETATM   11  C   UNL     1     -10.462  10.012  67.181  1.00  0.00    -0.244 A  
HETATM   12  N   UNL     1      -9.155   8.078  66.915  1.00  0.00    -0.145 NA 
HETATM   13  C   UNL     1     -11.304  10.807  67.957  1.00  0.00    -0.378 A  
BRANCH   8  14
HETATM   14  O   UNL     1     -11.500   8.953  71.076  1.00  0.00    -0.272 OA 
BRANCH  14  15
HETATM   15  C   UNL     1     -10.535   8.533  71.969  1.00  0.00    -0.336 A  
HETATM   16  C   UNL     1     -11.034   7.675  72.958  1.00  0.00    -0.457 A  
HETATM   17  C   UNL     1     -10.169   6.928  73.754  1.00  0.00    -0.396 A  
HETATM   18  F   UNL     1      -6.550   7.828  70.969  1.00  0.00    -0.038 F  
HETATM   19  F   UNL     1      -6.116   6.910  72.884  1.00  0.00    -0.053 F  
HETATM   20  C   UNL     1      -8.795   7.025  73.556  1.00  0.00    -0.171 A  
HETATM   21  C   UNL     1      -9.158   8.757  71.892  1.00  0.00    -0.291 A  
HETATM   22  C   UNL     1      -6.795   7.942  72.305  1.00  0.00    -0.067 C  
HETATM   23  F   UNL     1      -6.168   9.078  72.709  1.00  0.00    -0.093 F  
HETATM   24  C   UNL     1      -8.274   7.933  72.619  1.00  0.00    -0.184 A  
ENDBRANCH  14  15
ENDBRANCH   8  14
BRANCH   9  25
HETATM   25  O   UNL     1     -12.393  11.384  69.897  1.00  0.00    -0.273 OA 
HETATM   26  C   UNL     1     -11.950  12.729  69.778  1.00  0.00    -0.292 C  
ENDBRANCH   9  25
BRANCH  11  27
HETATM   27  N   UNL     1      -9.950  10.470  65.948  1.00  0.00    -0.241 NA 
HETATM   28  H   UNL     1      -9.664   9.789  65.244  1.00  0.00     0.000 HD 
BRANCH  27  29
HETATM   29  C   UNL     1      -9.818  11.898  65.652  1.00  0.00    -0.241 C  
HETATM   30  C   UNL     1     -10.951  12.281  64.696  1.00  0.00    -0.349 C  
BRANCH  29  31
HETATM   31  C   UNL     1      -9.928  12.736  66.940  1.00  0.00    -0.232 C  
BRANCH  31  32
HETATM   32  C   UNL     1      -9.249  14.109  66.881  1.00  0.00    -0.270 C  
BRANCH  32  33
HETATM   33  C   UNL     1      -7.966  14.249  67.706  1.00  0.00    -0.168 C  
HETATM   34  N   UNL     1      -8.086  13.626  69.026  1.00  0.00    -0.341 NA 
HETATM   35  H1  UNL     1      -7.233  13.719  69.576  1.00  0.00     0.000 HD 
HETATM   36  H2  UNL     1      -8.370  12.649  68.948  1.00  0.00     0.000 HD 
ENDBRANCH  32  33
ENDBRANCH  31  32
ENDBRANCH  29  31
ENDBRANCH  27  29
ENDBRANCH  11  27
ENDBRANCH   2   3
TORSDOF 9
ENDMDL
MODEL      220
REMARK 921   NORMALIZED FREE ENERGY PREDICTED BY IDOCK:   -4.32 KCAL/MOL
REMARK 922        TOTAL FREE ENERGY PREDICTED BY IDOCK:   -7.57 KCAL/MOL
REMARK 923 INTER-LIGAND FREE ENERGY PREDICTED BY IDOCK:   -7.03 KCAL/MOL
REMARK 924 INTRA-LIGAND FREE ENERGY PREDICTED BY IDOCK:   -0.54 KCAL/MOL
REMARK 927      BINDING AFFINITY PREDICTED BY RF-SCORE:    0.00 PKD
ROOT
HETATM    1  C   UNL     1     -12.558  11.655  63.211  1.00  0.00    -0.112 C  
HETATM    2  O   UNL     1     -13.087  12.305  64.363  1.00  0.00    -0.780 OA 
ENDROOT
BRANCH   2   3
HETATM    3  C   UNL     1     -12.111  12.873  65.152  1.00  0.00    -0.445 A  
HETATM    4  C   UNL     1     -12.111  14.243  65.250  1.00  0.00    -0.400 A  
HETATM    5  C   UNL     1     -11.185  14.849  66.107  1.00  0.00    -0.325 A  
HETATM    6  C   UNL     1     -10.383  14.033  66.969  1.00  0.00    -0.267 A  
HETATM    7  C   UNL     1     -10.993  16.336  65.965  1.00  0.00    -0.012 C  
HETATM    8  C   UNL     1      -9.644  14.429  68.137  1.00  0.00    -0.218 A  
HETATM    9  C   UNL     1      -8.631  13.597  68.648  1.00  0.00    -0.031 A  
HETATM   10  C   UNL     1     -10.321  12.665  66.607  1.00  0.00    -0.236 A  
HETATM   11  C   UNL     1      -9.315  11.831  67.134  1.00  0.00    -0.177 A  
HETATM   12  N   UNL     1     -11.183  12.101  65.736  1.00  0.00    -0.327 NA 
HETATM   13  C   UNL     1      -8.458  12.321  68.118  1.00  0.00    -0.176 A  
BRANCH   8  14
HETATM   14  O   UNL     1      -9.879  15.582  68.859  1.00  0.00    -0.198 OA 
BRANCH  14  15
HETATM   15  C   UNL     1     -10.971  15.760  69.685  1.00  0.00    -0.306 A  
HETATM   16  C   UNL     1     -12.189  15.452  69.064  1.00  0.00    -0.167 A  
HETATM   17  C   UNL     1     -13.350  15.289  69.816  1.00  0.00     0.762 A  
HETATM   18  F   UNL     1     -10.949  15.076  73.798  1.00  0.00     0.253 F  
HETATM   19  F   UNL     1     -13.101  15.269  73.954  1.00  0.00    -0.574 F  
HETATM   20  C   UNL     1     -13.297  15.419  71.201  1.00  0.00    -0.580 A  
HETATM   21  C   UNL     1     -10.959  16.060  71.050  1.00  0.00    -0.099 A  
HETATM   22  C   UNL     1     -12.006  15.805  73.342  1.00  0.00    -0.431 C  
HETATM   23  F   UNL     1     -11.857  17.052  73.864  1.00  0.00    -0.466 F  
HETATM   24  C   UNL     1     -12.102  15.797  71.834  1.00  0.00    -0.548 A  
ENDBRANCH  14  15
ENDBRANCH   8  14
BRANCH   9  25
HETATM   25  O   UNL     1      -7.783  13.849  69.697  1.00  0.00     0.308 OA 
HETATM   26  C   UNL     1      -6.714  14.761  69.482  1.00  0.00    -0.160 C  
ENDBRANCH   9  25
BRANCH  11  27
HETATM   27  N   UNL     1      -9.244  10.488  66.702  1.00  0.00    -0.155 NA 
HETATM   28  H   UNL     1      -9.660   9.758  67.280  1.00  0.00     0.000 HD 
BRANCH  27  29
HETATM   29  C   UNL     1      -8.590  10.118  65.446  1.00  0.00    -0.155 C  
HETATM   30  C   UNL     1      -7.089  10.373  65.611  1.00  0.00    -0.142 C  
BRANCH  29  31
HETATM   31  C   UNL     1      -8.825   8.630  65.124  1.00  0.00    -0.147 C  
BRANCH  31  32
HETATM   32  C   UNL     1      -8.815   7.693  66.338  1.00  0.00    -0.179 C  
BRANCH  32  33
HETATM   33  C   UNL     1     -10.112   6.916  66.586  1.00  0.00    -0.141 C  
HETATM   34  N   UNL     1     -10.196   5.705  65.767  1.00  0.00    -0.396 NA 
HETATM   35  H1  UNL     1     -11.060   5.188  65.931  1.00  0.00     0.000 HD 
HETATM   36  H2  UNL     1      -9.379   5.111  65.901  1.00  0.00     0.000 HD 
ENDBRANCH  32  33
ENDBRANCH  31  32
ENDBRANCH  29  31
ENDBRANCH  27  29
ENDBRANCH  11  27
ENDBRANCH   2   3
TORSDOF 9
ENDMDL
MODEL      221
REMARK 921   NORMALIZED FREE ENERGY PREDICTED BY IDOCK:   -4.32 KCAL/MOL
REMARK 922        TOTAL FREE ENERGY PREDICTED BY IDOCK:   -7.57 KCAL/MOL
REMARK 923 INTER-LIGAND FREE ENERGY PREDICTED BY IDOCK:   -6.77 KCAL/MOL
REMARK 924 INTRA-LIGAND FREE ENERGY PREDICTED BY IDOCK:   -0.80 KCAL/MOL
REMARK 927      BINDING AFFINITY PREDICTED BY RF-SCORE:    0.00 PKD
ROOT
HETATM    1  C   UNL     1     -10.497  18.049  68.042  1.00  0.00    -0.375 C  
HETATM    2  O   UNL     1     -11.371  17.006  68.466  1.00  0.00    -0.162 OA 
ENDROOT
BRANCH   2   3
HETATM    3  C   UNL     1     -10.787  15.760  68.402  1.00  0.00    -0.297 A  
HETATM    4  C   UNL     1     -11.614  14.702  68.115  1.00  0.00    -0.362 A  
HETATM    5  C   UNL     1     -11.042  13.433  67.963  1.00  0.00    -0.281 A  
HETATM    6  C   UNL     1      -9.616  13.299  67.948  1.00  0.00    -0.217 A  
HETATM    7  C   UNL     1     -11.981  12.255  67.961  1.00  0.00    -0.251 C  
HETATM    8  C   UNL     1      -8.829  12.193  67.473  1.00  0.00    -0.175 A  
HETATM    9  C   UNL     1      -7.483  12.067  67.859  1.00  0.00    -0.114 A  
HETATM   10  C   UNL     1      -8.908  14.409  68.473  1.00  0.00    -0.182 A  
HETATM   11  C   UNL     1      -7.554  14.282  68.843  1.00  0.00    -0.113 A  
HETATM   12  N   UNL     1      -9.481  15.613  68.670  1.00  0.00    -0.196 NA 
HETATM   13  C   UNL     1      -6.872  13.098  68.568  1.00  0.00    -0.099 A  
BRANCH   8  14
HETATM   14  O   UNL     1      -9.285  11.227  66.598  1.00  0.00    -0.171 OA 
BRANCH  14  15
HETATM   15  C   UNL     1      -9.670   9.960  66.989  1.00  0.00    -0.182 A  
HETATM   16  C   UNL     1      -9.459   8.990  66.000  1.00  0.00    -0.323 A  
HETATM   17  C   UNL     1      -9.508   7.633  66.311  1.00  0.00    -0.176 A  
HETATM   18  F   UNL     1      -9.363   8.501  70.882  1.00  0.00    -0.153 F  
HETATM   19  F   UNL     1      -9.834   6.474  70.278  1.00  0.00    -0.168 F  
HETATM   20  C   UNL     1      -9.756   7.237  67.623  1.00  0.00    -0.173 A  
HETATM   21  C   UNL     1     -10.088   9.558  68.260  1.00  0.00    -0.210 A  
HETATM   22  C   UNL     1     -10.173   7.777  70.060  1.00  0.00    -0.210 C  
HETATM   23  F   UNL     1     -11.434   7.923  70.546  1.00  0.00    -0.273 F  
HETATM   24  C   UNL     1     -10.040   8.193  68.612  1.00  0.00    -0.211 A  
ENDBRANCH  14  15
ENDBRANCH   8  14
BRANCH   9  25
HETATM   25  O   UNL     1      -6.615  11.045  67.567  1.00  0.00    -0.063 OA 
HETATM   26  C   UNL     1      -5.563  10.784  68.486  1.00  0.00    -0.040 C  
ENDBRANCH   9  25
BRANCH  11  27
HETATM   27  N   UNL     1      -6.898  15.390  69.422  1.00  0.00    -0.160 NA 
HETATM   28  H   UNL     1      -7.068  15.611  70.403  1.00  0.00     0.000 HD 
BRANCH  27  29
HETATM   29  C   UNL     1      -5.979  16.229  68.652  1.00  0.00    -0.109 C  
HETATM   30  C   UNL     1      -6.477  16.253  67.204  1.00  0.00    -0.214 C  
BRANCH  29  31
HETATM   31  C   UNL     1      -5.951  17.665  69.209  1.00  0.00    -0.225 C  
BRANCH  31  32
HETATM   32  C   UNL     1      -5.302  17.813  70.590  1.00  0.00    -0.268 C  
BRANCH  32  33
HETATM   33  C   UNL     1      -5.401  19.204  71.222  1.00  0.00    -0.287 C  
HETATM   34  N   UNL     1      -6.376  20.056  70.537  1.00  0.00    -0.324 NA 
HETATM   35  H1  UNL     1      -6.443  20.982  70.958  1.00  0.00     0.000 HD 
HETATM   36  H2  UNL     1      -7.290  19.606  70.491  1.00  0.00     0.000 HD 
ENDBRANCH  32  33
ENDBRANCH  31  32
ENDBRANCH  29  31
ENDBRANCH  27  29
ENDBRANCH  11  27
ENDBRANCH   2   3
TORSDOF 9
ENDMDL
MODEL      222
REMARK 921   NORMALIZED FREE ENERGY PREDICTED BY IDOCK:   -4.31 KCAL/MOL
REMARK 922        TOTAL FREE ENERGY PREDICTED BY IDOCK:   -7.55 KCAL/MOL
REMARK 923 INTER-LIGAND FREE ENERGY PREDICTED BY IDOCK:   -6.63 KCAL/MOL
REMARK 924 INTRA-LIGAND FREE ENERGY PREDICTED BY IDOCK:   -0.92 KCAL/MOL
REMARK 927      BINDING AFFINITY PREDICTED BY RF-SCORE:    0.00 PKD
ROOT
HETATM    1  C   UNL     1     -11.762  15.076  64.771  1.00  0.00    -0.370 C  
HETATM    2  O   UNL     1     -12.653  14.044  65.183  1.00  0.00    -0.529 OA 
ENDROOT
BRANCH   2   3
HETATM    3  C   UNL     1     -12.008  12.993  65.796  1.00  0.00    -0.429 A  
HETATM    4  C   UNL     1     -11.261  12.169  64.990  1.00  0.00    -0.372 A  
HETATM    5  C   UNL     1     -10.527  11.139  65.590  1.00  0.00    -0.308 A  
HETATM    6  C   UNL     1     -10.443  11.071  67.018  1.00  0.00    -0.284 A  
HETATM    7  C   UNL     1      -9.976  10.072  64.680  1.00  0.00    -0.206 C  
HETATM    8  C   UNL     1      -9.500  10.343  67.822  1.00  0.00    -0.145 A  
HETATM    9  C   UNL     1      -9.774  10.091  69.179  1.00  0.00    -0.209 A  
HETATM   10  C   UNL     1     -11.425  11.825  67.709  1.00  0.00    -0.311 A  
HETATM   11  C   UNL     1     -11.685  11.580  69.072  1.00  0.00    -0.335 A  
HETATM   12  N   UNL     1     -12.169  12.777  67.110  1.00  0.00    -0.383 NA 
HETATM   13  C   UNL     1     -10.882  10.685  69.778  1.00  0.00    -0.317 A  
BRANCH   8  14
HETATM   14  O   UNL     1      -8.276   9.887  67.374  1.00  0.00    -0.117 OA 
BRANCH  14  15
HETATM   15  C   UNL     1      -8.028   8.576  67.021  1.00  0.00    -0.100 A  
HETATM   16  C   UNL     1      -6.734   8.374  66.524  1.00  0.00    -0.060 A  
HETATM   17  C   UNL     1      -6.213   7.088  66.398  1.00  0.00    -0.039 A  
HETATM   18  F   UNL     1      -9.623   5.266  68.992  1.00  0.00    -0.142 F  
HETATM   19  F   UNL     1      -8.345   3.878  67.927  1.00  0.00    -0.090 F  
HETATM   20  C   UNL     1      -6.983   5.993  66.783  1.00  0.00    -0.068 A  
HETATM   21  C   UNL     1      -8.855   7.471  67.241  1.00  0.00    -0.124 A  
HETATM   22  C   UNL     1      -9.096   5.004  67.763  1.00  0.00    -0.114 C  
HETATM   23  F   UNL     1     -10.142   4.646  66.972  1.00  0.00    -0.198 F  
HETATM   24  C   UNL     1      -8.307   6.172  67.215  1.00  0.00    -0.105 A  
ENDBRANCH  14  15
ENDBRANCH   8  14
BRANCH   9  25
HETATM   25  O   UNL     1      -9.031   9.353  70.065  1.00  0.00    -0.175 OA 
HETATM   26  C   UNL     1      -9.529   9.207  71.389  1.00  0.00    -0.209 C  
ENDBRANCH   9  25
BRANCH  11  27
HETATM   27  N   UNL     1     -12.714  12.305  69.712  1.00  0.00     0.343 NA 
HETATM   28  H   UNL     1     -13.646  11.894  69.776  1.00  0.00     0.000 HD 
BRANCH  27  29
HETATM   29  C   UNL     1     -12.479  13.631  70.285  1.00  0.00    -0.265 C  
HETATM   30  C   UNL     1     -12.639  13.516  71.803  1.00  0.00    -0.266 C  
BRANCH  29  31
HETATM   31  C   UNL     1     -11.059  14.127  69.954  1.00  0.00    -0.083 C  
BRANCH  31  32
HETATM   32  C   UNL     1     -10.998  15.421  69.134  1.00  0.00    -0.252 C  
BRANCH  32  33
HETATM   33  C   UNL     1      -9.661  15.703  68.441  1.00  0.00    -0.202 C  
HETATM   34  N   UNL     1      -8.786  14.529  68.428  1.00  0.00    -0.170 NA 
HETATM   35  H1  UNL     1      -7.896  14.717  67.966  1.00  0.00     0.000 HD 
HETATM   36  H2  UNL     1      -9.254  13.724  68.012  1.00  0.00     0.000 HD 
ENDBRANCH  32  33
ENDBRANCH  31  32
ENDBRANCH  29  31
ENDBRANCH  27  29
ENDBRANCH  11  27
ENDBRANCH   2   3
TORSDOF 9
ENDMDL
MODEL      223
REMARK 921   NORMALIZED FREE ENERGY PREDICTED BY IDOCK:   -4.29 KCAL/MOL
REMARK 922        TOTAL FREE ENERGY PREDICTED BY IDOCK:   -7.52 KCAL/MOL
REMARK 923 INTER-LIGAND FREE ENERGY PREDICTED BY IDOCK:   -6.27 KCAL/MOL
REMARK 924 INTRA-LIGAND FREE ENERGY PREDICTED BY IDOCK:   -1.26 KCAL/MOL
REMARK 927      BINDING AFFINITY PREDICTED BY RF-SCORE:    0.00 PKD
ROOT
HETATM    1  C   UNL     1     -10.012   7.606  73.413  1.00  0.00    -0.314 C  
HETATM    2  O   UNL     1      -9.170   8.618  72.866  1.00  0.00    -0.280 OA 
ENDROOT
BRANCH   2   3
HETATM    3  C   UNL     1      -9.405   8.842  71.526  1.00  0.00    -0.267 A  
HETATM    4  C   UNL     1     -10.595   9.442  71.197  1.00  0.00    -0.403 A  
HETATM    5  C   UNL     1     -10.831   9.758  69.854  1.00  0.00    -0.306 A  
HETATM    6  C   UNL     1      -9.778   9.601  68.896  1.00  0.00    -0.163 A  
HETATM    7  C   UNL     1     -12.243  10.121  69.474  1.00  0.00     0.149 C  
HETATM    8  C   UNL     1      -9.678  10.168  67.579  1.00  0.00    -0.162 A  
HETATM    9  C   UNL     1      -8.774   9.631  66.644  1.00  0.00    -0.134 A  
HETATM   10  C   UNL     1      -8.706   8.776  69.320  1.00  0.00    -0.135 A  
HETATM   11  C   UNL     1      -7.793   8.253  68.382  1.00  0.00    -0.118 A  
HETATM   12  N   UNL     1      -8.518   8.428  70.609  1.00  0.00    -0.127 NA 
HETATM   13  C   UNL     1      -7.866   8.656  67.049  1.00  0.00    -0.096 A  
BRANCH   8  14
HETATM   14  O   UNL     1     -10.389  11.270  67.145  1.00  0.00    -0.195 OA 
BRANCH  14  15
HETATM   15  C   UNL     1     -10.062  12.571  67.470  1.00  0.00    -0.207 A  
HETATM   16  C   UNL     1      -9.290  13.207  66.490  1.00  0.00    -0.222 A  
HETATM   17  C   UNL     1      -9.118  14.589  66.505  1.00  0.00    -0.248 A  
HETATM   18  F   UNL     1     -12.530  15.152  69.621  1.00  0.00    -0.321 F  
HETATM   19  F   UNL     1     -11.276  16.871  69.211  1.00  0.00    -0.252 F  
HETATM   20  C   UNL     1      -9.731  15.347  67.498  1.00  0.00    -0.208 A  
HETATM   21  C   UNL     1     -10.528  13.312  68.559  1.00  0.00    -0.259 A  
HETATM   22  C   UNL     1     -11.229  15.545  69.529  1.00  0.00    -0.299 C  
HETATM   23  F   UNL     1     -10.724  15.479  70.789  1.00  0.00    -0.324 F  
HETATM   24  C   UNL     1     -10.449  14.721  68.530  1.00  0.00    -0.249 A  
ENDBRANCH  14  15
ENDBRANCH   8  14
BRANCH   9  25
HETATM   25  O   UNL     1      -8.604   9.994  65.333  1.00  0.00    -0.138 OA 
HETATM   26  C   UNL     1      -9.755  10.031  64.499  1.00  0.00    -0.239 C  
ENDBRANCH   9  25
BRANCH  11  27
HETATM   27  N   UNL     1      -6.776   7.383  68.831  1.00  0.00    -0.048 NA 
HETATM   28  H   UNL     1      -5.898   7.777  69.169  1.00  0.00     0.000 HD 
BRANCH  27  29
HETATM   29  C   UNL     1      -6.948   5.929  68.824  1.00  0.00    -0.072 C  
HETATM   30  C   UNL     1      -5.587   5.301  68.516  1.00  0.00    -0.015 C  
BRANCH  29  31
HETATM   31  C   UNL     1      -7.446   5.430  70.194  1.00  0.00    -0.069 C  
BRANCH  31  32
HETATM   32  C   UNL     1      -8.223   4.109  70.161  1.00  0.00    -0.068 C  
BRANCH  32  33
HETATM   33  C   UNL     1      -9.706   4.204  70.534  1.00  0.00    -0.200 C  
HETATM   34  N   UNL     1     -10.335   5.413  69.998  1.00  0.00    -0.276 NA 
HETATM   35  H1  UNL     1     -11.323   5.476  70.246  1.00  0.00     0.000 HD 
HETATM   36  H2  UNL     1     -10.204   5.481  68.989  1.00  0.00     0.000 HD 
ENDBRANCH  32  33
ENDBRANCH  31  32
ENDBRANCH  29  31
ENDBRANCH  27  29
ENDBRANCH  11  27
ENDBRANCH   2   3
TORSDOF 9
ENDMDL
MODEL      224
REMARK 921   NORMALIZED FREE ENERGY PREDICTED BY IDOCK:   -4.27 KCAL/MOL
REMARK 922        TOTAL FREE ENERGY PREDICTED BY IDOCK:   -7.49 KCAL/MOL
REMARK 923 INTER-LIGAND FREE ENERGY PREDICTED BY IDOCK:   -6.00 KCAL/MOL
REMARK 924 INTRA-LIGAND FREE ENERGY PREDICTED BY IDOCK:   -1.49 KCAL/MOL
REMARK 927      BINDING AFFINITY PREDICTED BY RF-SCORE:    0.00 PKD
ROOT
HETATM    1  C   UNL     1      -9.081   3.546  65.798  1.00  0.00    -0.150 C  
HETATM    2  O   UNL     1      -8.979   4.869  65.280  1.00  0.00    -0.147 OA 
ENDROOT
BRANCH   2   3
HETATM    3  C   UNL     1      -8.559   5.783  66.222  1.00  0.00    -0.130 A  
HETATM    4  C   UNL     1      -8.171   7.016  65.761  1.00  0.00    -0.132 A  
HETATM    5  C   UNL     1      -7.816   7.995  66.696  1.00  0.00    -0.098 A  
HETATM    6  C   UNL     1      -8.018   7.743  68.091  1.00  0.00    -0.122 A  
HETATM    7  C   UNL     1      -7.105   9.216  66.173  1.00  0.00    -0.087 C  
HETATM    8  C   UNL     1      -8.056   8.691  69.172  1.00  0.00    -0.116 A  
HETATM    9  C   UNL     1      -7.900   8.255  70.500  1.00  0.00    -0.087 A  
HETATM   10  C   UNL     1      -8.202   6.380  68.431  1.00  0.00    -0.113 A  
HETATM   11  C   UNL     1      -8.061   5.950  69.765  1.00  0.00    -0.105 A  
HETATM   12  N   UNL     1      -8.489   5.432  67.515  1.00  0.00    -0.106 NA 
HETATM   13  C   UNL     1      -7.870   6.891  70.776  1.00  0.00    -0.097 A  
BRANCH   8  14
HETATM   14  O   UNL     1      -8.287  10.044  69.019  1.00  0.00    -0.115 OA 
BRANCH  14  15
HETATM   15  C   UNL     1      -9.462  10.570  68.523  1.00  0.00    -0.164 A  
HETATM   16  C   UNL     1     -10.588  10.214  69.278  1.00  0.00    -0.254 A  
HETATM   17  C   UNL     1     -11.799  10.881  69.107  1.00  0.00    -0.389 A  
HETATM   18  F   UNL     1      -9.778  14.288  66.664  1.00  0.00    -0.246 F  
HETATM   19  F   UNL     1     -11.944  14.233  66.672  1.00  0.00    -0.379 F  
HETATM   20  C   UNL     1     -11.888  11.921  68.186  1.00  0.00    -0.338 A  
HETATM   21  C   UNL     1      -9.603  11.492  67.483  1.00  0.00    -0.179 A  
HETATM   22  C   UNL     1     -10.840  13.457  66.470  1.00  0.00    -0.282 C  
HETATM   23  F   UNL     1     -10.839  13.144  65.148  1.00  0.00    -0.284 F  
HETATM   24  C   UNL     1     -10.792  12.244  67.371  1.00  0.00    -0.277 A  
ENDBRANCH  14  15
ENDBRANCH   8  14
BRANCH   9  25
HETATM   25  O   UNL     1      -7.833   9.022  71.636  1.00  0.00    -0.316 OA 
HETATM   26  C   UNL     1      -6.980   8.582  72.685  1.00  0.00    -0.033 C  
ENDBRANCH   9  25
BRANCH  11  27
HETATM   27  N   UNL     1      -8.188   4.574  70.057  1.00  0.00    -0.066 NA 
HETATM   28  H   UNL     1      -7.391   3.957  69.900  1.00  0.00     0.000 HD 
BRANCH  27  29
HETATM   29  C   UNL     1      -9.434   4.010  70.578  1.00  0.00    -0.178 C  
HETATM   30  C   UNL     1      -9.639   2.645  69.916  1.00  0.00    -0.072 C  
BRANCH  29  31
HETATM   31  C   UNL     1      -9.357   3.832  72.106  1.00  0.00    -0.182 C  
BRANCH  31  32
HETATM   32  C   UNL     1     -10.708   3.645  72.807  1.00  0.00    -0.139 C  
BRANCH  32  33
HETATM   33  C   UNL     1     -11.458   4.934  73.155  1.00  0.00    -0.278 C  
HETATM   34  N   UNL     1     -10.656   5.832  73.989  1.00  0.00    -0.333 NA 
HETATM   35  H1  UNL     1     -11.156   6.691  74.221  1.00  0.00     0.000 HD 
HETATM   36  H2  UNL     1      -9.757   6.035  73.553  1.00  0.00     0.000 HD 
ENDBRANCH  32  33
ENDBRANCH  31  32
ENDBRANCH  29  31
ENDBRANCH  27  29
ENDBRANCH  11  27
ENDBRANCH   2   3
TORSDOF 9
ENDMDL
MODEL      225
REMARK 921   NORMALIZED FREE ENERGY PREDICTED BY IDOCK:   -4.23 KCAL/MOL
REMARK 922        TOTAL FREE ENERGY PREDICTED BY IDOCK:   -7.43 KCAL/MOL
REMARK 923 INTER-LIGAND FREE ENERGY PREDICTED BY IDOCK:   -6.34 KCAL/MOL
REMARK 924 INTRA-LIGAND FREE ENERGY PREDICTED BY IDOCK:   -1.09 KCAL/MOL
REMARK 927      BINDING AFFINITY PREDICTED BY RF-SCORE:    0.00 PKD
ROOT
HETATM    1  C   UNL     1      -9.197   4.471  65.738  1.00  0.00    -0.146 C  
HETATM    2  O   UNL     1      -9.010   5.519  64.790  1.00  0.00    -0.054 OA 
ENDROOT
BRANCH   2   3
HETATM    3  C   UNL     1      -8.562   6.688  65.367  1.00  0.00    -0.056 A  
HETATM    4  C   UNL     1      -8.104   7.663  64.516  1.00  0.00    -0.098 A  
HETATM    5  C   UNL     1      -7.717   8.893  65.061  1.00  0.00    -0.103 A  
HETATM    6  C   UNL     1      -7.958   9.157  66.447  1.00  0.00    -0.100 A  
HETATM    7  C   UNL     1      -6.935   9.821  64.168  1.00  0.00    -0.123 C  
HETATM    8  C   UNL     1      -7.968  10.426  67.124  1.00  0.00    -0.115 A  
HETATM    9  C   UNL     1      -7.859  10.480  68.525  1.00  0.00    -0.111 A  
HETATM   10  C   UNL     1      -8.217   8.009  67.236  1.00  0.00    -0.122 A  
HETATM   11  C   UNL     1      -8.123   8.072  68.641  1.00  0.00    -0.125 A  
HETATM   12  N   UNL     1      -8.534   6.813  66.702  1.00  0.00    -0.117 NA 
HETATM   13  C   UNL     1      -7.904   9.300  69.264  1.00  0.00    -0.085 A  
BRANCH   8  14
HETATM   14  O   UNL     1      -8.126  11.647  66.498  1.00  0.00    -0.152 OA 
BRANCH  14  15
HETATM   15  C   UNL     1      -9.266  12.418  66.600  1.00  0.00    -0.218 A  
HETATM   16  C   UNL     1     -10.410  11.674  66.916  1.00  0.00    -0.253 A  
HETATM   17  C   UNL     1     -11.575  12.306  67.345  1.00  0.00    -0.425 A  
HETATM   18  F   UNL     1      -9.340  16.329  68.044  1.00  0.00    -0.205 F  
HETATM   19  F   UNL     1     -11.505  16.378  68.120  1.00  0.00    -0.345 F  
HETATM   20  C   UNL     1     -11.598  13.692  67.474  1.00  0.00    -0.384 A  
HETATM   21  C   UNL     1      -9.348  13.813  66.565  1.00  0.00    -0.249 A  
HETATM   22  C   UNL     1     -10.456  15.947  67.362  1.00  0.00    -0.306 C  
HETATM   23  F   UNL     1     -10.480  16.696  66.228  1.00  0.00    -0.292 F  
HETATM   24  C   UNL     1     -10.485  14.459  67.094  1.00  0.00    -0.263 A  
ENDBRANCH  14  15
ENDBRANCH   8  14
BRANCH   9  25
HETATM   25  O   UNL     1      -7.775  11.594  69.322  1.00  0.00     0.003 OA 
HETATM   26  C   UNL     1      -6.520  12.256  69.406  1.00  0.00    -0.105 C  
ENDBRANCH   9  25
BRANCH  11  27
HETATM   27  N   UNL     1      -8.326   6.894  69.392  1.00  0.00    -0.131 NA 
HETATM   28  H   UNL     1      -7.638   6.143  69.334  1.00  0.00     0.000 HD 
BRANCH  27  29
HETATM   29  C   UNL     1      -9.497   6.721  70.253  1.00  0.00    -0.162 C  
HETATM   30  C   UNL     1     -10.601   6.077  69.410  1.00  0.00    -0.365 C  
BRANCH  29  31
HETATM   31  C   UNL     1      -9.168   5.811  71.451  1.00  0.00    -0.157 C  
BRANCH  31  32
HETATM   32  C   UNL     1     -10.351   5.503  72.376  1.00  0.00    -0.251 C  
BRANCH  32  33
HETATM   33  C   UNL     1     -11.009   6.718  73.036  1.00  0.00    -0.260 C  
HETATM   34  N   UNL     1     -10.293   7.151  74.238  1.00  0.00    -0.463 NA 
HETATM   35  H1  UNL     1     -10.731   7.960  74.678  1.00  0.00     0.000 HD 
HETATM   36  H2  UNL     1      -9.309   7.328  74.037  1.00  0.00     0.000 HD 
ENDBRANCH  32  33
ENDBRANCH  31  32
ENDBRANCH  29  31
ENDBRANCH  27  29
ENDBRANCH  11  27
ENDBRANCH   2   3
TORSDOF 9
ENDMDL
MODEL      226
REMARK 921   NORMALIZED FREE ENERGY PREDICTED BY IDOCK:   -4.22 KCAL/MOL
REMARK 922        TOTAL FREE ENERGY PREDICTED BY IDOCK:   -7.41 KCAL/MOL
REMARK 923 INTER-LIGAND FREE ENERGY PREDICTED BY IDOCK:   -5.80 KCAL/MOL
REMARK 924 INTRA-LIGAND FREE ENERGY PREDICTED BY IDOCK:   -1.62 KCAL/MOL
REMARK 927      BINDING AFFINITY PREDICTED BY RF-SCORE:    0.00 PKD
ROOT
HETATM    1  C   UNL     1     -12.533  14.047  70.179  1.00  0.00    -0.319 C  
HETATM    2  O   UNL     1     -12.381  13.425  68.906  1.00  0.00    -0.212 OA 
ENDROOT
BRANCH   2   3
HETATM    3  C   UNL     1     -11.315  13.924  68.190  1.00  0.00    -0.295 A  
HETATM    4  C   UNL     1     -11.610  14.655  67.066  1.00  0.00    -0.385 A  
HETATM    5  C   UNL     1     -10.555  15.246  66.360  1.00  0.00    -0.308 A  
HETATM    6  C   UNL     1      -9.233  15.211  66.909  1.00  0.00    -0.259 A  
HETATM    7  C   UNL     1     -10.863  15.768  64.981  1.00  0.00    -0.461 C  
HETATM    8  C   UNL     1      -8.099  16.019  66.553  1.00  0.00    -0.269 A  
HETATM    9  C   UNL     1      -6.801  15.618  66.921  1.00  0.00     0.190 A  
HETATM   10  C   UNL     1      -9.037  14.249  67.931  1.00  0.00    -0.190 A  
HETATM   11  C   UNL     1      -7.735  13.862  68.308  1.00  0.00    -0.136 A  
HETATM   12  N   UNL     1     -10.059  13.642  68.568  1.00  0.00    -0.232 NA 
HETATM   13  C   UNL     1      -6.635  14.524  67.766  1.00  0.00    -0.189 A  
BRANCH   8  14
HETATM   14  O   UNL     1      -8.176  17.229  65.892  1.00  0.00    -0.534 OA 
BRANCH  14  15
HETATM   15  C   UNL     1      -8.532  18.415  66.502  1.00  0.00    -0.270 A  
HETATM   16  C   UNL     1      -8.886  19.419  65.592  1.00  0.00     0.416 A  
HETATM   17  C   UNL     1      -9.546  20.568  66.021  1.00  0.00    -0.078 A  
HETATM   18  F   UNL     1     -10.507  18.677  70.165  1.00  0.00     0.267 F  
HETATM   19  F   UNL     1     -10.869  20.801  69.944  1.00  0.00    -0.224 F  
HETATM   20  C   UNL     1      -9.871  20.713  67.367  1.00  0.00    -0.527 A  
HETATM   21  C   UNL     1      -8.703  18.643  67.870  1.00  0.00    -0.309 A  
HETATM   22  C   UNL     1      -9.928  19.835  69.740  1.00  0.00     0.202 C  
HETATM   23  F   UNL     1      -8.923  20.099  70.616  1.00  0.00     0.526 F  
HETATM   24  C   UNL     1      -9.461  19.751  68.305  1.00  0.00    -0.440 A  
ENDBRANCH  14  15
ENDBRANCH   8  14
BRANCH   9  25
HETATM   25  O   UNL     1      -5.611  16.221  66.602  1.00  0.00    -0.292 OA 
HETATM   26  C   UNL     1      -5.276  17.428  67.274  1.00  0.00    -0.128 C  
ENDBRANCH   9  25
BRANCH  11  27
HETATM   27  N   UNL     1      -7.578  12.855  69.285  1.00  0.00    -0.303 NA 
HETATM   28  H   UNL     1      -8.303  12.731  69.992  1.00  0.00     0.000 HD 
BRANCH  27  29
HETATM   29  C   UNL     1      -6.403  11.984  69.310  1.00  0.00    -0.102 C  
HETATM   30  C   UNL     1      -5.774  12.092  70.702  1.00  0.00    -0.127 C  
BRANCH  29  31
HETATM   31  C   UNL     1      -6.799  10.520  69.038  1.00  0.00    -0.068 C  
BRANCH  31  32
HETATM   32  C   UNL     1      -7.893   9.962  69.956  1.00  0.00    -0.192 C  
BRANCH  32  33
HETATM   33  C   UNL     1      -9.271   9.786  69.313  1.00  0.00    -0.192 C  
HETATM   34  N   UNL     1     -10.360  10.039  70.259  1.00  0.00    -0.357 NA 
HETATM   35  H1  UNL     1     -11.278   9.922  69.831  1.00  0.00     0.000 HD 
HETATM   36  H2  UNL     1     -10.269  10.960  70.689  1.00  0.00     0.000 HD 
ENDBRANCH  32  33
ENDBRANCH  31  32
ENDBRANCH  29  31
ENDBRANCH  27  29
ENDBRANCH  11  27
ENDBRANCH   2   3
TORSDOF 9
ENDMDL
MODEL      227
REMARK 921   NORMALIZED FREE ENERGY PREDICTED BY IDOCK:   -4.17 KCAL/MOL
REMARK 922        TOTAL FREE ENERGY PREDICTED BY IDOCK:   -7.33 KCAL/MOL
REMARK 923 INTER-LIGAND FREE ENERGY PREDICTED BY IDOCK:   -6.65 KCAL/MOL
REMARK 924 INTRA-LIGAND FREE ENERGY PREDICTED BY IDOCK:   -0.68 KCAL/MOL
REMARK 927      BINDING AFFINITY PREDICTED BY RF-SCORE:    0.00 PKD
ROOT
HETATM    1  C   UNL     1      -6.447  16.508  69.605  1.00  0.00    -0.198 C  
HETATM    2  O   UNL     1      -6.558  15.155  70.038  1.00  0.00    -0.175 OA 
ENDROOT
BRANCH   2   3
HETATM    3  C   UNL     1      -6.938  14.299  69.028  1.00  0.00    -0.112 A  
HETATM    4  C   UNL     1      -6.076  13.272  68.728  1.00  0.00    -0.086 A  
HETATM    5  C   UNL     1      -6.467  12.337  67.764  1.00  0.00    -0.106 A  
HETATM    6  C   UNL     1      -7.799  12.378  67.239  1.00  0.00    -0.166 A  
HETATM    7  C   UNL     1      -5.399  11.417  67.231  1.00  0.00    -0.064 C  
HETATM    8  C   UNL     1      -8.510  11.349  66.529  1.00  0.00    -0.170 A  
HETATM    9  C   UNL     1      -9.652  11.672  65.775  1.00  0.00    -0.232 A  
HETATM   10  C   UNL     1      -8.487  13.597  67.456  1.00  0.00    -0.189 A  
HETATM   11  C   UNL     1      -9.642  13.909  66.710  1.00  0.00    -0.283 A  
HETATM   12  N   UNL     1      -8.073  14.520  68.348  1.00  0.00    -0.136 NA 
HETATM   13  C   UNL     1     -10.184  12.957  65.849  1.00  0.00    -0.299 A  
BRANCH   8  14
HETATM   14  O   UNL     1      -8.182  10.008  66.558  1.00  0.00    -0.117 OA 
BRANCH  14  15
HETATM   15  C   UNL     1      -7.842   9.278  65.437  1.00  0.00    -0.100 A  
HETATM   16  C   UNL     1      -6.906   9.925  64.620  1.00  0.00    -0.126 A  
HETATM   17  C   UNL     1      -6.233   9.228  63.620  1.00  0.00    -0.090 A  
HETATM   18  F   UNL     1      -7.601   5.117  65.322  1.00  0.00    -0.075 F  
HETATM   19  F   UNL     1      -6.678   5.114  63.362  1.00  0.00    -0.030 F  
HETATM   20  C   UNL     1      -6.483   7.870  63.439  1.00  0.00    -0.067 A  
HETATM   21  C   UNL     1      -8.216   7.965  65.139  1.00  0.00    -0.143 A  
HETATM   22  C   UNL     1      -7.647   5.724  64.103  1.00  0.00    -0.083 C  
HETATM   23  F   UNL     1      -8.832   5.360  63.544  1.00  0.00    -0.105 F  
HETATM   24  C   UNL     1      -7.470   7.222  64.200  1.00  0.00    -0.099 A  
ENDBRANCH  14  15
ENDBRANCH   8  14
BRANCH   9  25
HETATM   25  O   UNL     1     -10.400  10.840  64.981  1.00  0.00    -0.302 OA 
HETATM   26  C   UNL     1     -10.491  11.147  63.596  1.00  0.00    -0.376 C  
ENDBRANCH   9  25
BRANCH  11  27
HETATM   27  N   UNL     1     -10.265  15.160  66.908  1.00  0.00    -0.256 NA 
HETATM   28  H   UNL     1      -9.829  15.999  66.526  1.00  0.00     0.000 HD 
BRANCH  27  29
HETATM   29  C   UNL     1     -11.521  15.285  67.649  1.00  0.00    -0.280 C  
HETATM   30  C   UNL     1     -11.966  13.876  68.050  1.00  0.00    -0.390 C  
BRANCH  29  31
HETATM   31  C   UNL     1     -11.328  16.142  68.914  1.00  0.00    -0.350 C  
BRANCH  31  32
HETATM   32  C   UNL     1     -11.010  15.354  70.190  1.00  0.00    -0.327 C  
BRANCH  32  33
HETATM   33  C   UNL     1     -12.017  15.511  71.334  1.00  0.00    -0.394 C  
HETATM   34  N   UNL     1     -13.368  15.798  70.847  1.00  0.00    -0.722 NA 
HETATM   35  H1  UNL     1     -14.038  15.903  71.609  1.00  0.00     0.000 HD 
HETATM   36  H2  UNL     1     -13.677  15.093  70.179  1.00  0.00     0.000 HD 
ENDBRANCH  32  33
ENDBRANCH  31  32
ENDBRANCH  29  31
ENDBRANCH  27  29
ENDBRANCH  11  27
ENDBRANCH   2   3
TORSDOF 9
ENDMDL
MODEL      228
REMARK 921   NORMALIZED FREE ENERGY PREDICTED BY IDOCK:   -4.16 KCAL/MOL
REMARK 922        TOTAL FREE ENERGY PREDICTED BY IDOCK:   -7.31 KCAL/MOL
REMARK 923 INTER-LIGAND FREE ENERGY PREDICTED BY IDOCK:   -6.07 KCAL/MOL
REMARK 924 INTRA-LIGAND FREE ENERGY PREDICTED BY IDOCK:   -1.24 KCAL/MOL
REMARK 927      BINDING AFFINITY PREDICTED BY RF-SCORE:    0.00 PKD
ROOT
HETATM    1  C   UNL     1     -11.416  16.387  64.028  1.00  0.00     0.563 C  
HETATM    2  O   UNL     1     -12.269  15.582  64.837  1.00  0.00     0.045 OA 
ENDROOT
BRANCH   2   3
HETATM    3  C   UNL     1     -11.646  14.445  65.305  1.00  0.00    -0.353 A  
HETATM    4  C   UNL     1     -11.548  13.388  64.435  1.00  0.00    -0.421 A  
HETATM    5  C   UNL     1     -10.851  12.248  64.849  1.00  0.00    -0.342 A  
HETATM    6  C   UNL     1     -10.129  12.273  66.086  1.00  0.00    -0.265 A  
HETATM    7  C   UNL     1     -11.020  11.003  64.018  1.00  0.00    -0.116 C  
HETATM    8  C   UNL     1      -9.094  11.381  66.533  1.00  0.00    -0.186 A  
HETATM    9  C   UNL     1      -8.752  11.321  67.896  1.00  0.00    -0.138 A  
HETATM   10  C   UNL     1     -10.498  13.318  66.970  1.00  0.00    -0.249 A  
HETATM   11  C   UNL     1     -10.139  13.262  68.332  1.00  0.00    -0.237 A  
HETATM   12  N   UNL     1     -11.219  14.387  66.575  1.00  0.00    -0.332 NA 
HETATM   13  C   UNL     1      -9.305  12.240  68.784  1.00  0.00     0.093 A  
BRANCH   8  14
HETATM   14  O   UNL     1      -8.342  10.574  65.701  1.00  0.00    -0.158 OA 
BRANCH  14  15
HETATM   15  C   UNL     1      -8.370   9.195  65.742  1.00  0.00    -0.126 A  
HETATM   16  C   UNL     1      -7.102   8.614  65.601  1.00  0.00    -0.083 A  
HETATM   17  C   UNL     1      -6.897   7.271  65.909  1.00  0.00    -0.057 A  
HETATM   18  F   UNL     1     -11.008   6.959  68.069  1.00  0.00    -0.260 F  
HETATM   19  F   UNL     1      -9.957   5.105  67.678  1.00  0.00    -0.152 F  
HETATM   20  C   UNL     1      -7.960   6.501  66.374  1.00  0.00    -0.110 A  
HETATM   21  C   UNL     1      -9.464   8.379  66.040  1.00  0.00    -0.224 A  
HETATM   22  C   UNL     1     -10.376   6.259  67.085  1.00  0.00    -0.229 C  
HETATM   23  F   UNL     1     -11.341   5.897  66.199  1.00  0.00    -0.149 F  
HETATM   24  C   UNL     1      -9.251   7.047  66.453  1.00  0.00    -0.186 A  
ENDBRANCH  14  15
ENDBRANCH   8  14
BRANCH   9  25
HETATM   25  O   UNL     1      -7.853  10.481  68.503  1.00  0.00    -0.100 OA 
HETATM   26  C   UNL     1      -6.846  11.064  69.319  1.00  0.00    -0.110 C  
ENDBRANCH   9  25
BRANCH  11  27
HETATM   27  N   UNL     1     -10.578  14.288  69.196  1.00  0.00    -0.340 NA 
HETATM   28  H   UNL     1     -10.182  15.223  69.098  1.00  0.00     0.000 HD 
BRANCH  27  29
HETATM   29  C   UNL     1     -11.586  14.046  70.229  1.00  0.00    -0.171 C  
HETATM   30  C   UNL     1     -12.657  15.131  70.097  1.00  0.00    -0.319 C  
BRANCH  29  31
HETATM   31  C   UNL     1     -12.233  12.660  70.048  1.00  0.00    -0.267 C  
BRANCH  31  32
HETATM   32  C   UNL     1     -12.888  12.080  71.307  1.00  0.00    -0.364 C  
BRANCH  32  33
HETATM   33  C   UNL     1     -12.914  10.551  71.395  1.00  0.00    -0.440 C  
HETATM   34  N   UNL     1     -13.255   9.928  70.115  1.00  0.00    -0.289 NA 
HETATM   35  H1  UNL     1     -13.272   8.910  70.173  1.00  0.00     0.000 HD 
HETATM   36  H2  UNL     1     -12.632  10.244  69.373  1.00  0.00     0.000 HD 
ENDBRANCH  32  33
ENDBRANCH  31  32
ENDBRANCH  29  31
ENDBRANCH  27  29
ENDBRANCH  11  27
ENDBRANCH   2   3
TORSDOF 9
ENDMDL
MODEL      229
REMARK 921   NORMALIZED FREE ENERGY PREDICTED BY IDOCK:   -4.13 KCAL/MOL
REMARK 922        TOTAL FREE ENERGY PREDICTED BY IDOCK:   -7.27 KCAL/MOL
REMARK 923 INTER-LIGAND FREE ENERGY PREDICTED BY IDOCK:   -6.29 KCAL/MOL
REMARK 924 INTRA-LIGAND FREE ENERGY PREDICTED BY IDOCK:   -0.97 KCAL/MOL
REMARK 927      BINDING AFFINITY PREDICTED BY RF-SCORE:    0.00 PKD
ROOT
HETATM    1  C   UNL     1      -8.966  15.024  68.685  1.00  0.00    -0.186 C  
HETATM    2  O   UNL     1      -8.537  14.666  67.375  1.00  0.00    -0.174 OA 
ENDROOT
BRANCH   2   3
HETATM    3  C   UNL     1      -8.185  13.337  67.271  1.00  0.00    -0.158 A  
HETATM    4  C   UNL     1      -6.956  12.981  67.769  1.00  0.00    -0.143 A  
HETATM    5  C   UNL     1      -6.600  11.628  67.754  1.00  0.00    -0.071 A  
HETATM    6  C   UNL     1      -7.572  10.646  67.378  1.00  0.00    -0.095 A  
HETATM    7  C   UNL     1      -5.152  11.299  68.009  1.00  0.00    -0.043 C  
HETATM    8  C   UNL     1      -7.546   9.228  67.614  1.00  0.00    -0.088 A  
HETATM    9  C   UNL     1      -8.380   8.372  66.874  1.00  0.00    -0.106 A  
HETATM   10  C   UNL     1      -8.696  11.157  66.683  1.00  0.00    -0.166 A  
HETATM   11  C   UNL     1      -9.540  10.294  65.955  1.00  0.00    -0.206 A  
HETATM   12  N   UNL     1      -9.002  12.470  66.655  1.00  0.00    -0.204 NA 
HETATM   13  C   UNL     1      -9.344   8.915  66.028  1.00  0.00    -0.306 A  
BRANCH   8  14
HETATM   14  O   UNL     1      -6.772   8.609  68.577  1.00  0.00    -0.058 OA 
BRANCH  14  15
HETATM   15  C   UNL     1      -7.290   8.006  69.705  1.00  0.00    -0.074 A  
HETATM   16  C   UNL     1      -6.307   7.443  70.530  1.00  0.00    -0.038 A  
HETATM   17  C   UNL     1      -6.607   7.060  71.835  1.00  0.00    -0.052 A  
HETATM   18  F   UNL     1     -10.655   9.357  71.763  1.00  0.00    -0.400 F  
HETATM   19  F   UNL     1     -10.315   8.011  73.426  1.00  0.00    -0.387 F  
HETATM   20  C   UNL     1      -7.894   7.252  72.330  1.00  0.00    -0.097 A  
HETATM   21  C   UNL     1      -8.615   8.036  70.146  1.00  0.00    -0.130 A  
HETATM   22  C   UNL     1     -10.269   8.086  72.065  1.00  0.00    -0.226 C  
HETATM   23  F   UNL     1     -11.258   7.272  71.610  1.00  0.00    -0.245 F  
HETATM   24  C   UNL     1      -8.909   7.748  71.496  1.00  0.00    -0.150 A  
ENDBRANCH  14  15
ENDBRANCH   8  14
BRANCH   9  25
HETATM   25  O   UNL     1      -8.430   7.002  66.913  1.00  0.00    -0.115 OA 
HETATM   26  C   UNL     1      -9.664   6.372  66.595  1.00  0.00    -0.153 C  
ENDBRANCH   9  25
BRANCH  11  27
HETATM   27  N   UNL     1     -10.614  10.845  65.223  1.00  0.00    -0.232 NA 
HETATM   28  H   UNL     1     -11.565  10.540  65.429  1.00  0.00     0.000 HD 
BRANCH  27  29
HETATM   29  C   UNL     1     -10.397  11.843  64.174  1.00  0.00    -0.336 C  
HETATM   30  C   UNL     1     -10.314  11.102  62.837  1.00  0.00    -0.095 C  
BRANCH  29  31
HETATM   31  C   UNL     1     -11.560  12.853  64.131  1.00  0.00    -0.456 C  
BRANCH  31  32
HETATM   32  C   UNL     1     -12.441  12.883  65.385  1.00  0.00    -0.511 C  
BRANCH  32  33
HETATM   33  C   UNL     1     -12.698  14.271  65.980  1.00  0.00    -0.211 C  
HETATM   34  N   UNL     1     -11.731  14.612  67.026  1.00  0.00    -0.380 NA 
HETATM   35  H1  UNL     1     -11.901  15.536  67.422  1.00  0.00     0.000 HD 
HETATM   36  H2  UNL     1     -10.774  14.529  66.685  1.00  0.00     0.000 HD 
ENDBRANCH  32  33
ENDBRANCH  31  32
ENDBRANCH  29  31
ENDBRANCH  27  29
ENDBRANCH  11  27
ENDBRANCH   2   3
TORSDOF 9
ENDMDL
MODEL      230
REMARK 921   NORMALIZED FREE ENERGY PREDICTED BY IDOCK:   -4.06 KCAL/MOL
REMARK 922        TOTAL FREE ENERGY PREDICTED BY IDOCK:   -7.16 KCAL/MOL
REMARK 923 INTER-LIGAND FREE ENERGY PREDICTED BY IDOCK:   -6.94 KCAL/MOL
REMARK 924 INTRA-LIGAND FREE ENERGY PREDICTED BY IDOCK:   -0.22 KCAL/MOL
REMARK 927      BINDING AFFINITY PREDICTED BY RF-SCORE:    0.00 PKD
ROOT
HETATM    1  C   UNL     1     -10.978  16.008  70.162  1.00  0.00    -0.367 C  
HETATM    2  O   UNL     1      -9.660  16.017  69.619  1.00  0.00    -0.236 OA 
ENDROOT
BRANCH   2   3
HETATM    3  C   UNL     1      -9.327  14.829  69.005  1.00  0.00    -0.160 A  
HETATM    4  C   UNL     1      -8.069  14.336  69.249  1.00  0.00     0.164 A  
HETATM    5  C   UNL     1      -7.726  13.092  68.707  1.00  0.00    -0.006 A  
HETATM    6  C   UNL     1      -8.730  12.303  68.060  1.00  0.00    -0.181 A  
HETATM    7  C   UNL     1      -6.266  12.720  68.719  1.00  0.00    -0.075 C  
HETATM    8  C   UNL     1      -8.699  10.899  67.751  1.00  0.00    -0.129 A  
HETATM    9  C   UNL     1      -9.591  10.364  66.804  1.00  0.00    -0.171 A  
HETATM   10  C   UNL     1      -9.897  13.014  67.685  1.00  0.00    -0.212 A  
HETATM   11  C   UNL     1     -10.798  12.467  66.749  1.00  0.00    -0.248 A  
HETATM   12  N   UNL     1     -10.193  14.237  68.169  1.00  0.00    -0.226 NA 
HETATM   13  C   UNL     1     -10.609  11.164  66.291  1.00  0.00    -0.309 A  
BRANCH   8  14
HETATM   14  O   UNL     1      -7.863   9.982  68.357  1.00  0.00    -0.087 OA 
BRANCH  14  15
HETATM   15  C   UNL     1      -8.289   9.057  69.290  1.00  0.00    -0.122 A  
HETATM   16  C   UNL     1      -9.028   9.627  70.334  1.00  0.00    -0.239 A  
HETATM   17  C   UNL     1      -9.779   8.828  71.193  1.00  0.00    -0.315 A  
HETATM   18  F   UNL     1      -9.378   5.135  68.388  1.00  0.00    -0.115 F  
HETATM   19  F   UNL     1     -10.180   4.784  70.370  1.00  0.00    -0.289 F  
HETATM   20  C   UNL     1      -9.805   7.449  71.003  1.00  0.00    -0.179 A  
HETATM   21  C   UNL     1      -8.180   7.666  69.211  1.00  0.00    -0.133 A  
HETATM   22  C   UNL     1      -9.145   5.377  69.709  1.00  0.00    -0.128 C  
HETATM   23  F   UNL     1      -8.034   4.664  70.034  1.00  0.00    -0.061 F  
HETATM   24  C   UNL     1      -9.014   6.854  70.007  1.00  0.00    -0.142 A  
ENDBRANCH  14  15
ENDBRANCH   8  14
BRANCH   9  25
HETATM   25  O   UNL     1      -9.649   9.076  66.335  1.00  0.00    -0.201 OA 
HETATM   26  C   UNL     1     -10.641   8.215  66.877  1.00  0.00    -0.241 C  
ENDBRANCH   9  25
BRANCH  11  27
HETATM   27  N   UNL     1     -11.916  13.230  66.351  1.00  0.00    -0.403 NA 
HETATM   28  H   UNL     1     -12.815  13.071  66.807  1.00  0.00     0.000 HD 
BRANCH  27  29
HETATM   29  C   UNL     1     -11.821  14.244  65.300  1.00  0.00    -0.374 C  
HETATM   30  C   UNL     1     -10.335  14.469  65.005  1.00  0.00    -0.442 C  
BRANCH  29  31
HETATM   31  C   UNL     1     -12.533  13.773  64.018  1.00  0.00    -0.280 C  
BRANCH  31  32
HETATM   32  C   UNL     1     -12.276  12.312  63.632  1.00  0.00    -0.665 C  
BRANCH  32  33
HETATM   33  C   UNL     1     -10.987  12.050  62.848  1.00  0.00     0.280 C  
HETATM   34  N   UNL     1     -10.513  10.673  63.007  1.00  0.00    -0.651 NA 
HETATM   35  H1  UNL     1      -9.654  10.498  62.486  1.00  0.00     0.000 HD 
HETATM   36  H2  UNL     1     -11.239  10.002  62.758  1.00  0.00     0.000 HD 
ENDBRANCH  32  33
ENDBRANCH  31  32
ENDBRANCH  29  31
ENDBRANCH  27  29
ENDBRANCH  11  27
ENDBRANCH   2   3
TORSDOF 9
ENDMDL
MODEL      231
REMARK 921   NORMALIZED FREE ENERGY PREDICTED BY IDOCK:   -4.05 KCAL/MOL
REMARK 922        TOTAL FREE ENERGY PREDICTED BY IDOCK:   -7.15 KCAL/MOL
REMARK 923 INTER-LIGAND FREE ENERGY PREDICTED BY IDOCK:   -6.23 KCAL/MOL
REMARK 924 INTRA-LIGAND FREE ENERGY PREDICTED BY IDOCK:   -0.91 KCAL/MOL
REMARK 927      BINDING AFFINITY PREDICTED BY RF-SCORE:    0.00 PKD
ROOT
HETATM    1  C   UNL     1     -11.152  17.247  68.402  1.00  0.00    -0.038 C  
HETATM    2  O   UNL     1     -11.878  16.132  68.912  1.00  0.00    -0.338 OA 
ENDROOT
BRANCH   2   3
HETATM    3  C   UNL     1     -11.195  14.943  68.779  1.00  0.00    -0.275 A  
HETATM    4  C   UNL     1     -11.950  13.798  68.707  1.00  0.00    -0.400 A  
HETATM    5  C   UNL     1     -11.294  12.581  68.490  1.00  0.00    -0.337 A  
HETATM    6  C   UNL     1      -9.894  12.578  68.192  1.00  0.00    -0.221 A  
HETATM    7  C   UNL     1     -12.091  11.324  68.725  1.00  0.00    -0.258 C  
HETATM    8  C   UNL     1      -9.108  11.523  67.610  1.00  0.00    -0.168 A  
HETATM    9  C   UNL     1      -7.706  11.543  67.720  1.00  0.00    -0.124 A  
HETATM   10  C   UNL     1      -9.212  13.776  68.520  1.00  0.00    -0.138 A  
HETATM   11  C   UNL     1      -7.806  13.796  68.612  1.00  0.00    -0.108 A  
HETATM   12  N   UNL     1      -9.854  14.932  68.782  1.00  0.00    -0.220 NA 
HETATM   13  C   UNL     1      -7.075  12.665  68.250  1.00  0.00    -0.105 A  
BRANCH   8  14
HETATM   14  O   UNL     1      -9.627  10.469  66.884  1.00  0.00    -0.169 OA 
BRANCH  14  15
HETATM   15  C   UNL     1      -9.784   9.194  67.389  1.00  0.00    -0.162 A  
HETATM   16  C   UNL     1      -9.905   8.217  66.391  1.00  0.00    -0.283 A  
HETATM   17  C   UNL     1      -9.774   6.865  66.700  1.00  0.00    -0.221 A  
HETATM   18  F   UNL     1      -8.007   7.817  70.900  1.00  0.00    -0.090 F  
HETATM   19  F   UNL     1      -8.572   5.761  70.511  1.00  0.00    -0.126 F  
HETATM   20  C   UNL     1      -9.506   6.482  68.011  1.00  0.00    -0.120 A  
HETATM   21  C   UNL     1      -9.689   8.796  68.725  1.00  0.00    -0.171 A  
HETATM   22  C   UNL     1      -9.027   7.044  70.431  1.00  0.00    -0.155 C  
HETATM   23  F   UNL     1     -10.028   7.145  71.345  1.00  0.00    -0.185 F  
HETATM   24  C   UNL     1      -9.453   7.440  69.035  1.00  0.00    -0.148 A  
ENDBRANCH  14  15
ENDBRANCH   8  14
BRANCH   9  25
HETATM   25  O   UNL     1      -6.814  10.590  67.297  1.00  0.00    -0.078 OA 
HETATM   26  C   UNL     1      -5.850  10.968  66.323  1.00  0.00    -0.148 C  
ENDBRANCH   9  25
BRANCH  11  27
HETATM   27  N   UNL     1      -7.164  14.991  69.003  1.00  0.00    -0.130 NA 
HETATM   28  H   UNL     1      -7.123  15.232  69.993  1.00  0.00     0.000 HD 
BRANCH  27  29
HETATM   29  C   UNL     1      -6.555  15.893  68.024  1.00  0.00    -0.131 C  
HETATM   30  C   UNL     1      -5.139  15.385  67.742  1.00  0.00    -0.088 C  
BRANCH  29  31
HETATM   31  C   UNL     1      -7.366  15.908  66.715  1.00  0.00    -0.140 C  
BRANCH  31  32
HETATM   32  C   UNL     1      -7.681  17.303  66.162  1.00  0.00    -0.317 C  
BRANCH  32  33
HETATM   33  C   UNL     1      -6.473  18.116  65.688  1.00  0.00    -0.252 C  
HETATM   34  N   UNL     1      -6.846  19.469  65.271  1.00  0.00    -0.392 NA 
HETATM   35  H1  UNL     1      -6.042  20.011  64.955  1.00  0.00     0.000 HD 
HETATM   36  H2  UNL     1      -7.352  19.957  66.010  1.00  0.00     0.000 HD 
ENDBRANCH  32  33
ENDBRANCH  31  32
ENDBRANCH  29  31
ENDBRANCH  27  29
ENDBRANCH  11  27
ENDBRANCH   2   3
TORSDOF 9
ENDMDL
MODEL      232
REMARK 921   NORMALIZED FREE ENERGY PREDICTED BY IDOCK:   -4.04 KCAL/MOL
REMARK 922        TOTAL FREE ENERGY PREDICTED BY IDOCK:   -7.13 KCAL/MOL
REMARK 923 INTER-LIGAND FREE ENERGY PREDICTED BY IDOCK:   -6.25 KCAL/MOL
REMARK 924 INTRA-LIGAND FREE ENERGY PREDICTED BY IDOCK:   -0.88 KCAL/MOL
REMARK 927      BINDING AFFINITY PREDICTED BY RF-SCORE:    0.00 PKD
ROOT
HETATM    1  C   UNL     1      -5.252   8.755  65.984  1.00  0.00    -0.030 C  
HETATM    2  O   UNL     1      -5.427   8.028  67.198  1.00  0.00    -0.034 OA 
ENDROOT
BRANCH   2   3
HETATM    3  C   UNL     1      -6.369   8.593  68.029  1.00  0.00    -0.056 A  
HETATM    4  C   UNL     1      -6.567   9.947  67.913  1.00  0.00    -0.064 A  
HETATM    5  C   UNL     1      -7.573  10.541  68.684  1.00  0.00    -0.099 A  
HETATM    6  C   UNL     1      -8.464   9.713  69.439  1.00  0.00    -0.156 A  
HETATM    7  C   UNL     1      -7.566  12.044  68.777  1.00  0.00    -0.070 C  
HETATM    8  C   UNL     1      -9.740  10.059  70.004  1.00  0.00    -0.175 A  
HETATM    9  C   UNL     1     -10.310   9.257  71.010  1.00  0.00    -0.318 A  
HETATM   10  C   UNL     1      -8.013   8.385  69.647  1.00  0.00    -0.106 A  
HETATM   11  C   UNL     1      -8.597   7.580  70.645  1.00  0.00    -0.137 A  
HETATM   12  N   UNL     1      -7.004   7.839  68.938  1.00  0.00    -0.064 NA 
HETATM   13  C   UNL     1      -9.712   8.044  71.341  1.00  0.00    -0.205 A  
BRANCH   8  14
HETATM   14  O   UNL     1     -10.511  11.131  69.598  1.00  0.00    -0.118 OA 
BRANCH  14  15
HETATM   15  C   UNL     1     -10.780  11.425  68.277  1.00  0.00    -0.204 A  
HETATM   16  C   UNL     1     -11.449  12.645  68.109  1.00  0.00    -0.359 A  
HETATM   17  C   UNL     1     -11.538  13.240  66.852  1.00  0.00    -0.408 A  
HETATM   18  F   UNL     1      -8.304  10.396  65.084  1.00  0.00    -0.147 F  
HETATM   19  F   UNL     1      -9.424  11.609  63.681  1.00  0.00    -0.240 F  
HETATM   20  C   UNL     1     -10.945  12.622  65.755  1.00  0.00    -0.313 A  
HETATM   21  C   UNL     1     -10.341  10.727  67.149  1.00  0.00    -0.269 A  
HETATM   22  C   UNL     1      -9.571  10.757  64.736  1.00  0.00    -0.262 C  
HETATM   23  F   UNL     1     -10.159   9.638  64.236  1.00  0.00    -0.120 F  
HETATM   24  C   UNL     1     -10.334  11.365  65.891  1.00  0.00    -0.299 A  
ENDBRANCH  14  15
ENDBRANCH   8  14
BRANCH   9  25
HETATM   25  O   UNL     1     -11.470   9.478  71.708  1.00  0.00    -0.384 OA 
HETATM   26  C   UNL     1     -12.564   8.603  71.471  1.00  0.00    -0.322 C  
ENDBRANCH   9  25
BRANCH  11  27
HETATM   27  N   UNL     1      -8.079   6.285  70.867  1.00  0.00    -0.122 NA 
HETATM   28  H   UNL     1      -7.122   6.184  71.204  1.00  0.00     0.000 HD 
BRANCH  27  29
HETATM   29  C   UNL     1      -8.880   5.084  70.625  1.00  0.00    -0.126 C  
HETATM   30  C   UNL     1      -9.497   4.661  71.961  1.00  0.00    -0.191 C  
BRANCH  29  31
HETATM   31  C   UNL     1     -10.002   5.370  69.609  1.00  0.00    -0.297 C  
BRANCH  31  32
HETATM   32  C   UNL     1     -10.004   4.464  68.372  1.00  0.00    -0.070 C  
BRANCH  32  33
HETATM   33  C   UNL     1     -10.699   5.036  67.133  1.00  0.00     0.095 C  
HETATM   34  N   UNL     1     -11.100   6.432  67.318  1.00  0.00    -0.578 NA 
HETATM   35  H1  UNL     1     -11.562   6.814  66.493  1.00  0.00     0.000 HD 
HETATM   36  H2  UNL     1     -10.306   7.010  67.596  1.00  0.00     0.000 HD 
ENDBRANCH  32  33
ENDBRANCH  31  32
ENDBRANCH  29  31
ENDBRANCH  27  29
ENDBRANCH  11  27
ENDBRANCH   2   3
TORSDOF 9
ENDMDL
MODEL      233
REMARK 921   NORMALIZED FREE ENERGY PREDICTED BY IDOCK:   -4.04 KCAL/MOL
REMARK 922        TOTAL FREE ENERGY PREDICTED BY IDOCK:   -7.13 KCAL/MOL
REMARK 923 INTER-LIGAND FREE ENERGY PREDICTED BY IDOCK:   -5.87 KCAL/MOL
REMARK 924 INTRA-LIGAND FREE ENERGY PREDICTED BY IDOCK:   -1.26 KCAL/MOL
REMARK 927      BINDING AFFINITY PREDICTED BY RF-SCORE:    0.00 PKD
ROOT
HETATM    1  C   UNL     1     -10.662  17.958  65.055  1.00  0.00     0.811 C  
HETATM    2  O   UNL     1     -10.933  16.675  64.499  1.00  0.00    -0.885 OA 
ENDROOT
BRANCH   2   3
HETATM    3  C   UNL     1     -10.528  15.641  65.315  1.00  0.00    -0.412 A  
HETATM    4  C   UNL     1     -11.463  14.680  65.609  1.00  0.00    -0.340 A  
HETATM    5  C   UNL     1     -11.063  13.574  66.369  1.00  0.00    -0.311 A  
HETATM    6  C   UNL     1      -9.677  13.394  66.677  1.00  0.00    -0.275 A  
HETATM    7  C   UNL     1     -12.155  12.705  66.938  1.00  0.00    -0.213 C  
HETATM    8  C   UNL     1      -9.011  12.201  67.124  1.00  0.00    -0.189 A  
HETATM    9  C   UNL     1      -7.741  12.282  67.723  1.00  0.00    -0.139 A  
HETATM   10  C   UNL     1      -8.875  14.551  66.515  1.00  0.00    -0.122 A  
HETATM   11  C   UNL     1      -7.596  14.622  67.104  1.00  0.00    -0.044 A  
HETATM   12  N   UNL     1      -9.289  15.636  65.829  1.00  0.00    -0.314 NA 
HETATM   13  C   UNL     1      -7.064  13.499  67.735  1.00  0.00    -0.163 A  
BRANCH   8  14
HETATM   14  O   UNL     1      -9.508  10.921  66.971  1.00  0.00    -0.163 OA 
BRANCH  14  15
HETATM   15  C   UNL     1      -9.386  10.185  65.810  1.00  0.00    -0.188 A  
HETATM   16  C   UNL     1      -9.750  10.901  64.662  1.00  0.00    -0.333 A  
HETATM   17  C   UNL     1      -9.415  10.430  63.394  1.00  0.00    -0.356 A  
HETATM   18  F   UNL     1      -6.447   7.303  65.149  1.00  0.00    -0.038 F  
HETATM   19  F   UNL     1      -6.939   7.123  63.047  1.00  0.00    -0.051 F  
HETATM   20  C   UNL     1      -8.700   9.242  63.268  1.00  0.00    -0.190 A  
HETATM   21  C   UNL     1      -8.825   8.913  65.672  1.00  0.00    -0.230 A  
HETATM   22  C   UNL     1      -7.498   7.260  64.283  1.00  0.00    -0.101 C  
HETATM   23  F   UNL     1      -8.147   6.092  64.534  1.00  0.00    -0.117 F  
HETATM   24  C   UNL     1      -8.390   8.475  64.403  1.00  0.00    -0.125 A  
ENDBRANCH  14  15
ENDBRANCH   8  14
BRANCH   9  25
HETATM   25  O   UNL     1      -7.001  11.266  68.272  1.00  0.00    -0.066 OA 
HETATM   26  C   UNL     1      -6.061  10.602  67.437  1.00  0.00    -0.053 C  
ENDBRANCH   9  25
BRANCH  11  27
HETATM   27  N   UNL     1      -6.851  15.815  66.976  1.00  0.00    -0.263 NA 
HETATM   28  H   UNL     1      -6.502  16.086  66.057  1.00  0.00     0.000 HD 
BRANCH  27  29
HETATM   29  C   UNL     1      -6.568  16.672  68.128  1.00  0.00    -0.143 C  
HETATM   30  C   UNL     1      -5.219  16.238  68.708  1.00  0.00    -0.108 C  
BRANCH  29  31
HETATM   31  C   UNL     1      -6.492  18.151  67.705  1.00  0.00    -0.193 C  
BRANCH  31  32
HETATM   32  C   UNL     1      -7.822  18.767  67.256  1.00  0.00    -0.243 C  
BRANCH  32  33
HETATM   33  C   UNL     1      -8.414  19.823  68.195  1.00  0.00    -0.286 C  
HETATM   34  N   UNL     1      -7.608  20.001  69.405  1.00  0.00    -0.027 NA 
HETATM   35  H1  UNL     1      -8.001  20.704  70.030  1.00  0.00     0.000 HD 
HETATM   36  H2  UNL     1      -6.638  20.214  69.174  1.00  0.00     0.000 HD 
ENDBRANCH  32  33
ENDBRANCH  31  32
ENDBRANCH  29  31
ENDBRANCH  27  29
ENDBRANCH  11  27
ENDBRANCH   2   3
TORSDOF 9
ENDMDL
MODEL      234
REMARK 921   NORMALIZED FREE ENERGY PREDICTED BY IDOCK:   -4.03 KCAL/MOL
REMARK 922        TOTAL FREE ENERGY PREDICTED BY IDOCK:   -7.13 KCAL/MOL
REMARK 923 INTER-LIGAND FREE ENERGY PREDICTED BY IDOCK:   -6.09 KCAL/MOL
REMARK 924 INTRA-LIGAND FREE ENERGY PREDICTED BY IDOCK:   -1.03 KCAL/MOL
REMARK 927      BINDING AFFINITY PREDICTED BY RF-SCORE:    0.00 PKD
ROOT
HETATM    1  C   UNL     1      -8.496   3.402  66.224  1.00  0.00    -0.110 C  
HETATM    2  O   UNL     1      -8.590   4.282  65.108  1.00  0.00    -0.117 OA 
ENDROOT
BRANCH   2   3
HETATM    3  C   UNL     1      -8.145   5.555  65.392  1.00  0.00    -0.123 A  
HETATM    4  C   UNL     1      -8.147   6.458  64.358  1.00  0.00    -0.076 A  
HETATM    5  C   UNL     1      -7.779   7.781  64.629  1.00  0.00    -0.121 A  
HETATM    6  C   UNL     1      -7.569   8.191  65.985  1.00  0.00    -0.082 A  
HETATM    7  C   UNL     1      -7.488   8.667  63.445  1.00  0.00    -0.110 C  
HETATM    8  C   UNL     1      -7.530   9.527  66.517  1.00  0.00    -0.093 A  
HETATM    9  C   UNL     1      -6.960   9.768  67.780  1.00  0.00    -0.086 A  
HETATM   10  C   UNL     1      -7.378   7.131  66.906  1.00  0.00    -0.088 A  
HETATM   11  C   UNL     1      -6.822   7.380  68.177  1.00  0.00    -0.063 A  
HETATM   12  N   UNL     1      -7.683   5.850  66.617  1.00  0.00    -0.099 NA 
HETATM   13  C   UNL     1      -6.583   8.692  68.580  1.00  0.00    -0.059 A  
BRANCH   8  14
HETATM   14  O   UNL     1      -8.065  10.635  65.890  1.00  0.00    -0.153 OA 
BRANCH  14  15
HETATM   15  C   UNL     1      -9.327  11.129  66.151  1.00  0.00    -0.206 A  
HETATM   16  C   UNL     1     -10.088  10.289  66.975  1.00  0.00    -0.268 A  
HETATM   17  C   UNL     1     -11.256  10.752  67.578  1.00  0.00    -0.346 A  
HETATM   18  F   UNL     1     -10.234  15.177  66.558  1.00  0.00    -0.253 F  
HETATM   19  F   UNL     1     -12.234  14.770  67.287  1.00  0.00    -0.384 F  
HETATM   20  C   UNL     1     -11.663  12.067  67.370  1.00  0.00    -0.352 A  
HETATM   21  C   UNL     1      -9.831  12.386  65.807  1.00  0.00    -0.253 A  
HETATM   22  C   UNL     1     -11.311  14.364  66.368  1.00  0.00    -0.350 C  
HETATM   23  F   UNL     1     -11.822  14.691  65.152  1.00  0.00    -0.348 F  
HETATM   24  C   UNL     1     -10.953  12.900  66.490  1.00  0.00    -0.300 A  
ENDBRANCH  14  15
ENDBRANCH   8  14
BRANCH   9  25
HETATM   25  O   UNL     1      -6.771  10.976  68.402  1.00  0.00    -0.057 OA 
HETATM   26  C   UNL     1      -6.303  10.966  69.744  1.00  0.00    -0.114 C  
ENDBRANCH   9  25
BRANCH  11  27
HETATM   27  N   UNL     1      -6.586   6.290  69.044  1.00  0.00    -0.046 NA 
HETATM   28  H   UNL     1      -5.692   5.802  68.995  1.00  0.00     0.000 HD 
BRANCH  27  29
HETATM   29  C   UNL     1      -7.591   5.845  70.010  1.00  0.00    -0.087 C  
HETATM   30  C   UNL     1      -6.932   5.828  71.392  1.00  0.00    -0.071 C  
BRANCH  29  31
HETATM   31  C   UNL     1      -8.797   6.803  70.027  1.00  0.00    -0.142 C  
BRANCH  31  32
HETATM   32  C   UNL     1     -10.043   6.266  70.741  1.00  0.00    -0.229 C  
BRANCH  32  33
HETATM   33  C   UNL     1     -11.254   5.992  69.844  1.00  0.00    -0.368 C  
HETATM   34  N   UNL     1     -11.192   6.740  68.587  1.00  0.00    -0.540 NA 
HETATM   35  H1  UNL     1     -11.998   6.558  67.989  1.00  0.00     0.000 HD 
HETATM   36  H2  UNL     1     -10.318   6.559  68.093  1.00  0.00     0.000 HD 
ENDBRANCH  32  33
ENDBRANCH  31  32
ENDBRANCH  29  31
ENDBRANCH  27  29
ENDBRANCH  11  27
ENDBRANCH   2   3
TORSDOF 9
ENDMDL
MODEL      235
REMARK 921   NORMALIZED FREE ENERGY PREDICTED BY IDOCK:   -4.02 KCAL/MOL
REMARK 922        TOTAL FREE ENERGY PREDICTED BY IDOCK:   -7.10 KCAL/MOL
REMARK 923 INTER-LIGAND FREE ENERGY PREDICTED BY IDOCK:   -5.78 KCAL/MOL
REMARK 924 INTRA-LIGAND FREE ENERGY PREDICTED BY IDOCK:   -1.32 KCAL/MOL
REMARK 927      BINDING AFFINITY PREDICTED BY RF-SCORE:    0.00 PKD
ROOT
HETATM    1  C   UNL     1      -8.756   4.323  63.051  1.00  0.00    -0.111 C  
HETATM    2  O   UNL     1      -7.734   4.103  64.019  1.00  0.00    -0.079 OA 
ENDROOT
BRANCH   2   3
HETATM    3  C   UNL     1      -7.946   4.801  65.189  1.00  0.00    -0.097 A  
HETATM    4  C   UNL     1      -8.680   4.169  66.163  1.00  0.00    -0.115 A  
HETATM    5  C   UNL     1      -8.846   4.815  67.393  1.00  0.00    -0.106 A  
HETATM    6  C   UNL     1      -8.124   6.022  67.660  1.00  0.00    -0.106 A  
HETATM    7  C   UNL     1      -9.896   4.260  68.320  1.00  0.00    -0.106 C  
HETATM    8  C   UNL     1      -7.872   6.649  68.929  1.00  0.00    -0.111 A  
HETATM    9  C   UNL     1      -7.471   7.996  68.985  1.00  0.00    -0.093 A  
HETATM   10  C   UNL     1      -7.598   6.668  66.513  1.00  0.00    -0.090 A  
HETATM   11  C   UNL     1      -7.182   8.013  66.577  1.00  0.00    -0.080 A  
HETATM   12  N   UNL     1      -7.493   6.057  65.315  1.00  0.00    -0.080 NA 
HETATM   13  C   UNL     1      -7.164   8.671  67.806  1.00  0.00    -0.088 A  
BRANCH   8  14
HETATM   14  O   UNL     1      -7.949   6.006  70.149  1.00  0.00    -0.102 OA 
BRANCH  14  15
HETATM   15  C   UNL     1      -8.997   6.165  71.034  1.00  0.00    -0.143 A  
HETATM   16  C   UNL     1      -8.632   5.934  72.367  1.00  0.00    -0.120 A  
HETATM   17  C   UNL     1      -9.466   6.328  73.411  1.00  0.00    -0.146 A  
HETATM   18  F   UNL     1     -12.067   8.948  70.575  1.00  0.00    -0.223 F  
HETATM   19  F   UNL     1     -12.831   8.599  72.572  1.00  0.00    -0.392 F  
HETATM   20  C   UNL     1     -10.668   6.970  73.126  1.00  0.00    -0.359 A  
HETATM   21  C   UNL     1     -10.276   6.649  70.751  1.00  0.00    -0.221 A  
HETATM   22  C   UNL     1     -12.316   7.962  71.482  1.00  0.00    -0.315 C  
HETATM   23  F   UNL     1     -13.332   7.221  70.965  1.00  0.00    -0.389 F  
HETATM   24  C   UNL     1     -11.083   7.145  71.796  1.00  0.00    -0.267 A  
ENDBRANCH  14  15
ENDBRANCH   8  14
BRANCH   9  25
HETATM   25  O   UNL     1      -7.265   8.768  70.100  1.00  0.00    -0.048 OA 
HETATM   26  C   UNL     1      -8.076   9.924  70.267  1.00  0.00    -0.085 C  
ENDBRANCH   9  25
BRANCH  11  27
HETATM   27  N   UNL     1      -6.724   8.643  65.400  1.00  0.00    -0.066 NA 
HETATM   28  H   UNL     1      -5.872   8.303  64.953  1.00  0.00     0.000 HD 
BRANCH  27  29
HETATM   29  C   UNL     1      -7.438   9.773  64.804  1.00  0.00    -0.130 C  
HETATM   30  C   UNL     1      -6.867   9.995  63.401  1.00  0.00    -0.132 C  
BRANCH  29  31
HETATM   31  C   UNL     1      -8.946   9.476  64.703  1.00  0.00    -0.266 C  
BRANCH  31  32
HETATM   32  C   UNL     1      -9.790  10.598  64.089  1.00  0.00    -0.396 C  
BRANCH  32  33
HETATM   33  C   UNL     1     -10.335  11.634  65.077  1.00  0.00    -0.281 C  
HETATM   34  N   UNL     1      -9.268  12.430  65.689  1.00  0.00    -0.435 NA 
HETATM   35  H1  UNL     1      -9.630  13.120  66.347  1.00  0.00     0.000 HD 
HETATM   36  H2  UNL     1      -8.682  12.869  64.980  1.00  0.00     0.000 HD 
ENDBRANCH  32  33
ENDBRANCH  31  32
ENDBRANCH  29  31
ENDBRANCH  27  29
ENDBRANCH  11  27
ENDBRANCH   2   3
TORSDOF 9
ENDMDL
MODEL      236
REMARK 921   NORMALIZED FREE ENERGY PREDICTED BY IDOCK:   -3.98 KCAL/MOL
REMARK 922        TOTAL FREE ENERGY PREDICTED BY IDOCK:   -7.04 KCAL/MOL
REMARK 923 INTER-LIGAND FREE ENERGY PREDICTED BY IDOCK:   -5.51 KCAL/MOL
REMARK 924 INTRA-LIGAND FREE ENERGY PREDICTED BY IDOCK:   -1.53 KCAL/MOL
REMARK 927      BINDING AFFINITY PREDICTED BY RF-SCORE:    0.00 PKD
ROOT
HETATM    1  C   UNL     1      -5.633   6.589  64.166  1.00  0.00    -0.030 C  
HETATM    2  O   UNL     1      -6.970   6.463  64.642  1.00  0.00    -0.048 OA 
ENDROOT
BRANCH   2   3
HETATM    3  C   UNL     1      -7.169   7.094  65.850  1.00  0.00    -0.074 A  
HETATM    4  C   UNL     1      -6.612   8.340  65.999  1.00  0.00    -0.053 A  
HETATM    5  C   UNL     1      -6.862   9.044  67.183  1.00  0.00    -0.074 A  
HETATM    6  C   UNL     1      -7.809   8.527  68.124  1.00  0.00    -0.103 A  
HETATM    7  C   UNL     1      -6.002  10.251  67.456  1.00  0.00    -0.053 C  
HETATM    8  C   UNL     1      -8.465   9.218  69.200  1.00  0.00    -0.133 A  
HETATM    9  C   UNL     1      -9.074   8.493  70.240  1.00  0.00    -0.154 A  
HETATM   10  C   UNL     1      -8.126   7.156  67.958  1.00  0.00    -0.120 A  
HETATM   11  C   UNL     1      -8.752   6.436  68.996  1.00  0.00    -0.123 A  
HETATM   12  N   UNL     1      -7.831   6.469  66.835  1.00  0.00    -0.106 NA 
HETATM   13  C   UNL     1      -9.180   7.108  70.140  1.00  0.00    -0.155 A  
BRANCH   8  14
HETATM   14  O   UNL     1      -8.594  10.591  69.286  1.00  0.00    -0.161 OA 
BRANCH  14  15
HETATM   15  C   UNL     1      -9.418  11.335  68.467  1.00  0.00    -0.191 A  
HETATM   16  C   UNL     1     -10.447  10.582  67.887  1.00  0.00    -0.247 A  
HETATM   17  C   UNL     1     -11.533  11.208  67.279  1.00  0.00    -0.218 A  
HETATM   18  F   UNL     1     -10.413  15.329  69.131  1.00  0.00    -0.210 F  
HETATM   19  F   UNL     1     -11.934  15.323  67.588  1.00  0.00    -0.331 F  
HETATM   20  C   UNL     1     -11.602  12.598  67.259  1.00  0.00    -0.428 A  
HETATM   21  C   UNL     1      -9.407  12.722  68.291  1.00  0.00    -0.194 A  
HETATM   22  C   UNL     1     -10.679  14.872  67.875  1.00  0.00    -0.265 C  
HETATM   23  F   UNL     1      -9.839  15.544  67.043  1.00  0.00    -0.224 F  
HETATM   24  C   UNL     1     -10.546  13.370  67.770  1.00  0.00    -0.252 A  
ENDBRANCH  14  15
ENDBRANCH   8  14
BRANCH   9  25
HETATM   25  O   UNL     1      -9.671   8.984  71.373  1.00  0.00    -0.276 OA 
HETATM   26  C   UNL     1     -11.079   9.177  71.351  1.00  0.00    -0.345 C  
ENDBRANCH   9  25
BRANCH  11  27
HETATM   27  N   UNL     1      -8.996   5.056  68.819  1.00  0.00    -0.100 NA 
HETATM   28  H   UNL     1      -9.554   4.748  68.023  1.00  0.00     0.000 HD 
BRANCH  27  29
HETATM   29  C   UNL     1      -8.468   4.057  69.750  1.00  0.00    -0.060 C  
HETATM   30  C   UNL     1      -9.651   3.236  70.270  1.00  0.00    -0.198 C  
BRANCH  29  31
HETATM   31  C   UNL     1      -7.468   3.124  69.042  1.00  0.00    -0.048 C  
BRANCH  31  32
HETATM   32  C   UNL     1      -7.554   3.121  67.511  1.00  0.00    -0.065 C  
BRANCH  32  33
HETATM   33  C   UNL     1      -8.421   2.016  66.899  1.00  0.00    -0.098 C  
HETATM   34  N   UNL     1      -9.502   2.557  66.072  1.00  0.00    -0.372 NA 
HETATM   35  H1  UNL     1     -10.079   1.822  65.664  1.00  0.00     0.000 HD 
HETATM   36  H2  UNL     1      -9.139   3.182  65.353  1.00  0.00     0.000 HD 
ENDBRANCH  32  33
ENDBRANCH  31  32
ENDBRANCH  29  31
ENDBRANCH  27  29
ENDBRANCH  11  27
ENDBRANCH   2   3
TORSDOF 9
ENDMDL
MODEL      237
REMARK 921   NORMALIZED FREE ENERGY PREDICTED BY IDOCK:   -3.94 KCAL/MOL
REMARK 922        TOTAL FREE ENERGY PREDICTED BY IDOCK:   -6.99 KCAL/MOL
REMARK 923 INTER-LIGAND FREE ENERGY PREDICTED BY IDOCK:   -6.18 KCAL/MOL
REMARK 924 INTRA-LIGAND FREE ENERGY PREDICTED BY IDOCK:   -0.81 KCAL/MOL
REMARK 927      BINDING AFFINITY PREDICTED BY RF-SCORE:    0.00 PKD
ROOT
HETATM    1  C   UNL     1      -8.706   5.383  67.383  1.00  0.00    -0.107 C  
HETATM    2  O   UNL     1      -9.787   6.281  67.147  1.00  0.00    -0.127 OA 
ENDROOT
BRANCH   2   3
HETATM    3  C   UNL     1      -9.369   7.572  66.910  1.00  0.00    -0.157 A  
HETATM    4  C   UNL     1      -9.749   8.137  65.717  1.00  0.00     0.232 A  
HETATM    5  C   UNL     1      -9.410   9.474  65.478  1.00  0.00    -0.317 A  
HETATM    6  C   UNL     1      -8.829  10.254  66.529  1.00  0.00    -0.150 A  
HETATM    7  C   UNL     1      -9.556   9.974  64.064  1.00  0.00    -0.243 C  
HETATM    8  C   UNL     1      -8.725  11.685  66.625  1.00  0.00    -0.187 A  
HETATM    9  C   UNL     1      -7.818  12.269  67.527  1.00  0.00    -0.166 A  
HETATM   10  C   UNL     1      -8.293   9.501  67.603  1.00  0.00    -0.125 A  
HETATM   11  C   UNL     1      -7.397  10.095  68.515  1.00  0.00    -0.081 A  
HETATM   12  N   UNL     1      -8.579   8.198  67.795  1.00  0.00    -0.131 NA 
HETATM   13  C   UNL     1      -7.140  11.463  68.438  1.00  0.00    -0.079 A  
BRANCH   8  14
HETATM   14  O   UNL     1      -9.502  12.576  65.910  1.00  0.00    -0.209 OA 
BRANCH  14  15
HETATM   15  C   UNL     1     -10.252  13.578  66.493  1.00  0.00    -0.283 A  
HETATM   16  C   UNL     1     -11.318  13.093  67.262  1.00  0.00    -0.344 A  
HETATM   17  C   UNL     1     -11.992  13.928  68.150  1.00  0.00    -0.385 A  
HETATM   18  F   UNL     1      -8.693  17.198  67.852  1.00  0.00    -0.207 F  
HETATM   19  F   UNL     1     -10.539  17.748  68.844  1.00  0.00    -0.337 F  
HETATM   20  C   UNL     1     -11.593  15.255  68.285  1.00  0.00    -0.357 A  
HETATM   21  C   UNL     1      -9.970  14.947  66.504  1.00  0.00    -0.277 A  
HETATM   22  C   UNL     1     -10.047  17.174  67.709  1.00  0.00    -0.306 C  
HETATM   23  F   UNL     1     -10.336  18.035  66.697  1.00  0.00    -0.324 F  
HETATM   24  C   UNL     1     -10.575  15.777  67.471  1.00  0.00    -0.309 A  
ENDBRANCH  14  15
ENDBRANCH   8  14
BRANCH   9  25
HETATM   25  O   UNL     1      -7.535  13.601  67.693  1.00  0.00    -0.153 OA 
HETATM   26  C   UNL     1      -7.303  14.071  69.015  1.00  0.00    -0.081 C  
ENDBRANCH   9  25
BRANCH  11  27
HETATM   27  N   UNL     1      -6.832   9.298  69.535  1.00  0.00    -0.047 NA 
HETATM   28  H   UNL     1      -5.823   9.152  69.550  1.00  0.00     0.000 HD 
BRANCH  27  29
HETATM   29  C   UNL     1      -7.658   8.676  70.570  1.00  0.00    -0.077 C  
HETATM   30  C   UNL     1      -6.764   8.421  71.787  1.00  0.00    -0.076 C  
BRANCH  29  31
HETATM   31  C   UNL     1      -8.822   9.601  70.973  1.00  0.00     0.315 C  
BRANCH  31  32
HETATM   32  C   UNL     1     -10.032   8.892  71.592  1.00  0.00    -0.397 C  
BRANCH  32  33
HETATM   33  C   UNL     1     -10.954   8.172  70.603  1.00  0.00    -0.244 C  
HETATM   34  N   UNL     1     -11.283   9.006  69.445  1.00  0.00    -0.439 NA 
HETATM   35  H1  UNL     1     -11.897   8.528  68.787  1.00  0.00     0.000 HD 
HETATM   36  H2  UNL     1     -10.439   9.345  68.983  1.00  0.00     0.000 HD 
ENDBRANCH  32  33
ENDBRANCH  31  32
ENDBRANCH  29  31
ENDBRANCH  27  29
ENDBRANCH  11  27
ENDBRANCH   2   3
TORSDOF 9
ENDMDL
MODEL      238
REMARK 921   NORMALIZED FREE ENERGY PREDICTED BY IDOCK:   -3.91 KCAL/MOL
REMARK 922        TOTAL FREE ENERGY PREDICTED BY IDOCK:   -6.94 KCAL/MOL
REMARK 923 INTER-LIGAND FREE ENERGY PREDICTED BY IDOCK:   -6.00 KCAL/MOL
REMARK 924 INTRA-LIGAND FREE ENERGY PREDICTED BY IDOCK:   -0.95 KCAL/MOL
REMARK 927      BINDING AFFINITY PREDICTED BY RF-SCORE:    0.00 PKD
ROOT
HETATM    1  C   UNL     1      -9.709   5.423  71.006  1.00  0.00    -0.179 C  
HETATM    2  O   UNL     1     -10.646   6.457  70.719  1.00  0.00    -0.220 OA 
ENDROOT
BRANCH   2   3
HETATM    3  C   UNL     1     -10.403   7.080  69.514  1.00  0.00    -0.213 A  
HETATM    4  C   UNL     1     -10.789   8.393  69.406  1.00  0.00    -0.094 A  
HETATM    5  C   UNL     1     -10.485   9.080  68.225  1.00  0.00    -0.247 A  
HETATM    6  C   UNL     1      -9.651   8.459  67.242  1.00  0.00    -0.215 A  
HETATM    7  C   UNL     1     -11.180  10.399  68.003  1.00  0.00    -0.340 C  
HETATM    8  C   UNL     1      -8.943   9.076  66.153  1.00  0.00    -0.177 A  
HETATM    9  C   UNL     1      -8.475   8.296  65.081  1.00  0.00    -0.146 A  
HETATM   10  C   UNL     1      -9.519   7.054  67.374  1.00  0.00    -0.133 A  
HETATM   11  C   UNL     1      -9.034   6.277  66.303  1.00  0.00    -0.155 A  
HETATM   12  N   UNL     1      -9.868   6.391  68.496  1.00  0.00    -0.135 NA 
HETATM   13  C   UNL     1      -8.557   6.908  65.155  1.00  0.00     0.046 A  
BRANCH   8  14
HETATM   14  O   UNL     1      -8.630  10.420  66.085  1.00  0.00    -0.136 OA 
BRANCH  14  15
HETATM   15  C   UNL     1      -9.374  11.346  65.382  1.00  0.00    -0.186 A  
HETATM   16  C   UNL     1     -10.186  10.768  64.398  1.00  0.00    -0.432 A  
HETATM   17  C   UNL     1     -11.210  11.499  63.800  1.00  0.00    -0.456 A  
HETATM   18  F   UNL     1     -10.930  14.849  67.021  1.00  0.00    -0.296 F  
HETATM   19  F   UNL     1     -12.136  15.264  65.269  1.00  0.00    -0.176 F  
HETATM   20  C   UNL     1     -11.436  12.815  64.195  1.00  0.00    -0.450 A  
HETATM   21  C   UNL     1      -9.492  12.712  65.648  1.00  0.00     0.013 A  
HETATM   22  C   UNL     1     -10.910  14.811  65.659  1.00  0.00    -0.339 C  
HETATM   23  F   UNL     1     -10.018  15.760  65.268  1.00  0.00    -0.343 F  
HETATM   24  C   UNL     1     -10.586  13.434  65.127  1.00  0.00    -0.353 A  
ENDBRANCH  14  15
ENDBRANCH   8  14
BRANCH   9  25
HETATM   25  O   UNL     1      -7.856   8.724  63.935  1.00  0.00    -0.125 OA 
HETATM   26  C   UNL     1      -6.442   8.872  63.959  1.00  0.00    -0.083 C  
ENDBRANCH   9  25
BRANCH  11  27
HETATM   27  N   UNL     1      -8.977   4.874  66.448  1.00  0.00    -0.116 NA 
HETATM   28  H   UNL     1      -9.830   4.327  66.334  1.00  0.00     0.000 HD 
BRANCH  27  29
HETATM   29  C   UNL     1      -7.724   4.183  66.758  1.00  0.00    -0.089 C  
HETATM   30  C   UNL     1      -7.154   3.642  65.445  1.00  0.00    -0.066 C  
BRANCH  29  31
HETATM   31  C   UNL     1      -6.709   5.150  67.397  1.00  0.00    -0.055 C  
BRANCH  31  32
HETATM   32  C   UNL     1      -6.579   5.041  68.921  1.00  0.00    -0.048 C  
BRANCH  32  33
HETATM   33  C   UNL     1      -5.907   6.229  69.615  1.00  0.00    -0.018 C  
HETATM   34  N   UNL     1      -6.317   7.512  69.038  1.00  0.00    -0.038 NA 
HETATM   35  H1  UNL     1      -5.870   8.303  69.500  1.00  0.00     0.000 HD 
HETATM   36  H2  UNL     1      -7.332   7.609  69.039  1.00  0.00     0.000 HD 
ENDBRANCH  32  33
ENDBRANCH  31  32
ENDBRANCH  29  31
ENDBRANCH  27  29
ENDBRANCH  11  27
ENDBRANCH   2   3
TORSDOF 9
ENDMDL
MODEL      239
REMARK 921   NORMALIZED FREE ENERGY PREDICTED BY IDOCK:   -3.89 KCAL/MOL
REMARK 922        TOTAL FREE ENERGY PREDICTED BY IDOCK:   -6.91 KCAL/MOL
REMARK 923 INTER-LIGAND FREE ENERGY PREDICTED BY IDOCK:   -6.44 KCAL/MOL
REMARK 924 INTRA-LIGAND FREE ENERGY PREDICTED BY IDOCK:   -0.47 KCAL/MOL
REMARK 927      BINDING AFFINITY PREDICTED BY RF-SCORE:    0.00 PKD
ROOT
HETATM    1  C   UNL     1      -7.836  15.092  68.751  1.00  0.00    -0.147 C  
HETATM    2  O   UNL     1      -6.837  14.124  68.445  1.00  0.00    -0.082 OA 
ENDROOT
BRANCH   2   3
HETATM    3  C   UNL     1      -7.273  12.829  68.627  1.00  0.00    -0.104 A  
HETATM    4  C   UNL     1      -6.485  12.012  69.399  1.00  0.00    -0.115 A  
HETATM    5  C   UNL     1      -6.937  10.716  69.672  1.00  0.00    -0.134 A  
HETATM    6  C   UNL     1      -8.262  10.334  69.283  1.00  0.00    -0.164 A  
HETATM    7  C   UNL     1      -5.935   9.748  70.245  1.00  0.00    -0.059 C  
HETATM    8  C   UNL     1      -9.041   9.219  69.748  1.00  0.00    -0.177 A  
HETATM    9  C   UNL     1     -10.157   8.781  69.012  1.00  0.00    -0.198 A  
HETATM   10  C   UNL     1      -8.864  11.176  68.315  1.00  0.00    -0.155 A  
HETATM   11  C   UNL     1      -9.992  10.739  67.591  1.00  0.00    -0.173 A  
HETATM   12  N   UNL     1      -8.388  12.402  68.017  1.00  0.00    -0.161 NA 
HETATM   13  C   UNL     1     -10.598   9.528  67.923  1.00  0.00    -0.299 A  
BRANCH   8  14
HETATM   14  O   UNL     1      -8.808   8.538  70.926  1.00  0.00    -0.144 OA 
BRANCH  14  15
HETATM   15  C   UNL     1      -8.526   7.188  70.988  1.00  0.00    -0.129 A  
HETATM   16  C   UNL     1      -7.335   6.843  70.336  1.00  0.00    -0.081 A  
HETATM   17  C   UNL     1      -6.744   5.599  70.543  1.00  0.00    -0.048 A  
HETATM   18  F   UNL     1      -9.451   4.735  74.230  1.00  0.00    -0.117 F  
HETATM   19  F   UNL     1      -8.287   3.081  73.453  1.00  0.00    -0.069 F  
HETATM   20  C   UNL     1      -7.337   4.693  71.418  1.00  0.00    -0.068 A  
HETATM   21  C   UNL     1      -9.205   6.216  71.727  1.00  0.00    -0.149 A  
HETATM   22  C   UNL     1      -9.144   4.074  73.079  1.00  0.00    -0.110 C  
HETATM   23  F   UNL     1     -10.286   3.454  72.682  1.00  0.00    -0.210 F  
HETATM   24  C   UNL     1      -8.568   4.993  72.025  1.00  0.00    -0.127 A  
ENDBRANCH  14  15
ENDBRANCH   8  14
BRANCH   9  25
HETATM   25  O   UNL     1     -10.959   7.697  69.263  1.00  0.00    -0.149 OA 
HETATM   26  C   UNL     1     -11.836   7.765  70.380  1.00  0.00     0.040 C  
ENDBRANCH   9  25
BRANCH  11  27
HETATM   27  N   UNL     1     -10.527  11.578  66.589  1.00  0.00    -0.229 NA 
HETATM   28  H   UNL     1      -9.960  11.799  65.771  1.00  0.00     0.000 HD 
BRANCH  27  29
HETATM   29  C   UNL     1     -11.875  12.139  66.695  1.00  0.00    -0.237 C  
HETATM   30  C   UNL     1     -11.812  13.317  67.672  1.00  0.00    -0.400 C  
BRANCH  29  31
HETATM   31  C   UNL     1     -12.370  12.636  65.324  1.00  0.00    -0.528 C  
BRANCH  31  32
HETATM   32  C   UNL     1     -11.442  13.632  64.619  1.00  0.00    -0.383 C  
BRANCH  32  33
HETATM   33  C   UNL     1     -12.091  14.951  64.189  1.00  0.00    -0.267 C  
HETATM   34  N   UNL     1     -11.137  16.063  64.191  1.00  0.00    -1.068 NA 
HETATM   35  H1  UNL     1     -11.569  16.941  63.904  1.00  0.00     0.000 HD 
HETATM   36  H2  UNL     1     -10.320  15.849  63.619  1.00  0.00     0.000 HD 
ENDBRANCH  32  33
ENDBRANCH  31  32
ENDBRANCH  29  31
ENDBRANCH  27  29
ENDBRANCH  11  27
ENDBRANCH   2   3
TORSDOF 9
ENDMDL
MODEL      240
REMARK 921   NORMALIZED FREE ENERGY PREDICTED BY IDOCK:   -3.84 KCAL/MOL
REMARK 922        TOTAL FREE ENERGY PREDICTED BY IDOCK:   -6.83 KCAL/MOL
REMARK 923 INTER-LIGAND FREE ENERGY PREDICTED BY IDOCK:   -6.24 KCAL/MOL
REMARK 924 INTRA-LIGAND FREE ENERGY PREDICTED BY IDOCK:   -0.60 KCAL/MOL
REMARK 927      BINDING AFFINITY PREDICTED BY RF-SCORE:    0.00 PKD
ROOT
HETATM    1  C   UNL     1     -10.204  11.610  63.118  1.00  0.00    -0.354 C  
HETATM    2  O   UNL     1      -9.364  12.584  63.732  1.00  0.00     0.114 OA 
ENDROOT
BRANCH   2   3
HETATM    3  C   UNL     1     -10.004  13.292  64.727  1.00  0.00    -0.124 A  
HETATM    4  C   UNL     1     -11.357  13.097  64.854  1.00  0.00    -0.334 A  
HETATM    5  C   UNL     1     -12.025  13.737  65.905  1.00  0.00    -0.433 A  
HETATM    6  C   UNL     1     -11.269  14.435  66.900  1.00  0.00    -0.340 A  
HETATM    7  C   UNL     1     -13.530  13.765  65.842  1.00  0.00     1.176 C  
HETATM    8  C   UNL     1     -11.691  14.854  68.209  1.00  0.00    -0.315 A  
HETATM    9  C   UNL     1     -10.960  15.832  68.908  1.00  0.00    -0.283 A  
HETATM   10  C   UNL     1      -9.937  14.745  66.528  1.00  0.00    -0.271 A  
HETATM   11  C   UNL     1      -9.203  15.714  67.241  1.00  0.00    -0.204 A  
HETATM   12  N   UNL     1      -9.319  14.165  65.479  1.00  0.00     0.145 NA 
HETATM   13  C   UNL     1      -9.742  16.274  68.398  1.00  0.00    -0.222 A  
BRANCH   8  14
HETATM   14  O   UNL     1     -12.771  14.327  68.890  1.00  0.00     0.145 OA 
BRANCH  14  15
HETATM   15  C   UNL     1     -12.654  13.462  69.959  1.00  0.00    -0.028 A  
HETATM   16  C   UNL     1     -13.465  13.816  71.046  1.00  0.00    -0.082 A  
HETATM   17  C   UNL     1     -13.701  12.914  72.081  1.00  0.00    -0.505 A  
HETATM   18  F   UNL     1     -11.990   9.361  69.607  1.00  0.00     0.041 F  
HETATM   19  F   UNL     1     -12.362   9.008  71.712  1.00  0.00    -0.336 F  
HETATM   20  C   UNL     1     -13.137  11.642  72.027  1.00  0.00    -0.433 A  
HETATM   21  C   UNL     1     -11.954  12.254  69.996  1.00  0.00    -0.379 A  
HETATM   22  C   UNL     1     -11.762   9.876  70.848  1.00  0.00    -0.364 C  
HETATM   23  F   UNL     1     -10.425   9.758  71.066  1.00  0.00    -0.350 F  
HETATM   24  C   UNL     1     -12.265  11.295  70.983  1.00  0.00    -0.417 A  
ENDBRANCH  14  15
ENDBRANCH   8  14
BRANCH   9  25
HETATM   25  O   UNL     1     -11.258  16.401  70.120  1.00  0.00    -0.354 OA 
HETATM   26  C   UNL     1     -10.904  15.683  71.295  1.00  0.00     0.019 C  
ENDBRANCH   9  25
BRANCH  11  27
HETATM   27  N   UNL     1      -7.901  16.043  66.803  1.00  0.00    -0.249 NA 
HETATM   28  H   UNL     1      -7.600  15.749  65.874  1.00  0.00     0.000 HD 
BRANCH  27  29
HETATM   29  C   UNL     1      -6.973  16.795  67.649  1.00  0.00    -0.135 C  
HETATM   30  C   UNL     1      -5.562  16.579  67.095  1.00  0.00    -0.146 C  
BRANCH  29  31
HETATM   31  C   UNL     1      -7.308  18.298  67.628  1.00  0.00    -0.211 C  
BRANCH  31  32
HETATM   32  C   UNL     1      -7.688  18.860  66.253  1.00  0.00    -0.297 C  
BRANCH  32  33
HETATM   33  C   UNL     1      -8.908  19.786  66.230  1.00  0.00    -0.370 C  
HETATM   34  N   UNL     1      -9.984  19.306  67.100  1.00  0.00    -0.340 NA 
HETATM   35  H1  UNL     1     -10.796  19.923  67.085  1.00  0.00     0.000 HD 
HETATM   36  H2  UNL     1      -9.651  19.158  68.052  1.00  0.00     0.000 HD 
ENDBRANCH  32  33
ENDBRANCH  31  32
ENDBRANCH  29  31
ENDBRANCH  27  29
ENDBRANCH  11  27
ENDBRANCH   2   3
TORSDOF 9
ENDMDL
MODEL      241
REMARK 921   NORMALIZED FREE ENERGY PREDICTED BY IDOCK:   -3.84 KCAL/MOL
REMARK 922        TOTAL FREE ENERGY PREDICTED BY IDOCK:   -6.83 KCAL/MOL
REMARK 923 INTER-LIGAND FREE ENERGY PREDICTED BY IDOCK:   -6.11 KCAL/MOL
REMARK 924 INTRA-LIGAND FREE ENERGY PREDICTED BY IDOCK:   -0.72 KCAL/MOL
REMARK 927      BINDING AFFINITY PREDICTED BY RF-SCORE:    0.00 PKD
ROOT
HETATM    1  C   UNL     1      -7.755  15.574  67.392  1.00  0.00    -0.194 C  
HETATM    2  O   UNL     1      -8.607  14.471  67.096  1.00  0.00    -0.201 OA 
ENDROOT
BRANCH   2   3
HETATM    3  C   UNL     1      -8.012  13.253  67.345  1.00  0.00    -0.170 A  
HETATM    4  C   UNL     1      -7.501  13.059  68.605  1.00  0.00    -0.093 A  
HETATM    5  C   UNL     1      -6.962  11.806  68.919  1.00  0.00    -0.109 A  
HETATM    6  C   UNL     1      -7.101  10.726  67.989  1.00  0.00    -0.081 A  
HETATM    7  C   UNL     1      -6.138  11.711  70.176  1.00  0.00    -0.155 C  
HETATM    8  C   UNL     1      -6.945   9.317  68.229  1.00  0.00    -0.072 A  
HETATM    9  C   UNL     1      -6.757   8.432  67.152  1.00  0.00    -0.063 A  
HETATM   10  C   UNL     1      -7.434  11.116  66.668  1.00  0.00    -0.146 A  
HETATM   11  C   UNL     1      -7.260  10.221  65.593  1.00  0.00    -0.148 A  
HETATM   12  N   UNL     1      -7.900  12.345  66.365  1.00  0.00     0.355 NA 
HETATM   13  C   UNL     1      -6.883   8.903  65.847  1.00  0.00    -0.072 A  
BRANCH   8  14
HETATM   14  O   UNL     1      -7.011   8.723  69.474  1.00  0.00    -0.053 OA 
BRANCH  14  15
HETATM   15  C   UNL     1      -8.191   8.493  70.153  1.00  0.00    -0.121 A  
HETATM   16  C   UNL     1      -8.935   9.660  70.375  1.00  0.00    -0.239 A  
HETATM   17  C   UNL     1     -10.268   9.588  70.773  1.00  0.00    -0.363 A  
HETATM   18  F   UNL     1     -10.512   5.055  69.745  1.00  0.00    -0.323 F  
HETATM   19  F   UNL     1     -12.162   5.902  70.865  1.00  0.00    -0.019 F  
HETATM   20  C   UNL     1     -10.870   8.344  70.940  1.00  0.00    -0.267 A  
HETATM   21  C   UNL     1      -8.746   7.256  70.489  1.00  0.00    -0.148 A  
HETATM   22  C   UNL     1     -10.801   5.817  70.837  1.00  0.00    -0.256 C  
HETATM   23  F   UNL     1     -10.449   5.074  71.920  1.00  0.00    -0.251 F  
HETATM   24  C   UNL     1     -10.120   7.166  70.793  1.00  0.00    -0.197 A  
ENDBRANCH  14  15
ENDBRANCH   8  14
BRANCH   9  25
HETATM   25  O   UNL     1      -6.517   7.083  67.201  1.00  0.00    -0.049 OA 
HETATM   26  C   UNL     1      -5.441   6.570  66.426  1.00  0.00    -0.014 C  
ENDBRANCH   9  25
BRANCH  11  27
HETATM   27  N   UNL     1      -7.541  10.665  64.282  1.00  0.00    -0.353 NA 
HETATM   28  H   UNL     1      -6.854  11.239  63.794  1.00  0.00     0.000 HD 
BRANCH  27  29
HETATM   29  C   UNL     1      -8.794  10.323  63.607  1.00  0.00    -0.222 C  
HETATM   30  C   UNL     1      -8.700   8.859  63.168  1.00  0.00    -0.059 C  
BRANCH  29  31
HETATM   31  C   UNL     1      -9.994  10.497  64.556  1.00  0.00    -0.413 C  
BRANCH  31  32
HETATM   32  C   UNL     1     -11.120  11.391  64.023  1.00  0.00    -0.400 C  
BRANCH  32  33
HETATM   33  C   UNL     1     -11.723  12.371  65.033  1.00  0.00    -0.371 C  
HETATM   34  N   UNL     1     -13.109  12.717  64.709  1.00  0.00    -0.848 NA 
HETATM   35  H1  UNL     1     -13.511  13.370  65.382  1.00  0.00     0.000 HD 
HETATM   36  H2  UNL     1     -13.686  11.881  64.616  1.00  0.00     0.000 HD 
ENDBRANCH  32  33
ENDBRANCH  31  32
ENDBRANCH  29  31
ENDBRANCH  27  29
ENDBRANCH  11  27
ENDBRANCH   2   3
TORSDOF 9
ENDMDL
MODEL      242
REMARK 921   NORMALIZED FREE ENERGY PREDICTED BY IDOCK:   -3.83 KCAL/MOL
REMARK 922        TOTAL FREE ENERGY PREDICTED BY IDOCK:   -6.81 KCAL/MOL
REMARK 923 INTER-LIGAND FREE ENERGY PREDICTED BY IDOCK:   -5.78 KCAL/MOL
REMARK 924 INTRA-LIGAND FREE ENERGY PREDICTED BY IDOCK:   -1.02 KCAL/MOL
REMARK 927      BINDING AFFINITY PREDICTED BY RF-SCORE:    0.00 PKD
ROOT
HETATM    1  C   UNL     1      -6.332  17.223  68.644  1.00  0.00    -0.173 C  
HETATM    2  O   UNL     1      -6.419  16.180  69.611  1.00  0.00    -0.190 OA 
ENDROOT
BRANCH   2   3
HETATM    3  C   UNL     1      -6.838  14.983  69.072  1.00  0.00    -0.118 A  
HETATM    4  C   UNL     1      -6.254  13.842  69.563  1.00  0.00    -0.115 A  
HETATM    5  C   UNL     1      -6.714  12.606  69.097  1.00  0.00    -0.086 A  
HETATM    6  C   UNL     1      -7.872  12.555  68.256  1.00  0.00    -0.144 A  
HETATM    7  C   UNL     1      -5.864  11.400  69.404  1.00  0.00    -0.063 C  
HETATM    8  C   UNL     1      -8.704  11.423  67.952  1.00  0.00    -0.145 A  
HETATM    9  C   UNL     1      -9.567  11.457  66.841  1.00  0.00    -0.185 A  
HETATM   10  C   UNL     1      -8.226  13.788  67.655  1.00  0.00    -0.177 A  
HETATM   11  C   UNL     1      -9.104  13.820  66.552  1.00  0.00    -0.129 A  
HETATM   12  N   UNL     1      -7.735  14.972  68.074  1.00  0.00    -0.115 NA 
HETATM   13  C   UNL     1      -9.730  12.646  66.135  1.00  0.00    -0.253 A  
BRANCH   8  14
HETATM   14  O   UNL     1      -8.768  10.271  68.711  1.00  0.00    -0.128 OA 
BRANCH  14  15
HETATM   15  C   UNL     1      -8.460   9.015  68.227  1.00  0.00    -0.129 A  
HETATM   16  C   UNL     1      -9.446   8.060  68.504  1.00  0.00    -0.143 A  
HETATM   17  C   UNL     1      -9.450   6.831  67.850  1.00  0.00    -0.118 A  
HETATM   18  F   UNL     1      -6.357   8.303  64.698  1.00  0.00    -0.060 F  
HETATM   19  F   UNL     1      -6.787   6.180  64.740  1.00  0.00    -0.042 F  
HETATM   20  C   UNL     1      -8.471   6.554  66.900  1.00  0.00    -0.114 A  
HETATM   21  C   UNL     1      -7.384   8.667  67.406  1.00  0.00    -0.089 A  
HETATM   22  C   UNL     1      -6.450   7.234  65.537  1.00  0.00    -0.044 C  
HETATM   23  F   UNL     1      -5.187   6.985  65.974  1.00  0.00    -0.020 F  
HETATM   24  C   UNL     1      -7.433   7.469  66.662  1.00  0.00    -0.092 A  
ENDBRANCH  14  15
ENDBRANCH   8  14
BRANCH   9  25
HETATM   25  O   UNL     1     -10.366  10.450  66.364  1.00  0.00    -0.236 OA 
HETATM   26  C   UNL     1     -10.117   9.972  65.048  1.00  0.00    -0.157 C  
ENDBRANCH   9  25
BRANCH  11  27
HETATM   27  N   UNL     1      -9.384  15.060  65.938  1.00  0.00    -0.467 NA 
HETATM   28  H   UNL     1      -8.625  15.578  65.496  1.00  0.00     0.000 HD 
BRANCH  27  29
HETATM   29  C   UNL     1     -10.736  15.622  65.922  1.00  0.00    -0.329 C  
HETATM   30  C   UNL     1     -11.550  14.841  64.887  1.00  0.00    -0.401 C  
BRANCH  29  31
HETATM   31  C   UNL     1     -11.401  15.490  67.304  1.00  0.00    -0.167 C  
BRANCH  31  32
HETATM   32  C   UNL     1     -10.851  16.431  68.382  1.00  0.00    -0.342 C  
BRANCH  32  33
HETATM   33  C   UNL     1     -11.406  16.219  69.794  1.00  0.00    -0.264 C  
HETATM   34  N   UNL     1     -12.770  15.684  69.777  1.00  0.00    -0.550 NA 
HETATM   35  H1  UNL     1     -13.140  15.542  70.717  1.00  0.00     0.000 HD 
HETATM   36  H2  UNL     1     -12.823  14.827  69.227  1.00  0.00     0.000 HD 
ENDBRANCH  32  33
ENDBRANCH  31  32
ENDBRANCH  29  31
ENDBRANCH  27  29
ENDBRANCH  11  27
ENDBRANCH   2   3
TORSDOF 9
ENDMDL
MODEL      243
REMARK 921   NORMALIZED FREE ENERGY PREDICTED BY IDOCK:   -3.82 KCAL/MOL
REMARK 922        TOTAL FREE ENERGY PREDICTED BY IDOCK:   -6.79 KCAL/MOL
REMARK 923 INTER-LIGAND FREE ENERGY PREDICTED BY IDOCK:   -5.67 KCAL/MOL
REMARK 924 INTRA-LIGAND FREE ENERGY PREDICTED BY IDOCK:   -1.12 KCAL/MOL
REMARK 927      BINDING AFFINITY PREDICTED BY RF-SCORE:    0.00 PKD
ROOT
HETATM    1  C   UNL     1      -6.776   7.109  72.382  1.00  0.00    -0.056 C  
HETATM    2  O   UNL     1      -6.699   6.749  71.006  1.00  0.00    -0.052 OA 
ENDROOT
BRANCH   2   3
HETATM    3  C   UNL     1      -7.472   7.554  70.198  1.00  0.00    -0.086 A  
HETATM    4  C   UNL     1      -8.458   8.286  70.813  1.00  0.00    -0.139 A  
HETATM    5  C   UNL     1      -9.209   9.175  70.035  1.00  0.00    -0.209 A  
HETATM    6  C   UNL     1      -8.830   9.417  68.676  1.00  0.00    -0.132 A  
HETATM    7  C   UNL     1     -10.469   9.725  70.650  1.00  0.00    -0.358 C  
HETATM    8  C   UNL     1      -9.219  10.506  67.821  1.00  0.00    -0.145 A  
HETATM    9  C   UNL     1      -9.059  10.403  66.428  1.00  0.00    -0.157 A  
HETATM   10  C   UNL     1      -7.960   8.447  68.118  1.00  0.00    -0.119 A  
HETATM   11  C   UNL     1      -7.789   8.358  66.722  1.00  0.00    -0.094 A  
HETATM   12  N   UNL     1      -7.283   7.555  68.870  1.00  0.00    -0.080 NA 
HETATM   13  C   UNL     1      -8.375   9.314  65.893  1.00  0.00    -0.122 A  
BRANCH   8  14
HETATM   14  O   UNL     1      -9.718  11.713  68.270  1.00  0.00    -0.186 OA 
BRANCH  14  15
HETATM   15  C   UNL     1      -9.057  12.916  68.125  1.00  0.00    -0.207 A  
HETATM   16  C   UNL     1      -7.688  12.832  68.411  1.00  0.00    -0.132 A  
HETATM   17  C   UNL     1      -6.819  13.856  68.040  1.00  0.00    -0.146 A  
HETATM   18  F   UNL     1     -10.014  15.799  65.269  1.00  0.00    -0.343 F  
HETATM   19  F   UNL     1      -8.228  16.956  65.676  1.00  0.00    -0.220 F  
HETATM   20  C   UNL     1      -7.314  14.968  67.365  1.00  0.00    -0.231 A  
HETATM   21  C   UNL     1      -9.573  14.107  67.605  1.00  0.00    -0.216 A  
HETATM   22  C   UNL     1      -9.217  16.238  66.283  1.00  0.00    -0.328 C  
HETATM   23  F   UNL     1      -9.957  17.136  66.984  1.00  0.00    -0.255 F  
HETATM   24  C   UNL     1      -8.693  15.103  67.133  1.00  0.00    -0.238 A  
ENDBRANCH  14  15
ENDBRANCH   8  14
BRANCH   9  25
HETATM   25  O   UNL     1      -9.443  11.304  65.467  1.00  0.00    -0.219 OA 
HETATM   26  C   UNL     1     -10.834  11.460  65.221  1.00  0.00    -0.233 C  
ENDBRANCH   9  25
BRANCH  11  27
HETATM   27  N   UNL     1      -6.965   7.339  66.198  1.00  0.00    -0.064 NA 
HETATM   28  H   UNL     1      -6.068   7.147  66.644  1.00  0.00     0.000 HD 
BRANCH  27  29
HETATM   29  C   UNL     1      -7.364   6.550  65.031  1.00  0.00    -0.078 C  
HETATM   30  C   UNL     1      -6.128   5.795  64.536  1.00  0.00    -0.025 C  
BRANCH  29  31
HETATM   31  C   UNL     1      -8.467   5.542  65.402  1.00  0.00    -0.146 C  
BRANCH  31  32
HETATM   32  C   UNL     1      -8.999   4.702  64.235  1.00  0.00    -0.136 C  
BRANCH  32  33
HETATM   33  C   UNL     1      -9.230   3.219  64.537  1.00  0.00    -0.138 C  
HETATM   34  N   UNL     1     -10.533   2.752  64.059  1.00  0.00    -0.385 NA 
HETATM   35  H1  UNL     1     -10.687   1.764  64.259  1.00  0.00     0.000 HD 
HETATM   36  H2  UNL     1     -10.654   2.950  63.066  1.00  0.00     0.000 HD 
ENDBRANCH  32  33
ENDBRANCH  31  32
ENDBRANCH  29  31
ENDBRANCH  27  29
ENDBRANCH  11  27
ENDBRANCH   2   3
TORSDOF 9
ENDMDL
MODEL      244
REMARK 921   NORMALIZED FREE ENERGY PREDICTED BY IDOCK:   -3.79 KCAL/MOL
REMARK 922        TOTAL FREE ENERGY PREDICTED BY IDOCK:   -6.75 KCAL/MOL
REMARK 923 INTER-LIGAND FREE ENERGY PREDICTED BY IDOCK:   -6.34 KCAL/MOL
REMARK 924 INTRA-LIGAND FREE ENERGY PREDICTED BY IDOCK:   -0.41 KCAL/MOL
REMARK 927      BINDING AFFINITY PREDICTED BY RF-SCORE:    0.00 PKD
ROOT
HETATM    1  C   UNL     1     -12.789  14.413  64.987  1.00  0.00    -0.107 C  
HETATM    2  O   UNL     1     -12.028  13.841  63.926  1.00  0.00    -0.435 OA 
ENDROOT
BRANCH   2   3
HETATM    3  C   UNL     1     -11.158  12.863  64.359  1.00  0.00    -0.361 A  
HETATM    4  C   UNL     1     -10.631  12.034  63.399  1.00  0.00    -0.478 A  
HETATM    5  C   UNL     1      -9.683  11.082  63.792  1.00  0.00    -0.351 A  
HETATM    6  C   UNL     1      -9.173  11.104  65.129  1.00  0.00    -0.209 A  
HETATM    7  C   UNL     1      -9.357   9.994  62.802  1.00  0.00    -0.290 C  
HETATM    8  C   UNL     1      -7.985  10.476  65.641  1.00  0.00    -0.158 A  
HETATM    9  C   UNL     1      -7.824  10.291  67.026  1.00  0.00    -0.107 A  
HETATM   10  C   UNL     1      -9.953  11.844  66.053  1.00  0.00    -0.232 A  
HETATM   11  C   UNL     1      -9.778  11.667  67.440  1.00  0.00    -0.176 A  
HETATM   12  N   UNL     1     -10.905  12.718  65.668  1.00  0.00    -0.269 NA 
HETATM   13  C   UNL     1      -8.741  10.860  67.906  1.00  0.00    -0.131 A  
BRANCH   8  14
HETATM   14  O   UNL     1      -6.922  10.060  64.864  1.00  0.00    -0.126 OA 
BRANCH  14  15
HETATM   15  C   UNL     1      -6.847   8.817  64.270  1.00  0.00    -0.078 A  
HETATM   16  C   UNL     1      -5.760   8.688  63.396  1.00  0.00    -0.076 A  
HETATM   17  C   UNL     1      -5.357   7.434  62.941  1.00  0.00    -0.038 A  
HETATM   18  F   UNL     1      -7.965   5.252  66.120  1.00  0.00    -0.099 F  
HETATM   19  F   UNL     1      -7.111   4.036  64.542  1.00  0.00    -0.049 F  
HETATM   20  C   UNL     1      -6.035   6.297  63.370  1.00  0.00    -0.022 A  
HETATM   21  C   UNL     1      -7.628   7.694  64.558  1.00  0.00    -0.112 A  
HETATM   22  C   UNL     1      -7.824   5.177  64.766  1.00  0.00    -0.094 C  
HETATM   23  F   UNL     1      -9.068   4.946  64.269  1.00  0.00    -0.156 F  
HETATM   24  C   UNL     1      -7.171   6.412  64.188  1.00  0.00    -0.065 A  
ENDBRANCH  14  15
ENDBRANCH   8  14
BRANCH   9  25
HETATM   25  O   UNL     1      -6.802   9.648  67.677  1.00  0.00    -0.079 OA 
HETATM   26  C   UNL     1      -6.541  10.012  69.026  1.00  0.00    -0.052 C  
ENDBRANCH   9  25
BRANCH  11  27
HETATM   27  N   UNL     1     -10.616  12.373  68.330  1.00  0.00    -0.215 NA 
HETATM   28  H   UNL     1     -11.053  11.873  69.104  1.00  0.00     0.000 HD 
BRANCH  27  29
HETATM   29  C   UNL     1     -10.875  13.805  68.170  1.00  0.00    -0.246 C  
HETATM   30  C   UNL     1     -11.915  14.209  69.219  1.00  0.00    -0.382 C  
BRANCH  29  31
HETATM   31  C   UNL     1      -9.587  14.622  68.382  1.00  0.00    -0.217 C  
BRANCH  31  32
HETATM   32  C   UNL     1      -9.749  16.140  68.238  1.00  0.00    -0.220 C  
BRANCH  32  33
HETATM   33  C   UNL     1      -8.877  16.800  67.167  1.00  0.00    -0.200 C  
HETATM   34  N   UNL     1      -9.368  16.534  65.813  1.00  0.00    -0.504 NA 
HETATM   35  H1  UNL     1      -8.788  16.974  65.099  1.00  0.00     0.000 HD 
HETATM   36  H2  UNL     1     -10.345  16.809  65.714  1.00  0.00     0.000 HD 
ENDBRANCH  32  33
ENDBRANCH  31  32
ENDBRANCH  29  31
ENDBRANCH  27  29
ENDBRANCH  11  27
ENDBRANCH   2   3
TORSDOF 9
ENDMDL
MODEL      245
REMARK 921   NORMALIZED FREE ENERGY PREDICTED BY IDOCK:   -3.76 KCAL/MOL
REMARK 922        TOTAL FREE ENERGY PREDICTED BY IDOCK:   -6.71 KCAL/MOL
REMARK 923 INTER-LIGAND FREE ENERGY PREDICTED BY IDOCK:   -5.28 KCAL/MOL
REMARK 924 INTRA-LIGAND FREE ENERGY PREDICTED BY IDOCK:   -1.44 KCAL/MOL
REMARK 927      BINDING AFFINITY PREDICTED BY RF-SCORE:    0.00 PKD
ROOT
HETATM    1  C   UNL     1      -6.375   8.346  63.306  1.00  0.00    -0.085 C  
HETATM    2  O   UNL     1      -5.301   8.794  64.128  1.00  0.00    -0.054 OA 
ENDROOT
BRANCH   2   3
HETATM    3  C   UNL     1      -5.699   9.095  65.412  1.00  0.00    -0.053 A  
HETATM    4  C   UNL     1      -5.613  10.410  65.796  1.00  0.00    -0.089 A  
HETATM    5  C   UNL     1      -6.085  10.765  67.065  1.00  0.00    -0.068 A  
HETATM    6  C   UNL     1      -6.782   9.795  67.855  1.00  0.00    -0.065 A  
HETATM    7  C   UNL     1      -5.701  12.127  67.582  1.00  0.00    -0.101 C  
HETATM    8  C   UNL     1      -7.630  10.016  68.995  1.00  0.00    -0.090 A  
HETATM    9  C   UNL     1      -7.937   8.954  69.864  1.00  0.00    -0.108 A  
HETATM   10  C   UNL     1      -6.599   8.450  67.446  1.00  0.00    -0.059 A  
HETATM   11  C   UNL     1      -6.924   7.389  68.314  1.00  0.00    -0.079 A  
HETATM   12  N   UNL     1      -6.091   8.117  66.242  1.00  0.00    -0.044 NA 
HETATM   13  C   UNL     1      -7.551   7.659  69.530  1.00  0.00    -0.098 A  
BRANCH   8  14
HETATM   14  O   UNL     1      -8.233  11.220  69.301  1.00  0.00    -0.016 OA 
BRANCH  14  15
HETATM   15  C   UNL     1      -9.222  11.800  68.532  1.00  0.00    -0.151 A  
HETATM   16  C   UNL     1     -10.185  10.883  68.090  1.00  0.00    -0.197 A  
HETATM   17  C   UNL     1     -11.396  11.323  67.562  1.00  0.00    -0.360 A  
HETATM   18  F   UNL     1     -10.694  15.658  69.107  1.00  0.00    -0.205 F  
HETATM   19  F   UNL     1     -12.332  15.359  67.720  1.00  0.00    -0.051 F  
HETATM   20  C   UNL     1     -11.658  12.688  67.485  1.00  0.00    -0.418 A  
HETATM   21  C   UNL     1      -9.417  13.163  68.293  1.00  0.00    -0.210 A  
HETATM   22  C   UNL     1     -11.006  15.097  67.904  1.00  0.00    -0.302 C  
HETATM   23  F   UNL     1     -10.345  15.824  66.965  1.00  0.00    -0.265 F  
HETATM   24  C   UNL     1     -10.677  13.622  67.856  1.00  0.00    -0.257 A  
ENDBRANCH  14  15
ENDBRANCH   8  14
BRANCH   9  25
HETATM   25  O   UNL     1      -8.659   9.001  71.030  1.00  0.00    -0.188 OA 
HETATM   26  C   UNL     1      -9.988   8.496  71.009  1.00  0.00    -0.203 C  
ENDBRANCH   9  25
BRANCH  11  27
HETATM   27  N   UNL     1      -6.669   6.064  67.898  1.00  0.00    -0.059 NA 
HETATM   28  H   UNL     1      -5.840   5.583  68.249  1.00  0.00     0.000 HD 
BRANCH  27  29
HETATM   29  C   UNL     1      -7.562   5.362  66.975  1.00  0.00    -0.092 C  
HETATM   30  C   UNL     1      -6.707   4.412  66.132  1.00  0.00    -0.050 C  
BRANCH  29  31
HETATM   31  C   UNL     1      -8.620   4.552  67.747  1.00  0.00    -0.107 C  
BRANCH  31  32
HETATM   32  C   UNL     1      -9.651   3.829  66.872  1.00  0.00    -0.207 C  
BRANCH  32  33
HETATM   33  C   UNL     1     -10.407   4.711  65.874  1.00  0.00    -0.283 C  
HETATM   34  N   UNL     1     -11.279   5.680  66.542  1.00  0.00    -0.665 NA 
HETATM   35  H1  UNL     1     -11.783   6.268  65.878  1.00  0.00     0.000 HD 
HETATM   36  H2  UNL     1     -10.758   6.245  67.213  1.00  0.00     0.000 HD 
ENDBRANCH  32  33
ENDBRANCH  31  32
ENDBRANCH  29  31
ENDBRANCH  27  29
ENDBRANCH  11  27
ENDBRANCH   2   3
TORSDOF 9
ENDMDL
MODEL      246
REMARK 921   NORMALIZED FREE ENERGY PREDICTED BY IDOCK:   -3.72 KCAL/MOL
REMARK 922        TOTAL FREE ENERGY PREDICTED BY IDOCK:   -6.65 KCAL/MOL
REMARK 923 INTER-LIGAND FREE ENERGY PREDICTED BY IDOCK:   -5.38 KCAL/MOL
REMARK 924 INTRA-LIGAND FREE ENERGY PREDICTED BY IDOCK:   -1.27 KCAL/MOL
REMARK 927      BINDING AFFINITY PREDICTED BY RF-SCORE:    0.00 PKD
ROOT
HETATM    1  C   UNL     1      -6.301  15.303  69.654  1.00  0.00    -0.154 C  
HETATM    2  O   UNL     1      -7.673  15.427  69.291  1.00  0.00    -0.187 OA 
ENDROOT
BRANCH   2   3
HETATM    3  C   UNL     1      -8.088  14.442  68.421  1.00  0.00    -0.143 A  
HETATM    4  C   UNL     1      -7.742  13.151  68.736  1.00  0.00    -0.006 A  
HETATM    5  C   UNL     1      -8.215  12.117  67.919  1.00  0.00    -0.155 A  
HETATM    6  C   UNL     1      -9.164  12.411  66.888  1.00  0.00    -0.209 A  
HETATM    7  C   UNL     1      -7.579  10.762  68.093  1.00  0.00    -0.093 C  
HETATM    8  C   UNL     1     -10.024  11.501  66.181  1.00  0.00    -0.224 A  
HETATM    9  C   UNL     1     -10.620  11.889  64.968  1.00  0.00    -0.289 A  
HETATM   10  C   UNL     1      -9.253  13.780  66.533  1.00  0.00    -0.192 A  
HETATM   11  C   UNL     1      -9.866  14.166  65.324  1.00  0.00    -0.164 A  
HETATM   12  N   UNL     1      -8.745  14.767  67.298  1.00  0.00    -0.197 NA 
HETATM   13  C   UNL     1     -10.505  13.208  64.538  1.00  0.00    -0.425 A  
BRANCH   8  14
HETATM   14  O   UNL     1     -10.366  10.240  66.629  1.00  0.00    -0.227 OA 
BRANCH  14  15
HETATM   15  C   UNL     1      -9.629   9.104  66.360  1.00  0.00    -0.245 A  
HETATM   16  C   UNL     1      -9.968   8.020  67.180  1.00  0.00    -0.303 A  
HETATM   17  C   UNL     1      -9.548   6.730  66.864  1.00  0.00    -0.200 A  
HETATM   18  F   UNL     1      -8.292   8.007  62.567  1.00  0.00    -0.165 F  
HETATM   19  F   UNL     1      -7.665   6.044  63.234  1.00  0.00    -0.068 F  
HETATM   20  C   UNL     1      -8.794   6.515  65.713  1.00  0.00    -0.097 A  
HETATM   21  C   UNL     1      -8.731   8.909  65.308  1.00  0.00    -0.220 A  
HETATM   22  C   UNL     1      -7.686   7.357  63.600  1.00  0.00    -0.125 C  
HETATM   23  F   UNL     1      -6.390   7.769  63.596  1.00  0.00    -0.058 F  
HETATM   24  C   UNL     1      -8.384   7.598  64.919  1.00  0.00    -0.054 A  
ENDBRANCH  14  15
ENDBRANCH   8  14
BRANCH   9  25
HETATM   25  O   UNL     1     -11.396  11.130  64.130  1.00  0.00    -0.191 OA 
HETATM   26  C   UNL     1     -12.464  11.775  63.448  1.00  0.00    -0.372 C  
ENDBRANCH   9  25
BRANCH  11  27
HETATM   27  N   UNL     1      -9.879  15.533  64.971  1.00  0.00    -0.263 NA 
HETATM   28  H   UNL     1      -8.998  16.045  64.932  1.00  0.00     0.000 HD 
BRANCH  27  29
HETATM   29  C   UNL     1     -11.126  16.235  64.661  1.00  0.00    -0.246 C  
HETATM   30  C   UNL     1     -12.271  15.460  65.318  1.00  0.00     0.428 C  
BRANCH  29  31
HETATM   31  C   UNL     1     -11.096  17.673  65.213  1.00  0.00     0.491 C  
BRANCH  31  32
HETATM   32  C   UNL     1     -10.037  17.934  66.290  1.00  0.00    -0.351 C  
BRANCH  32  33
HETATM   33  C   UNL     1     -10.544  17.920  67.735  1.00  0.00    -0.389 C  
HETATM   34  N   UNL     1      -9.455  17.775  68.703  1.00  0.00    -0.291 NA 
HETATM   35  H1  UNL     1      -9.792  17.765  69.665  1.00  0.00     0.000 HD 
HETATM   36  H2  UNL     1      -8.744  18.493  68.569  1.00  0.00     0.000 HD 
ENDBRANCH  32  33
ENDBRANCH  31  32
ENDBRANCH  29  31
ENDBRANCH  27  29
ENDBRANCH  11  27
ENDBRANCH   2   3
TORSDOF 9
ENDMDL
MODEL      247
REMARK 921   NORMALIZED FREE ENERGY PREDICTED BY IDOCK:   -3.70 KCAL/MOL
REMARK 922        TOTAL FREE ENERGY PREDICTED BY IDOCK:   -6.62 KCAL/MOL
REMARK 923 INTER-LIGAND FREE ENERGY PREDICTED BY IDOCK:   -5.74 KCAL/MOL
REMARK 924 INTRA-LIGAND FREE ENERGY PREDICTED BY IDOCK:   -0.88 KCAL/MOL
REMARK 927      BINDING AFFINITY PREDICTED BY RF-SCORE:    0.00 PKD
ROOT
HETATM    1  C   UNL     1     -10.213  10.421  63.285  1.00  0.00     0.253 C  
HETATM    2  O   UNL     1     -10.503  10.325  64.677  1.00  0.00    -0.185 OA 
ENDROOT
BRANCH   2   3
HETATM    3  C   UNL     1      -9.935  11.341  65.413  1.00  0.00    -0.250 A  
HETATM    4  C   UNL     1     -10.398  12.612  65.177  1.00  0.00    -0.312 A  
HETATM    5  C   UNL     1      -9.901  13.658  65.964  1.00  0.00    -0.290 A  
HETATM    6  C   UNL     1      -9.060  13.360  67.084  1.00  0.00    -0.235 A  
HETATM    7  C   UNL     1     -10.178  15.061  65.490  1.00  0.00    -0.406 C  
HETATM    8  C   UNL     1      -8.728  14.204  68.199  1.00  0.00    -0.181 A  
HETATM    9  C   UNL     1      -7.620  13.902  69.010  1.00  0.00    -0.002 A  
HETATM   10  C   UNL     1      -8.489  12.063  67.072  1.00  0.00    -0.183 A  
HETATM   11  C   UNL     1      -7.389  11.759  67.898  1.00  0.00    -0.098 A  
HETATM   12  N   UNL     1      -8.937  11.076  66.270  1.00  0.00    -0.178 NA 
HETATM   13  C   UNL     1      -6.943  12.698  68.827  1.00  0.00    -0.096 A  
BRANCH   8  14
HETATM   14  O   UNL     1      -9.459  15.309  68.590  1.00  0.00    -0.189 OA 
BRANCH  14  15
HETATM   15  C   UNL     1     -10.649  15.235  69.286  1.00  0.00    -0.256 A  
HETATM   16  C   UNL     1     -11.629  14.483  68.625  1.00  0.00    -0.346 A  
HETATM   17  C   UNL     1     -12.772  14.055  69.296  1.00  0.00     0.424 A  
HETATM   18  F   UNL     1     -10.941  15.113  73.443  1.00  0.00    -0.027 F  
HETATM   19  F   UNL     1     -13.053  14.634  73.392  1.00  0.00    -0.556 F  
HETATM   20  C   UNL     1     -12.936  14.368  70.643  1.00  0.00    -0.348 A  
HETATM   21  C   UNL     1     -10.899  15.691  70.582  1.00  0.00    -0.319 A  
HETATM   22  C   UNL     1     -12.102  15.408  72.794  1.00  0.00    -0.433 C  
HETATM   23  F   UNL     1     -12.403  16.693  73.122  1.00  0.00    -0.499 F  
HETATM   24  C   UNL     1     -12.000  15.181  71.303  1.00  0.00    -0.399 A  
ENDBRANCH  14  15
ENDBRANCH   8  14
BRANCH   9  25
HETATM   25  O   UNL     1      -7.118  14.631  70.058  1.00  0.00    -0.134 OA 
HETATM   26  C   UNL     1      -5.725  14.537  70.326  1.00  0.00    -0.133 C  
ENDBRANCH   9  25
BRANCH  11  27
HETATM   27  N   UNL     1      -6.806  10.476  67.814  1.00  0.00    -0.073 NA 
HETATM   28  H   UNL     1      -6.255  10.233  66.991  1.00  0.00     0.000 HD 
BRANCH  27  29
HETATM   29  C   UNL     1      -6.971   9.484  68.878  1.00  0.00    -0.063 C  
HETATM   30  C   UNL     1      -8.433   9.028  68.864  1.00  0.00    -0.130 C  
BRANCH  29  31
HETATM   31  C   UNL     1      -6.052   8.271  68.644  1.00  0.00    -0.045 C  
BRANCH  31  32
HETATM   32  C   UNL     1      -6.345   7.054  69.529  1.00  0.00    -0.035 C  
BRANCH  32  33
HETATM   33  C   UNL     1      -5.149   6.143  69.820  1.00  0.00    -0.012 C  
HETATM   34  N   UNL     1      -5.536   4.941  70.561  1.00  0.00    -0.007 NA 
HETATM   35  H1  UNL     1      -4.740   4.333  70.755  1.00  0.00     0.000 HD 
HETATM   36  H2  UNL     1      -6.278   4.433  70.080  1.00  0.00     0.000 HD 
ENDBRANCH  32  33
ENDBRANCH  31  32
ENDBRANCH  29  31
ENDBRANCH  27  29
ENDBRANCH  11  27
ENDBRANCH   2   3
TORSDOF 9
ENDMDL
MODEL      248
REMARK 921   NORMALIZED FREE ENERGY PREDICTED BY IDOCK:   -3.65 KCAL/MOL
REMARK 922        TOTAL FREE ENERGY PREDICTED BY IDOCK:   -6.54 KCAL/MOL
REMARK 923 INTER-LIGAND FREE ENERGY PREDICTED BY IDOCK:   -4.99 KCAL/MOL
REMARK 924 INTRA-LIGAND FREE ENERGY PREDICTED BY IDOCK:   -1.55 KCAL/MOL
REMARK 927      BINDING AFFINITY PREDICTED BY RF-SCORE:    0.00 PKD
ROOT
HETATM    1  C   UNL     1     -10.020   3.103  63.210  1.00  0.00    -0.130 C  
HETATM    2  O   UNL     1      -9.145   2.778  64.286  1.00  0.00    -0.109 OA 
ENDROOT
BRANCH   2   3
HETATM    3  C   UNL     1      -9.113   3.750  65.262  1.00  0.00    -0.143 A  
HETATM    4  C   UNL     1      -9.370   3.346  66.549  1.00  0.00    -0.173 A  
HETATM    5  C   UNL     1      -9.266   4.291  67.576  1.00  0.00    -0.174 A  
HETATM    6  C   UNL     1      -8.744   5.593  67.286  1.00  0.00    -0.107 A  
HETATM    7  C   UNL     1      -9.847   3.915  68.914  1.00  0.00    -0.002 C  
HETATM    8  C   UNL     1      -8.235   6.575  68.205  1.00  0.00    -0.114 A  
HETATM    9  C   UNL     1      -8.105   7.917  67.806  1.00  0.00    -0.128 A  
HETATM   10  C   UNL     1      -8.737   5.940  65.912  1.00  0.00    -0.150 A  
HETATM   11  C   UNL     1      -8.590   7.285  65.516  1.00  0.00    -0.075 A  
HETATM   12  N   UNL     1      -8.895   5.031  64.929  1.00  0.00    -0.154 NA 
HETATM   13  C   UNL     1      -8.317   8.260  66.473  1.00  0.00    -0.112 A  
BRANCH   8  14
HETATM   14  O   UNL     1      -7.803   6.297  69.487  1.00  0.00    -0.097 OA 
BRANCH  14  15
HETATM   15  C   UNL     1      -8.522   6.610  70.623  1.00  0.00    -0.138 A  
HETATM   16  C   UNL     1      -7.719   7.078  71.673  1.00  0.00    -0.093 A  
HETATM   17  C   UNL     1      -8.287   7.712  72.775  1.00  0.00    -0.167 A  
HETATM   18  F   UNL     1     -12.379   8.193  70.608  1.00  0.00    -0.188 F  
HETATM   19  F   UNL     1     -12.332   8.618  72.732  1.00  0.00    -0.452 F  
HETATM   20  C   UNL     1      -9.666   7.895  72.828  1.00  0.00    -0.322 A  
HETATM   21  C   UNL     1      -9.912   6.641  70.762  1.00  0.00    -0.201 A  
HETATM   22  C   UNL     1     -11.971   7.685  71.805  1.00  0.00    -0.299 C  
HETATM   23  F   UNL     1     -12.753   6.598  72.041  1.00  0.00    -0.369 F  
HETATM   24  C   UNL     1     -10.492   7.370  71.821  1.00  0.00    -0.221 A  
ENDBRANCH  14  15
ENDBRANCH   8  14
BRANCH   9  25
HETATM   25  O   UNL     1      -7.715   8.989  68.568  1.00  0.00    -0.095 OA 
HETATM   26  C   UNL     1      -8.614  10.084  68.684  1.00  0.00    -0.123 C  
ENDBRANCH   9  25
BRANCH  11  27
HETATM   27  N   UNL     1      -8.652   7.602  64.141  1.00  0.00    -0.337 NA 
HETATM   28  H   UNL     1      -9.556   7.594  63.670  1.00  0.00     0.000 HD 
BRANCH  27  29
HETATM   29  C   UNL     1      -7.451   7.940  63.375  1.00  0.00    -0.122 C  
HETATM   30  C   UNL     1      -7.421   9.462  63.207  1.00  0.00    -0.105 C  
BRANCH  29  31
HETATM   31  C   UNL     1      -6.181   7.480  64.115  1.00  0.00    -0.048 C  
BRANCH  31  32
HETATM   32  C   UNL     1      -5.468   6.274  63.493  1.00  0.00    -0.018 C  
BRANCH  32  33
HETATM   33  C   UNL     1      -5.357   5.036  64.389  1.00  0.00    -0.013 C  
HETATM   34  N   UNL     1      -6.090   3.891  63.843  1.00  0.00    -0.014 NA 
HETATM   35  H1  UNL     1      -6.016   3.067  64.439  1.00  0.00     0.000 HD 
HETATM   36  H2  UNL     1      -5.794   3.684  62.890  1.00  0.00     0.000 HD 
ENDBRANCH  32  33
ENDBRANCH  31  32
ENDBRANCH  29  31
ENDBRANCH  27  29
ENDBRANCH  11  27
ENDBRANCH   2   3
TORSDOF 9
ENDMDL
MODEL      249
REMARK 921   NORMALIZED FREE ENERGY PREDICTED BY IDOCK:   -3.60 KCAL/MOL
REMARK 922        TOTAL FREE ENERGY PREDICTED BY IDOCK:   -6.47 KCAL/MOL
REMARK 923 INTER-LIGAND FREE ENERGY PREDICTED BY IDOCK:   -5.25 KCAL/MOL
REMARK 924 INTRA-LIGAND FREE ENERGY PREDICTED BY IDOCK:   -1.22 KCAL/MOL
REMARK 927      BINDING AFFINITY PREDICTED BY RF-SCORE:    0.00 PKD
ROOT
HETATM    1  C   UNL     1      -9.740   3.976  66.066  1.00  0.00    -0.187 C  
HETATM    2  O   UNL     1      -8.372   4.128  65.699  1.00  0.00    -0.108 OA 
ENDROOT
BRANCH   2   3
HETATM    3  C   UNL     1      -7.982   5.448  65.621  1.00  0.00    -0.107 A  
HETATM    4  C   UNL     1      -8.132   6.068  64.405  1.00  0.00    -0.119 A  
HETATM    5  C   UNL     1      -7.823   7.430  64.311  1.00  0.00    -0.127 A  
HETATM    6  C   UNL     1      -7.519   8.168  65.500  1.00  0.00    -0.081 A  
HETATM    7  C   UNL     1      -7.694   8.007  62.925  1.00  0.00    -0.135 C  
HETATM    8  C   UNL     1      -7.515   9.594  65.687  1.00  0.00    -0.101 A  
HETATM    9  C   UNL     1      -6.851  10.160  66.790  1.00  0.00    -0.086 A  
HETATM   10  C   UNL     1      -7.182   7.375  66.624  1.00  0.00    -0.080 A  
HETATM   11  C   UNL     1      -6.532   7.950  67.735  1.00  0.00    -0.052 A  
HETATM   12  N   UNL     1      -7.432   6.051  66.685  1.00  0.00    -0.089 NA 
HETATM   13  C   UNL     1      -6.338   9.329  67.783  1.00  0.00    -0.059 A  
BRANCH   8  14
HETATM   14  O   UNL     1      -8.170  10.493  64.869  1.00  0.00    -0.168 OA 
BRANCH  14  15
HETATM   15  C   UNL     1      -9.434  10.984  65.127  1.00  0.00    -0.228 A  
HETATM   16  C   UNL     1     -10.037  10.395  66.246  1.00  0.00    -0.292 A  
HETATM   17  C   UNL     1     -11.169  10.962  66.826  1.00  0.00    -0.109 A  
HETATM   18  F   UNL     1     -10.612  14.926  64.449  1.00  0.00    -0.344 F  
HETATM   19  F   UNL     1     -12.488  14.663  65.503  1.00  0.00    -0.347 F  
HETATM   20  C   UNL     1     -11.699  12.136  66.297  1.00  0.00    -0.389 A  
HETATM   21  C   UNL     1     -10.068  12.059  64.498  1.00  0.00    -0.293 A  
HETATM   22  C   UNL     1     -11.635  14.044  64.637  1.00  0.00    -0.392 C  
HETATM   23  F   UNL     1     -12.293  13.972  63.449  1.00  0.00    -0.504 F  
HETATM   24  C   UNL     1     -11.152  12.701  65.133  1.00  0.00    -0.329 A  
ENDBRANCH  14  15
ENDBRANCH   8  14
BRANCH   9  25
HETATM   25  O   UNL     1      -6.682  11.490  67.080  1.00  0.00    -0.119 OA 
HETATM   26  C   UNL     1      -7.590  12.093  67.992  1.00  0.00    -0.123 C  
ENDBRANCH   9  25
BRANCH  11  27
HETATM   27  N   UNL     1      -6.153   7.117  68.810  1.00  0.00    -0.029 NA 
HETATM   28  H   UNL     1      -5.511   6.343  68.638  1.00  0.00     0.000 HD 
BRANCH  27  29
HETATM   29  C   UNL     1      -6.658   7.335  70.167  1.00  0.00    -0.043 C  
HETATM   30  C   UNL     1      -8.167   7.077  70.147  1.00  0.00    -0.133 C  
BRANCH  29  31
HETATM   31  C   UNL     1      -5.985   6.372  71.163  1.00  0.00    -0.028 C  
BRANCH  31  32
HETATM   32  C   UNL     1      -5.464   5.066  70.553  1.00  0.00    -0.008 C  
BRANCH  32  33
HETATM   33  C   UNL     1      -6.301   3.817  70.848  1.00  0.00    -0.019 C  
HETATM   34  N   UNL     1      -5.947   2.695  69.975  1.00  0.00    -0.022 NA 
HETATM   35  H1  UNL     1      -6.504   1.864  70.171  1.00  0.00     0.000 HD 
HETATM   36  H2  UNL     1      -4.949   2.491  70.023  1.00  0.00     0.000 HD 
ENDBRANCH  32  33
ENDBRANCH  31  32
ENDBRANCH  29  31
ENDBRANCH  27  29
ENDBRANCH  11  27
ENDBRANCH   2   3
TORSDOF 9
ENDMDL
MODEL      250
REMARK 921   NORMALIZED FREE ENERGY PREDICTED BY IDOCK:   -3.40 KCAL/MOL
REMARK 922        TOTAL FREE ENERGY PREDICTED BY IDOCK:   -6.16 KCAL/MOL
REMARK 923 INTER-LIGAND FREE ENERGY PREDICTED BY IDOCK:   -5.99 KCAL/MOL
REMARK 924 INTRA-LIGAND FREE ENERGY PREDICTED BY IDOCK:   -0.17 KCAL/MOL
REMARK 927      BINDING AFFINITY PREDICTED BY RF-SCORE:    0.00 PKD
ROOT
HETATM    1  C   UNL     1      -5.145  15.594  70.334  1.00  0.00    -0.134 C  
HETATM    2  O   UNL     1      -5.415  14.346  70.966  1.00  0.00    -0.139 OA 
ENDROOT
BRANCH   2   3
HETATM    3  C   UNL     1      -6.099  13.471  70.151  1.00  0.00    -0.123 A  
HETATM    4  C   UNL     1      -6.620  13.984  68.988  1.00  0.00    -0.106 A  
HETATM    5  C   UNL     1      -7.250  13.107  68.098  1.00  0.00    -0.117 A  
HETATM    6  C   UNL     1      -7.195  11.696  68.339  1.00  0.00    -0.088 A  
HETATM    7  C   UNL     1      -8.076  13.724  66.999  1.00  0.00    -0.004 C  
HETATM    8  C   UNL     1      -7.455  10.623  67.418  1.00  0.00    -0.094 A  
HETATM    9  C   UNL     1      -7.711   9.326  67.898  1.00  0.00    -0.088 A  
HETATM   10  C   UNL     1      -6.837  11.331  69.661  1.00  0.00    -0.095 A  
HETATM   11  C   UNL     1      -7.080  10.026  70.132  1.00  0.00    -0.154 A  
HETATM   12  N   UNL     1      -6.281  12.198  70.532  1.00  0.00    -0.178 NA 
HETATM   13  C   UNL     1      -7.553   9.052  69.254  1.00  0.00    -0.079 A  
BRANCH   8  14
HETATM   14  O   UNL     1      -7.431  10.748  66.043  1.00  0.00    -0.149 OA 
BRANCH  14  15
HETATM   15  C   UNL     1      -8.515  11.153  65.291  1.00  0.00     0.085 A  
HETATM   16  C   UNL     1      -8.618  10.482  64.065  1.00  0.00    -0.149 A  
HETATM   17  C   UNL     1      -9.791  10.541  63.317  1.00  0.00    -0.309 A  
HETATM   18  F   UNL     1     -12.181  12.329  66.890  1.00  0.00    -0.366 F  
HETATM   19  F   UNL     1     -13.147  12.347  64.950  1.00  0.00    -0.535 F  
HETATM   20  C   UNL     1     -10.879  11.265  63.800  1.00  0.00    -0.424 A  
HETATM   21  C   UNL     1      -9.542  12.015  65.684  1.00  0.00    -0.205 A  
HETATM   22  C   UNL     1     -11.986  12.674  65.586  1.00  0.00    -0.452 C  
HETATM   23  F   UNL     1     -11.914  14.032  65.561  1.00  0.00    -0.330 F  
HETATM   24  C   UNL     1     -10.770  12.002  64.990  1.00  0.00    -0.341 A  
ENDBRANCH  14  15
ENDBRANCH   8  14
BRANCH   9  25
HETATM   25  O   UNL     1      -8.051   8.212  67.174  1.00  0.00    -0.113 OA 
HETATM   26  C   UNL     1      -9.433   7.946  66.974  1.00  0.00    -0.174 C  
ENDBRANCH   9  25
BRANCH  11  27
HETATM   27  N   UNL     1      -6.769   9.715  71.474  1.00  0.00    -0.312 NA 
HETATM   28  H   UNL     1      -6.549  10.473  72.121  1.00  0.00     0.000 HD 
BRANCH  27  29
HETATM   29  C   UNL     1      -6.754   8.335  71.961  1.00  0.00    -0.079 C  
HETATM   30  C   UNL     1      -5.611   8.212  72.972  1.00  0.00    -0.050 C  
BRANCH  29  31
HETATM   31  C   UNL     1      -8.087   7.981  72.647  1.00  0.00    -0.197 C  
BRANCH  31  32
HETATM   32  C   UNL     1      -8.557   6.536  72.446  1.00  0.00    -0.119 C  
BRANCH  32  33
HETATM   33  C   UNL     1      -9.943   6.372  71.816  1.00  0.00    -0.177 C  
HETATM   34  N   UNL     1     -10.334   7.542  71.027  1.00  0.00    -0.199 NA 
HETATM   35  H1  UNL     1     -11.257   7.433  70.607  1.00  0.00     0.000 HD 
HETATM   36  H2  UNL     1      -9.632   7.763  70.321  1.00  0.00     0.000 HD 
ENDBRANCH  32  33
ENDBRANCH  31  32
ENDBRANCH  29  31
ENDBRANCH  27  29
ENDBRANCH  11  27
ENDBRANCH   2   3
TORSDOF 9
ENDMDL
MODEL      251
REMARK 921   NORMALIZED FREE ENERGY PREDICTED BY IDOCK:   -3.38 KCAL/MOL
REMARK 922        TOTAL FREE ENERGY PREDICTED BY IDOCK:   -6.13 KCAL/MOL
REMARK 923 INTER-LIGAND FREE ENERGY PREDICTED BY IDOCK:   -5.58 KCAL/MOL
REMARK 924 INTRA-LIGAND FREE ENERGY PREDICTED BY IDOCK:   -0.55 KCAL/MOL
REMARK 927      BINDING AFFINITY PREDICTED BY RF-SCORE:    0.00 PKD
ROOT
HETATM    1  C   UNL     1      -6.255  17.251  68.555  1.00  0.00    -0.160 C  
HETATM    2  O   UNL     1      -6.239  16.154  69.464  1.00  0.00    -0.159 OA 
ENDROOT
BRANCH   2   3
HETATM    3  C   UNL     1      -6.652  14.974  68.885  1.00  0.00    -0.096 A  
HETATM    4  C   UNL     1      -5.995  13.831  69.269  1.00  0.00    -0.091 A  
HETATM    5  C   UNL     1      -6.441  12.605  68.763  1.00  0.00    -0.085 A  
HETATM    6  C   UNL     1      -7.651  12.555  68.000  1.00  0.00    -0.127 A  
HETATM    7  C   UNL     1      -5.530  11.418  68.943  1.00  0.00    -0.039 C  
HETATM    8  C   UNL     1      -8.462  11.409  67.687  1.00  0.00    -0.130 A  
HETATM    9  C   UNL     1      -9.400  11.471  66.641  1.00  0.00    -0.189 A  
HETATM   10  C   UNL     1      -8.090  13.805  67.496  1.00  0.00    -0.185 A  
HETATM   11  C   UNL     1      -9.042  13.863  66.459  1.00  0.00    -0.143 A  
HETATM   12  N   UNL     1      -7.614  14.982  67.950  1.00  0.00    -0.126 NA 
HETATM   13  C   UNL     1      -9.654  12.690  66.017  1.00  0.00    -0.190 A  
BRANCH   8  14
HETATM   14  O   UNL     1      -8.432  10.216  68.381  1.00  0.00    -0.113 OA 
BRANCH  14  15
HETATM   15  C   UNL     1      -8.236   8.987  67.784  1.00  0.00    -0.109 A  
HETATM   16  C   UNL     1      -7.055   8.920  67.033  1.00  0.00    -0.078 A  
HETATM   17  C   UNL     1      -6.549   7.693  66.610  1.00  0.00    -0.057 A  
HETATM   18  F   UNL     1      -9.388   5.346  69.457  1.00  0.00    -0.127 F  
HETATM   19  F   UNL     1      -8.313   4.195  67.969  1.00  0.00    -0.091 F  
HETATM   20  C   UNL     1      -7.218   6.519  66.949  1.00  0.00    -0.078 A  
HETATM   21  C   UNL     1      -8.992   7.826  67.971  1.00  0.00    -0.126 A  
HETATM   22  C   UNL     1      -9.097   5.300  68.127  1.00  0.00    -0.110 C  
HETATM   23  F   UNL     1     -10.267   5.024  67.493  1.00  0.00    -0.195 F  
HETATM   24  C   UNL     1      -8.440   6.571  67.638  1.00  0.00    -0.117 A  
ENDBRANCH  14  15
ENDBRANCH   8  14
BRANCH   9  25
HETATM   25  O   UNL     1     -10.193  10.461  66.160  1.00  0.00    -0.232 OA 
HETATM   26  C   UNL     1     -10.004  10.053  64.811  1.00  0.00    -0.178 C  
ENDBRANCH   9  25
BRANCH  11  27
HETATM   27  N   UNL     1      -9.409  15.123  65.938  1.00  0.00    -0.441 NA 
HETATM   28  H   UNL     1      -8.756  15.618  65.330  1.00  0.00     0.000 HD 
BRANCH  27  29
HETATM   29  C   UNL     1     -10.700  15.738  66.249  1.00  0.00    -0.282 C  
HETATM   30  C   UNL     1     -11.796  14.760  65.816  1.00  0.00    -0.202 C  
BRANCH  29  31
HETATM   31  C   UNL     1     -10.826  16.015  67.758  1.00  0.00    -0.324 C  
BRANCH  31  32
HETATM   32  C   UNL     1     -11.818  15.115  68.504  1.00  0.00    -0.307 C  
BRANCH  32  33
HETATM   33  C   UNL     1     -11.914  15.344  70.015  1.00  0.00    -0.356 C  
HETATM   34  N   UNL     1     -11.546  16.710  70.392  1.00  0.00    -0.336 NA 
HETATM   35  H1  UNL     1     -11.610  16.863  71.399  1.00  0.00     0.000 HD 
HETATM   36  H2  UNL     1     -12.100  17.396  69.879  1.00  0.00     0.000 HD 
ENDBRANCH  32  33
ENDBRANCH  31  32
ENDBRANCH  29  31
ENDBRANCH  27  29
ENDBRANCH  11  27
ENDBRANCH   2   3
TORSDOF 9
ENDMDL
MODEL      252
REMARK 921   NORMALIZED FREE ENERGY PREDICTED BY IDOCK:   -3.21 KCAL/MOL
REMARK 922        TOTAL FREE ENERGY PREDICTED BY IDOCK:   -5.87 KCAL/MOL
REMARK 923 INTER-LIGAND FREE ENERGY PREDICTED BY IDOCK:   -4.18 KCAL/MOL
REMARK 924 INTRA-LIGAND FREE ENERGY PREDICTED BY IDOCK:   -1.69 KCAL/MOL
REMARK 927      BINDING AFFINITY PREDICTED BY RF-SCORE:    0.00 PKD
ROOT
HETATM    1  C   UNL     1      -9.767   2.043  63.681  1.00  0.00    -0.125 C  
HETATM    2  O   UNL     1      -8.957   1.489  64.714  1.00  0.00    -0.109 OA 
ENDROOT
BRANCH   2   3
HETATM    3  C   UNL     1      -8.853   2.315  65.813  1.00  0.00    -0.124 A  
HETATM    4  C   UNL     1      -8.872   1.711  67.046  1.00  0.00    -0.135 A  
HETATM    5  C   UNL     1      -8.687   2.509  68.180  1.00  0.00    -0.135 A  
HETATM    6  C   UNL     1      -8.326   3.886  68.023  1.00  0.00    -0.100 A  
HETATM    7  C   UNL     1      -9.019   1.891  69.513  1.00  0.00    -0.147 C  
HETATM    8  C   UNL     1      -7.763   4.778  69.000  1.00  0.00    -0.071 A  
HETATM    9  C   UNL     1      -7.808   6.169  68.797  1.00  0.00    -0.101 A  
HETATM   10  C   UNL     1      -8.563   4.420  66.731  1.00  0.00    -0.107 A  
HETATM   11  C   UNL     1      -8.591   5.814  66.529  1.00  0.00    -0.121 A  
HETATM   12  N   UNL     1      -8.796   3.645  65.653  1.00  0.00    -0.121 NA 
HETATM   13  C   UNL     1      -8.253   6.670  67.576  1.00  0.00    -0.122 A  
BRANCH   8  14
HETATM   14  O   UNL     1      -7.114   4.371  70.149  1.00  0.00    -0.043 OA 
BRANCH  14  15
HETATM   15  C   UNL     1      -7.607   4.578  71.422  1.00  0.00    -0.073 A  
HETATM   16  C   UNL     1      -6.602   4.789  72.375  1.00  0.00    -0.046 A  
HETATM   17  C   UNL     1      -6.911   5.300  73.633  1.00  0.00    -0.080 A  
HETATM   18  F   UNL     1     -11.184   6.545  72.270  1.00  0.00    -0.255 F  
HETATM   19  F   UNL     1     -10.764   6.626  74.394  1.00  0.00    -0.302 F  
HETATM   20  C   UNL     1      -8.230   5.618  73.942  1.00  0.00    -0.110 A  
HETATM   21  C   UNL     1      -8.945   4.734  71.795  1.00  0.00    -0.154 A  
HETATM   22  C   UNL     1     -10.670   5.816  73.301  1.00  0.00    -0.267 C  
HETATM   23  F   UNL     1     -11.543   4.796  73.514  1.00  0.00    -0.383 F  
HETATM   24  C   UNL     1      -9.260   5.347  73.026  1.00  0.00    -0.136 A  
ENDBRANCH  14  15
ENDBRANCH   8  14
BRANCH   9  25
HETATM   25  O   UNL     1      -7.394   7.159  69.651  1.00  0.00    -0.080 OA 
HETATM   26  C   UNL     1      -6.095   7.703  69.457  1.00  0.00    -0.030 C  
ENDBRANCH   9  25
BRANCH  11  27
HETATM   27  N   UNL     1      -8.893   6.312  65.242  1.00  0.00    -0.360 NA 
HETATM   28  H   UNL     1      -9.857   6.282  64.912  1.00  0.00     0.000 HD 
BRANCH  27  29
HETATM   29  C   UNL     1      -7.857   6.867  64.370  1.00  0.00    -0.112 C  
HETATM   30  C   UNL     1      -7.922   8.393  64.486  1.00  0.00    -0.146 C  
BRANCH  29  31
HETATM   31  C   UNL     1      -6.461   6.379  64.797  1.00  0.00    -0.034 C  
BRANCH  31  32
HETATM   32  C   UNL     1      -5.801   5.379  63.840  1.00  0.00    -0.021 C  
BRANCH  32  33
HETATM   33  C   UNL     1      -5.501   3.997  64.428  1.00  0.00    -0.013 C  
HETATM   34  N   UNL     1      -6.224   2.930  63.733  1.00  0.00    -0.018 NA 
HETATM   35  H1  UNL     1      -6.024   2.010  64.125  1.00  0.00     0.000 HD 
HETATM   36  H2  UNL     1      -6.040   2.952  62.731  1.00  0.00     0.000 HD 
ENDBRANCH  32  33
ENDBRANCH  31  32
ENDBRANCH  29  31
ENDBRANCH  27  29
ENDBRANCH  11  27
ENDBRANCH   2   3
TORSDOF 9
ENDMDL
MODEL      253
REMARK 921   NORMALIZED FREE ENERGY PREDICTED BY IDOCK:   -3.19 KCAL/MOL
REMARK 922        TOTAL FREE ENERGY PREDICTED BY IDOCK:   -5.83 KCAL/MOL
REMARK 923 INTER-LIGAND FREE ENERGY PREDICTED BY IDOCK:   -5.15 KCAL/MOL
REMARK 924 INTRA-LIGAND FREE ENERGY PREDICTED BY IDOCK:   -0.68 KCAL/MOL
REMARK 927      BINDING AFFINITY PREDICTED BY RF-SCORE:    0.00 PKD
ROOT
HETATM    1  C   UNL     1      -9.221  10.028  62.331  1.00  0.00    -0.296 C  
HETATM    2  O   UNL     1      -8.577   8.837  62.775  1.00  0.00    -0.199 OA 
ENDROOT
BRANCH   2   3
HETATM    3  C   UNL     1      -7.975   8.981  64.006  1.00  0.00    -0.145 A  
HETATM    4  C   UNL     1      -7.031   9.971  64.122  1.00  0.00    -0.124 A  
HETATM    5  C   UNL     1      -6.458  10.199  65.379  1.00  0.00    -0.117 A  
HETATM    6  C   UNL     1      -6.978   9.517  66.526  1.00  0.00    -0.085 A  
HETATM    7  C   UNL     1      -5.221  11.058  65.420  1.00  0.00    -0.060 C  
HETATM    8  C   UNL     1      -6.792   9.839  67.914  1.00  0.00    -0.073 A  
HETATM    9  C   UNL     1      -7.059   8.877  68.905  1.00  0.00    -0.066 A  
HETATM   10  C   UNL     1      -7.775   8.382  66.234  1.00  0.00    -0.094 A  
HETATM   11  C   UNL     1      -8.054   7.429  67.233  1.00  0.00    -0.112 A  
HETATM   12  N   UNL     1      -8.277   8.140  65.006  1.00  0.00    -0.154 NA 
HETATM   13  C   UNL     1      -7.656   7.671  68.547  1.00  0.00    -0.110 A  
BRANCH   8  14
HETATM   14  O   UNL     1      -6.400  11.077  68.386  1.00  0.00    -0.052 OA 
BRANCH  14  15
HETATM   15  C   UNL     1      -7.179  12.213  68.298  1.00  0.00    -0.095 A  
HETATM   16  C   UNL     1      -6.436  13.371  68.032  1.00  0.00    -0.131 A  
HETATM   17  C   UNL     1      -7.068  14.542  67.621  1.00  0.00    -0.202 A  
HETATM   18  F   UNL     1     -11.055  12.297  66.766  1.00  0.00    -0.269 F  
HETATM   19  F   UNL     1     -11.121  14.462  66.750  1.00  0.00    -0.297 F  
HETATM   20  C   UNL     1      -8.451  14.558  67.460  1.00  0.00    -0.201 A  
HETATM   21  C   UNL     1      -8.574  12.283  68.303  1.00  0.00    -0.172 A  
HETATM   22  C   UNL     1     -10.699  13.396  67.488  1.00  0.00    -0.254 C  
HETATM   23  F   UNL     1     -11.474  13.382  68.605  1.00  0.00    -0.264 F  
HETATM   24  C   UNL     1      -9.218  13.429  67.791  1.00  0.00    -0.211 A  
ENDBRANCH  14  15
ENDBRANCH   8  14
BRANCH   9  25
HETATM   25  O   UNL     1      -6.866   8.986  70.259  1.00  0.00    -0.040 OA 
HETATM   26  C   UNL     1      -6.842   7.788  71.024  1.00  0.00    -0.045 C  
ENDBRANCH   9  25
BRANCH  11  27
HETATM   27  N   UNL     1      -8.797   6.278  66.891  1.00  0.00    -0.113 NA 
HETATM   28  H   UNL     1      -9.363   6.287  66.043  1.00  0.00     0.000 HD 
BRANCH  27  29
HETATM   29  C   UNL     1      -8.777   5.074  67.723  1.00  0.00    -0.103 C  
HETATM   30  C   UNL     1      -7.313   4.679  67.932  1.00  0.00    -0.066 C  
BRANCH  29  31
HETATM   31  C   UNL     1      -9.437   5.341  69.089  1.00  0.00    -0.184 C  
BRANCH  31  32
HETATM   32  C   UNL     1     -10.677   6.242  69.046  1.00  0.00    -0.362 C  
BRANCH  32  33
HETATM   33  C   UNL     1     -11.629   6.116  70.239  1.00  0.00    -0.196 C  
HETATM   34  N   UNL     1     -11.320   7.080  71.298  1.00  0.00    -0.263 NA 
HETATM   35  H1  UNL     1     -11.954   6.997  72.092  1.00  0.00     0.000 HD 
HETATM   36  H2  UNL     1     -11.307   8.034  70.936  1.00  0.00     0.000 HD 
ENDBRANCH  32  33
ENDBRANCH  31  32
ENDBRANCH  29  31
ENDBRANCH  27  29
ENDBRANCH  11  27
ENDBRANCH   2   3
TORSDOF 9
ENDMDL
MODEL      254
REMARK 921   NORMALIZED FREE ENERGY PREDICTED BY IDOCK:   -3.14 KCAL/MOL
REMARK 922        TOTAL FREE ENERGY PREDICTED BY IDOCK:   -5.76 KCAL/MOL
REMARK 923 INTER-LIGAND FREE ENERGY PREDICTED BY IDOCK:   -5.54 KCAL/MOL
REMARK 924 INTRA-LIGAND FREE ENERGY PREDICTED BY IDOCK:   -0.22 KCAL/MOL
REMARK 927      BINDING AFFINITY PREDICTED BY RF-SCORE:    0.00 PKD
ROOT
HETATM    1  C   UNL     1     -11.120  11.979  64.000  1.00  0.00    -0.386 C  
HETATM    2  O   UNL     1     -11.345  10.889  64.888  1.00  0.00     0.127 OA 
ENDROOT
BRANCH   2   3
HETATM    3  C   UNL     1     -10.307  10.696  65.774  1.00  0.00    -0.219 A  
HETATM    4  C   UNL     1      -9.056  11.076  65.355  1.00  0.00    -0.213 A  
HETATM    5  C   UNL     1      -7.992  10.971  66.258  1.00  0.00    -0.148 A  
HETATM    6  C   UNL     1      -8.256  10.630  67.623  1.00  0.00    -0.107 A  
HETATM    7  C   UNL     1      -6.600  11.091  65.692  1.00  0.00     0.135 C  
HETATM    8  C   UNL     1      -7.400  10.799  68.766  1.00  0.00    -0.104 A  
HETATM    9  C   UNL     1      -7.658  10.090  69.953  1.00  0.00    -0.170 A  
HETATM   10  C   UNL     1      -9.529  10.053  67.858  1.00  0.00    -0.144 A  
HETATM   11  C   UNL     1      -9.789   9.358  69.056  1.00  0.00    -0.169 A  
HETATM   12  N   UNL     1     -10.533  10.110  66.959  1.00  0.00    -0.242 NA 
HETATM   13  C   UNL     1      -8.833   9.352  70.071  1.00  0.00    -0.231 A  
BRANCH   8  14
HETATM   14  O   UNL     1      -6.326  11.666  68.819  1.00  0.00    -0.050 OA 
BRANCH  14  15
HETATM   15  C   UNL     1      -6.443  13.014  69.090  1.00  0.00    -0.108 A  
HETATM   16  C   UNL     1      -5.314  13.548  69.725  1.00  0.00    -0.091 A  
HETATM   17  C   UNL     1      -5.129  14.926  69.808  1.00  0.00    -0.089 A  
HETATM   18  F   UNL     1      -8.470  15.736  66.669  1.00  0.00    -0.220 F  
HETATM   19  F   UNL     1      -7.713  17.445  67.766  1.00  0.00    -0.182 F  
HETATM   20  C   UNL     1      -6.070  15.782  69.241  1.00  0.00    -0.133 A  
HETATM   21  C   UNL     1      -7.464  13.874  68.679  1.00  0.00    -0.122 A  
HETATM   22  C   UNL     1      -8.196  16.180  67.929  1.00  0.00    -0.153 C  
HETATM   23  F   UNL     1      -9.397  16.315  68.551  1.00  0.00    -0.189 F  
HETATM   24  C   UNL     1      -7.242  15.267  68.664  1.00  0.00    -0.121 A  
ENDBRANCH  14  15
ENDBRANCH   8  14
BRANCH   9  25
HETATM   25  O   UNL     1      -6.910  10.071  71.103  1.00  0.00    -0.336 OA 
HETATM   26  C   UNL     1      -5.528  10.387  71.001  1.00  0.00    -0.087 C  
ENDBRANCH   9  25
BRANCH  11  27
HETATM   27  N   UNL     1     -11.047   8.741  69.228  1.00  0.00    -0.432 NA 
HETATM   28  H   UNL     1     -11.296   7.947  68.639  1.00  0.00     0.000 HD 
BRANCH  27  29
HETATM   29  C   UNL     1     -12.004   9.212  70.231  1.00  0.00     0.151 C  
HETATM   30  C   UNL     1     -11.264   9.313  71.567  1.00  0.00    -0.457 C  
BRANCH  29  31
HETATM   31  C   UNL     1     -12.563  10.595  69.847  1.00  0.00    -0.168 C  
BRANCH  31  32
HETATM   32  C   UNL     1     -12.500  11.651  70.957  1.00  0.00    -0.436 C  
BRANCH  32  33
HETATM   33  C   UNL     1     -12.558  13.108  70.488  1.00  0.00    -0.165 C  
HETATM   34  N   UNL     1     -12.354  14.052  71.590  1.00  0.00    -0.282 NA 
HETATM   35  H1  UNL     1     -12.392  15.022  71.279  1.00  0.00     0.000 HD 
HETATM   36  H2  UNL     1     -11.484  13.858  72.086  1.00  0.00     0.000 HD 
ENDBRANCH  32  33
ENDBRANCH  31  32
ENDBRANCH  29  31
ENDBRANCH  27  29
ENDBRANCH  11  27
ENDBRANCH   2   3
TORSDOF 9
ENDMDL
MODEL      255
REMARK 921   NORMALIZED FREE ENERGY PREDICTED BY IDOCK:   -3.07 KCAL/MOL
REMARK 922        TOTAL FREE ENERGY PREDICTED BY IDOCK:   -5.66 KCAL/MOL
REMARK 923 INTER-LIGAND FREE ENERGY PREDICTED BY IDOCK:   -5.08 KCAL/MOL
REMARK 924 INTRA-LIGAND FREE ENERGY PREDICTED BY IDOCK:   -0.58 KCAL/MOL
REMARK 927      BINDING AFFINITY PREDICTED BY RF-SCORE:    0.00 PKD
ROOT
HETATM    1  C   UNL     1     -11.645  16.086  64.171  1.00  0.00    -0.005 C  
HETATM    2  O   UNL     1     -12.200  15.261  65.191  1.00  0.00     0.015 OA 
ENDROOT
BRANCH   2   3
HETATM    3  C   UNL     1     -11.340  14.266  65.602  1.00  0.00    -0.317 A  
HETATM    4  C   UNL     1     -11.526  13.020  65.054  1.00  0.00    -0.345 A  
HETATM    5  C   UNL     1     -10.621  12.006  65.387  1.00  0.00    -0.319 A  
HETATM    6  C   UNL     1      -9.450  12.326  66.147  1.00  0.00    -0.221 A  
HETATM    7  C   UNL     1     -11.015  10.595  65.034  1.00  0.00     0.213 C  
HETATM    8  C   UNL     1      -8.249  11.552  66.302  1.00  0.00    -0.044 A  
HETATM    9  C   UNL     1      -7.359  11.831  67.356  1.00  0.00    -0.136 A  
HETATM   10  C   UNL     1      -9.502  13.569  66.825  1.00  0.00    -0.269 A  
HETATM   11  C   UNL     1      -8.598  13.852  67.869  1.00  0.00    -0.180 A  
HETATM   12  N   UNL     1     -10.413  14.520  66.537  1.00  0.00    -0.281 NA 
HETATM   13  C   UNL     1      -7.564  12.959  68.147  1.00  0.00    -0.135 A  
BRANCH   8  14
HETATM   14  O   UNL     1      -7.851  10.543  65.447  1.00  0.00    -0.152 OA 
BRANCH  14  15
HETATM   15  C   UNL     1      -8.282   9.236  65.551  1.00  0.00    -0.124 A  
HETATM   16  C   UNL     1      -7.729   8.394  64.576  1.00  0.00    -0.121 A  
HETATM   17  C   UNL     1      -7.813   7.010  64.702  1.00  0.00    -0.123 A  
HETATM   18  F   UNL     1      -9.147   7.320  69.151  1.00  0.00    -0.137 F  
HETATM   19  F   UNL     1      -9.313   5.377  68.205  1.00  0.00    -0.108 F  
HETATM   20  C   UNL     1      -8.441   6.456  65.814  1.00  0.00    -0.148 A  
HETATM   21  C   UNL     1      -9.059   8.681  66.570  1.00  0.00    -0.206 A  
HETATM   22  C   UNL     1      -9.625   6.695  68.038  1.00  0.00    -0.123 C  
HETATM   23  F   UNL     1     -10.980   6.773  68.113  1.00  0.00    -0.250 F  
HETATM   24  C   UNL     1      -9.063   7.283  66.763  1.00  0.00    -0.172 A  
ENDBRANCH  14  15
ENDBRANCH   8  14
BRANCH   9  25
HETATM   25  O   UNL     1      -6.218  11.151  67.697  1.00  0.00    -0.050 OA 
HETATM   26  C   UNL     1      -5.317  11.777  68.601  1.00  0.00    -0.049 C  
ENDBRANCH   9  25
BRANCH  11  27
HETATM   27  N   UNL     1      -8.719  15.074  68.565  1.00  0.00    -0.168 NA 
HETATM   28  H   UNL     1      -9.389  15.145  69.332  1.00  0.00     0.000 HD 
BRANCH  27  29
HETATM   29  C   UNL     1      -7.911  16.243  68.215  1.00  0.00    -0.164 C  
HETATM   30  C   UNL     1      -8.865  17.418  67.992  1.00  0.00    -0.252 C  
BRANCH  29  31
HETATM   31  C   UNL     1      -6.928  16.588  69.349  1.00  0.00    -0.202 C  
BRANCH  31  32
HETATM   32  C   UNL     1      -5.943  17.720  69.033  1.00  0.00    -0.201 C  
BRANCH  32  33
HETATM   33  C   UNL     1      -5.452  17.785  67.583  1.00  0.00    -0.135 C  
HETATM   34  N   UNL     1      -6.105  18.856  66.826  1.00  0.00    -0.169 NA 
HETATM   35  H1  UNL     1      -5.778  18.900  65.861  1.00  0.00     0.000 HD 
HETATM   36  H2  UNL     1      -5.997  19.756  67.293  1.00  0.00     0.000 HD 
ENDBRANCH  32  33
ENDBRANCH  31  32
ENDBRANCH  29  31
ENDBRANCH  27  29
ENDBRANCH  11  27
ENDBRANCH   2   3
TORSDOF 9
ENDMDL
MODEL      256
REMARK 921   NORMALIZED FREE ENERGY PREDICTED BY IDOCK:   -3.02 KCAL/MOL
REMARK 922        TOTAL FREE ENERGY PREDICTED BY IDOCK:   -5.57 KCAL/MOL
REMARK 923 INTER-LIGAND FREE ENERGY PREDICTED BY IDOCK:   -5.24 KCAL/MOL
REMARK 924 INTRA-LIGAND FREE ENERGY PREDICTED BY IDOCK:   -0.33 KCAL/MOL
REMARK 927      BINDING AFFINITY PREDICTED BY RF-SCORE:    0.00 PKD
ROOT
HETATM    1  C   UNL     1     -10.745  12.439  63.216  1.00  0.00    -0.213 C  
HETATM    2  O   UNL     1     -10.023  13.279  64.112  1.00  0.00    -0.294 OA 
ENDROOT
BRANCH   2   3
HETATM    3  C   UNL     1     -10.532  13.258  65.392  1.00  0.00    -0.297 A  
HETATM    4  C   UNL     1     -11.019  12.057  65.846  1.00  0.00    -0.342 A  
HETATM    5  C   UNL     1     -11.468  11.979  67.169  1.00  0.00    -0.401 A  
HETATM    6  C   UNL     1     -11.262  13.089  68.051  1.00  0.00    -0.310 A  
HETATM    7  C   UNL     1     -12.275  10.764  67.547  1.00  0.00     1.783 C  
HETATM    8  C   UNL     1     -11.319  13.109  69.487  1.00  0.00    -0.160 A  
HETATM    9  C   UNL     1     -11.454  14.330  70.173  1.00  0.00    -0.191 A  
HETATM   10  C   UNL     1     -10.966  14.315  67.406  1.00  0.00    -0.295 A  
HETATM   11  C   UNL     1     -11.086  15.535  68.101  1.00  0.00    -0.325 A  
HETATM   12  N   UNL     1     -10.588  14.387  66.114  1.00  0.00    -0.291 NA 
HETATM   13  C   UNL     1     -11.369  15.527  69.466  1.00  0.00    -0.317 A  
BRANCH   8  14
HETATM   14  O   UNL     1     -11.204  11.992  70.292  1.00  0.00     0.107 OA 
BRANCH  14  15
HETATM   15  C   UNL     1     -10.401  10.910  69.991  1.00  0.00     0.327 A  
HETATM   16  C   UNL     1     -10.944   9.687  70.408  1.00  0.00    -0.356 A  
HETATM   17  C   UNL     1     -10.428   8.482  69.937  1.00  0.00    -0.219 A  
HETATM   18  F   UNL     1      -8.010  10.627  66.587  1.00  0.00    -0.115 F  
HETATM   19  F   UNL     1      -7.568   8.535  66.936  1.00  0.00    -0.086 F  
HETATM   20  C   UNL     1      -9.372   8.493  69.031  1.00  0.00    -0.146 A  
HETATM   21  C   UNL     1      -9.235  10.911  69.221  1.00  0.00    -0.006 A  
HETATM   22  C   UNL     1      -7.716   9.732  67.572  1.00  0.00    -0.095 C  
HETATM   23  F   UNL     1      -6.481  10.068  68.032  1.00  0.00    -0.056 F  
HETATM   24  C   UNL     1      -8.769   9.705  68.657  1.00  0.00    -0.124 A  
ENDBRANCH  14  15
ENDBRANCH   8  14
BRANCH   9  25
HETATM   25  O   UNL     1     -11.600  14.527  71.522  1.00  0.00    -0.236 OA 
HETATM   26  C   UNL     1     -12.916  14.495  72.059  1.00  0.00    -0.341 C  
ENDBRANCH   9  25
BRANCH  11  27
HETATM   27  N   UNL     1     -10.845  16.742  67.409  1.00  0.00    -0.238 NA 
HETATM   28  H   UNL     1     -11.586  17.141  66.833  1.00  0.00     0.000 HD 
BRANCH  27  29
HETATM   29  C   UNL     1      -9.559  17.435  67.496  1.00  0.00    -0.257 C  
HETATM   30  C   UNL     1      -8.862  17.294  66.140  1.00  0.00    -0.195 C  
BRANCH  29  31
HETATM   31  C   UNL     1      -9.761  18.928  67.816  1.00  0.00    -0.371 C  
BRANCH  31  32
HETATM   32  C   UNL     1      -8.507  19.664  68.302  1.00  0.00    -0.355 C  
BRANCH  32  33
HETATM   33  C   UNL     1      -7.917  20.684  67.323  1.00  0.00    -0.273 C  
HETATM   34  N   UNL     1      -8.156  20.314  65.927  1.00  0.00    -0.550 NA 
HETATM   35  H1  UNL     1      -7.764  20.993  65.275  1.00  0.00     0.000 HD 
HETATM   36  H2  UNL     1      -9.149  20.164  65.749  1.00  0.00     0.000 HD 
ENDBRANCH  32  33
ENDBRANCH  31  32
ENDBRANCH  29  31
ENDBRANCH  27  29
ENDBRANCH  11  27
ENDBRANCH   2   3
TORSDOF 9
ENDMDL
MODEL      257
REMARK 921   NORMALIZED FREE ENERGY PREDICTED BY IDOCK:   -2.89 KCAL/MOL
REMARK 922        TOTAL FREE ENERGY PREDICTED BY IDOCK:   -5.39 KCAL/MOL
REMARK 923 INTER-LIGAND FREE ENERGY PREDICTED BY IDOCK:   -6.06 KCAL/MOL
REMARK 924 INTRA-LIGAND FREE ENERGY PREDICTED BY IDOCK:    0.67 KCAL/MOL
REMARK 927      BINDING AFFINITY PREDICTED BY RF-SCORE:    0.00 PKD
ROOT
HETATM    1  C   UNL     1      -5.829  10.201  64.450  1.00  0.00    -0.131 C  
HETATM    2  O   UNL     1      -7.235   9.972  64.422  1.00  0.00    -0.131 OA 
ENDROOT
BRANCH   2   3
HETATM    3  C   UNL     1      -7.872  10.419  65.560  1.00  0.00    -0.152 A  
HETATM    4  C   UNL     1      -8.201  11.751  65.604  1.00  0.00     0.570 A  
HETATM    5  C   UNL     1      -8.921  12.222  66.708  1.00  0.00    -0.209 A  
HETATM    6  C   UNL     1      -9.430  11.289  67.668  1.00  0.00    -0.173 A  
HETATM    7  C   UNL     1      -8.998  13.716  66.888  1.00  0.00    -0.229 C  
HETATM    8  C   UNL     1     -10.454  11.496  68.656  1.00  0.00    -0.202 A  
HETATM    9  C   UNL     1     -10.577  10.611  69.743  1.00  0.00    -0.184 A  
HETATM   10  C   UNL     1      -8.834  10.004  67.625  1.00  0.00    -0.121 A  
HETATM   11  C   UNL     1      -8.973   9.115  68.709  1.00  0.00    -0.136 A  
HETATM   12  N   UNL     1      -8.094   9.578  66.581  1.00  0.00    -0.108 NA 
HETATM   13  C   UNL     1      -9.811   9.449  69.772  1.00  0.00    -0.218 A  
BRANCH   8  14
HETATM   14  O   UNL     1     -11.398  12.503  68.607  1.00  0.00    -0.244 OA 
BRANCH  14  15
HETATM   15  C   UNL     1     -11.878  13.047  67.432  1.00  0.00    -0.357 A  
HETATM   16  C   UNL     1     -11.896  14.448  67.440  1.00  0.00    -0.430 A  
HETATM   17  C   UNL     1     -12.065  15.164  66.258  1.00  0.00     0.287 A  
HETATM   18  F   UNL     1     -11.294  11.383  63.655  1.00  0.00    -0.461 F  
HETATM   19  F   UNL     1     -12.061  13.137  62.641  1.00  0.00    -0.336 F  
HETATM   20  C   UNL     1     -12.203  14.480  65.053  1.00  0.00    -0.376 A  
HETATM   21  C   UNL     1     -12.190  12.368  66.252  1.00  0.00    -0.062 A  
HETATM   22  C   UNL     1     -12.271  12.330  63.720  1.00  0.00    -0.546 C  
HETATM   23  F   UNL     1     -13.443  11.683  63.482  1.00  0.00    -0.408 F  
HETATM   24  C   UNL     1     -12.260  13.077  65.035  1.00  0.00    -0.501 A  
ENDBRANCH  14  15
ENDBRANCH   8  14
BRANCH   9  25
HETATM   25  O   UNL     1     -11.438  10.699  70.807  1.00  0.00    -0.327 OA 
HETATM   26  C   UNL     1     -12.285   9.589  71.070  1.00  0.00    -0.304 C  
ENDBRANCH   9  25
BRANCH  11  27
HETATM   27  N   UNL     1      -8.313   7.868  68.659  1.00  0.00    -0.127 NA 
HETATM   28  H   UNL     1      -8.851   7.029  68.444  1.00  0.00     0.000 HD 
BRANCH  27  29
HETATM   29  C   UNL     1      -6.875   7.748  68.907  1.00  0.00    -0.058 C  
HETATM   30  C   UNL     1      -6.219   7.260  67.612  1.00  0.00    -0.046 C  
BRANCH  29  31
HETATM   31  C   UNL     1      -6.273   9.109  69.305  1.00  0.00    -0.041 C  
BRANCH  31  32
HETATM   32  C   UNL     1      -5.562   9.861  68.175  1.00  0.00    -0.039 C  
BRANCH  32  33
HETATM   33  C   UNL     1      -5.324  11.354  68.419  1.00  0.00    -0.042 C  
HETATM   34  N   UNL     1      -5.288  12.120  67.171  1.00  0.00    -0.216 NA 
HETATM   35  H1  UNL     1      -5.130  13.114  67.333  1.00  0.00     0.000 HD 
HETATM   36  H2  UNL     1      -6.132  11.966  66.620  1.00  0.00     0.000 HD 
ENDBRANCH  32  33
ENDBRANCH  31  32
ENDBRANCH  29  31
ENDBRANCH  27  29
ENDBRANCH  11  27
ENDBRANCH   2   3
TORSDOF 9
ENDMDL
MODEL      258
REMARK 921   NORMALIZED FREE ENERGY PREDICTED BY IDOCK:   -2.89 KCAL/MOL
REMARK 922        TOTAL FREE ENERGY PREDICTED BY IDOCK:   -5.38 KCAL/MOL
REMARK 923 INTER-LIGAND FREE ENERGY PREDICTED BY IDOCK:   -5.17 KCAL/MOL
REMARK 924 INTRA-LIGAND FREE ENERGY PREDICTED BY IDOCK:   -0.20 KCAL/MOL
REMARK 927      BINDING AFFINITY PREDICTED BY RF-SCORE:    0.00 PKD
ROOT
HETATM    1  C   UNL     1      -9.435   3.495  70.426  1.00  0.00    -0.183 C  
HETATM    2  O   UNL     1     -10.029   3.647  69.140  1.00  0.00     0.037 OA 
ENDROOT
BRANCH   2   3
HETATM    3  C   UNL     1      -9.377   4.574  68.356  1.00  0.00    -0.142 A  
HETATM    4  C   UNL     1      -9.363   4.341  67.003  1.00  0.00    -0.184 A  
HETATM    5  C   UNL     1      -8.780   5.302  66.169  1.00  0.00    -0.129 A  
HETATM    6  C   UNL     1      -8.367   6.558  66.720  1.00  0.00    -0.111 A  
HETATM    7  C   UNL     1      -8.497   4.893  64.747  1.00  0.00    -0.145 C  
HETATM    8  C   UNL     1      -8.079   7.784  66.027  1.00  0.00    -0.117 A  
HETATM    9  C   UNL     1      -7.345   8.801  66.666  1.00  0.00    -0.082 A  
HETATM   10  C   UNL     1      -8.231   6.573  68.131  1.00  0.00    -0.117 A  
HETATM   11  C   UNL     1      -7.509   7.603  68.768  1.00  0.00    -0.100 A  
HETATM   12  N   UNL     1      -8.747   5.612  68.924  1.00  0.00    -0.107 NA 
HETATM   13  C   UNL     1      -7.041   8.682  68.019  1.00  0.00    -0.082 A  
BRANCH   8  14
HETATM   14  O   UNL     1      -8.513   8.084  64.751  1.00  0.00    -0.123 OA 
BRANCH  14  15
HETATM   15  C   UNL     1      -8.737   9.369  64.300  1.00  0.00    -0.197 A  
HETATM   16  C   UNL     1      -7.900   9.734  63.238  1.00  0.00    -0.139 A  
HETATM   17  C   UNL     1      -8.175  10.864  62.470  1.00  0.00    -0.216 A  
HETATM   18  F   UNL     1     -12.471  11.223  64.227  1.00  0.00    -0.002 F  
HETATM   19  F   UNL     1     -11.741  12.894  63.056  1.00  0.00    -0.563 F  
HETATM   20  C   UNL     1      -9.302  11.630  62.754  1.00  0.00    -0.065 A  
HETATM   21  C   UNL     1      -9.763  10.235  64.688  1.00  0.00    -0.398 A  
HETATM   22  C   UNL     1     -11.408  12.065  64.087  1.00  0.00    -0.382 C  
HETATM   23  F   UNL     1     -11.391  12.841  65.203  1.00  0.00    -0.315 F  
HETATM   24  C   UNL     1     -10.112  11.321  63.858  1.00  0.00    -0.392 A  
ENDBRANCH  14  15
ENDBRANCH   8  14
BRANCH   9  25
HETATM   25  O   UNL     1      -6.917   9.991  66.135  1.00  0.00    -0.096 OA 
HETATM   26  C   UNL     1      -5.689  10.527  66.610  1.00  0.00    -0.060 C  
ENDBRANCH   9  25
BRANCH  11  27
HETATM   27  N   UNL     1      -7.339   7.551  70.168  1.00  0.00    -0.076 NA 
HETATM   28  H   UNL     1      -7.086   6.665  70.606  1.00  0.00     0.000 HD 
BRANCH  27  29
HETATM   29  C   UNL     1      -7.517   8.736  71.009  1.00  0.00    -0.096 C  
HETATM   30  C   UNL     1      -8.939   9.256  70.784  1.00  0.00    -0.292 C  
BRANCH  29  31
HETATM   31  C   UNL     1      -7.327   8.386  72.497  1.00  0.00    -0.119 C  
BRANCH  31  32
HETATM   32  C   UNL     1      -7.630   6.930  72.865  1.00  0.00    -0.085 C  
BRANCH  32  33
HETATM   33  C   UNL     1      -6.434   5.973  72.823  1.00  0.00    -0.063 C  
HETATM   34  N   UNL     1      -6.478   5.083  71.660  1.00  0.00    -0.030 NA 
HETATM   35  H1  UNL     1      -5.682   4.446  71.632  1.00  0.00     0.000 HD 
HETATM   36  H2  UNL     1      -6.557   5.613  70.793  1.00  0.00     0.000 HD 
ENDBRANCH  32  33
ENDBRANCH  31  32
ENDBRANCH  29  31
ENDBRANCH  27  29
ENDBRANCH  11  27
ENDBRANCH   2   3
TORSDOF 9
ENDMDL
MODEL      259
REMARK 921   NORMALIZED FREE ENERGY PREDICTED BY IDOCK:   -2.81 KCAL/MOL
REMARK 922        TOTAL FREE ENERGY PREDICTED BY IDOCK:   -5.25 KCAL/MOL
REMARK 923 INTER-LIGAND FREE ENERGY PREDICTED BY IDOCK:   -4.10 KCAL/MOL
REMARK 924 INTRA-LIGAND FREE ENERGY PREDICTED BY IDOCK:   -1.15 KCAL/MOL
REMARK 927      BINDING AFFINITY PREDICTED BY RF-SCORE:    0.00 PKD
ROOT
HETATM    1  C   UNL     1      -7.559   8.034  63.850  1.00  0.00    -0.128 C  
HETATM    2  O   UNL     1      -6.971   8.804  64.895  1.00  0.00    -0.072 OA 
ENDROOT
BRANCH   2   3
HETATM    3  C   UNL     1      -7.663   8.710  66.083  1.00  0.00    -0.097 A  
HETATM    4  C   UNL     1      -8.811   7.956  66.074  1.00  0.00    -0.191 A  
HETATM    5  C   UNL     1      -9.495   7.772  67.281  1.00  0.00    -0.187 A  
HETATM    6  C   UNL     1      -8.905   8.229  68.503  1.00  0.00    -0.137 A  
HETATM    7  C   UNL     1     -10.893   7.217  67.198  1.00  0.00    -0.403 C  
HETATM    8  C   UNL     1      -9.241   7.856  69.851  1.00  0.00    -0.153 A  
HETATM    9  C   UNL     1      -8.824   8.655  70.931  1.00  0.00    -0.183 A  
HETATM   10  C   UNL     1      -7.858   9.171  68.344  1.00  0.00    -0.102 A  
HETATM   11  C   UNL     1      -7.432   9.958  69.432  1.00  0.00    -0.108 A  
HETATM   12  N   UNL     1      -7.241   9.383  67.163  1.00  0.00    -0.086 NA 
HETATM   13  C   UNL     1      -7.952   9.717  70.703  1.00  0.00    -0.077 A  
BRANCH   8  14
HETATM   14  O   UNL     1      -9.928   6.709  70.197  1.00  0.00    -0.172 OA 
BRANCH  14  15
HETATM   15  C   UNL     1      -9.365   5.449  70.197  1.00  0.00    -0.149 A  
HETATM   16  C   UNL     1     -10.145   4.496  69.529  1.00  0.00    -0.139 A  
HETATM   17  C   UNL     1      -9.610   3.260  69.174  1.00  0.00    -0.100 A  
HETATM   18  F   UNL     1      -5.267   4.700  70.031  1.00  0.00     0.000 F  
HETATM   19  F   UNL     1      -5.556   2.577  69.706  1.00  0.00    -0.014 F  
HETATM   20  C   UNL     1      -8.282   2.973  69.477  1.00  0.00    -0.072 A  
HETATM   21  C   UNL     1      -8.093   5.091  70.650  1.00  0.00    -0.094 A  
HETATM   22  C   UNL     1      -6.030   3.639  70.419  1.00  0.00    -0.018 C  
HETATM   23  F   UNL     1      -5.706   3.395  71.716  1.00  0.00    -0.007 F  
HETATM   24  C   UNL     1      -7.507   3.886  70.209  1.00  0.00    -0.045 A  
ENDBRANCH  14  15
ENDBRANCH   8  14
BRANCH   9  25
HETATM   25  O   UNL     1      -9.118   8.493  72.261  1.00  0.00    -0.226 OA 
HETATM   26  C   UNL     1      -8.048   8.577  73.192  1.00  0.00    -0.012 C  
ENDBRANCH   9  25
BRANCH  11  27
HETATM   27  N   UNL     1      -6.431  10.931  69.222  1.00  0.00    -0.062 NA 
HETATM   28  H   UNL     1      -5.475  10.732  69.517  1.00  0.00     0.000 HD 
BRANCH  27  29
HETATM   29  C   UNL     1      -6.729  12.218  68.591  1.00  0.00    -0.083 C  
HETATM   30  C   UNL     1      -6.074  12.219  67.207  1.00  0.00    -0.153 C  
BRANCH  29  31
HETATM   31  C   UNL     1      -8.249  12.415  68.440  1.00  0.00    -0.144 C  
BRANCH  31  32
HETATM   32  C   UNL     1      -8.689  13.106  67.145  1.00  0.00    -0.214 C  
BRANCH  32  33
HETATM   33  C   UNL     1     -10.107  13.684  67.151  1.00  0.00    -0.245 C  
HETATM   34  N   UNL     1     -10.185  14.952  67.880  1.00  0.00    -0.227 NA 
HETATM   35  H1  UNL     1     -11.129  15.338  67.884  1.00  0.00     0.000 HD 
HETATM   36  H2  UNL     1      -9.513  15.628  67.517  1.00  0.00     0.000 HD 
ENDBRANCH  32  33
ENDBRANCH  31  32
ENDBRANCH  29  31
ENDBRANCH  27  29
ENDBRANCH  11  27
ENDBRANCH   2   3
TORSDOF 9
ENDMDL
MODEL      260
REMARK 921   NORMALIZED FREE ENERGY PREDICTED BY IDOCK:   -2.77 KCAL/MOL
REMARK 922        TOTAL FREE ENERGY PREDICTED BY IDOCK:   -5.20 KCAL/MOL
REMARK 923 INTER-LIGAND FREE ENERGY PREDICTED BY IDOCK:   -4.94 KCAL/MOL
REMARK 924 INTRA-LIGAND FREE ENERGY PREDICTED BY IDOCK:   -0.25 KCAL/MOL
REMARK 927      BINDING AFFINITY PREDICTED BY RF-SCORE:    0.00 PKD
ROOT
HETATM    1  C   UNL     1      -9.723   4.434  63.561  1.00  0.00     0.017 C  
HETATM    2  O   UNL     1      -8.681   4.716  64.491  1.00  0.00    -0.141 OA 
ENDROOT
BRANCH   2   3
HETATM    3  C   UNL     1      -9.098   5.509  65.538  1.00  0.00    -0.091 A  
HETATM    4  C   UNL     1      -9.411   4.870  66.713  1.00  0.00    -0.141 A  
HETATM    5  C   UNL     1      -9.760   5.650  67.821  1.00  0.00    -0.140 A  
HETATM    6  C   UNL     1      -9.627   7.075  67.751  1.00  0.00    -0.138 A  
HETATM    7  C   UNL     1     -10.393   4.937  68.987  1.00  0.00    -0.087 C  
HETATM    8  C   UNL     1      -9.591   8.021  68.833  1.00  0.00    -0.152 A  
HETATM    9  C   UNL     1      -9.821   9.386  68.586  1.00  0.00    -0.163 A  
HETATM   10  C   UNL     1      -9.518   7.600  66.439  1.00  0.00    -0.161 A  
HETATM   11  C   UNL     1      -9.734   8.971  66.199  1.00  0.00    -0.283 A  
HETATM   12  N   UNL     1      -9.237   6.832  65.367  1.00  0.00     0.292 NA 
HETATM   13  C   UNL     1      -9.923   9.839  67.273  1.00  0.00    -0.242 A  
BRANCH   8  14
HETATM   14  O   UNL     1      -9.294   7.701  70.144  1.00  0.00    -0.157 OA 
BRANCH  14  15
HETATM   15  C   UNL     1     -10.231   7.261  71.057  1.00  0.00    -0.192 A  
HETATM   16  C   UNL     1     -11.500   7.820  70.857  1.00  0.00    -0.294 A  
HETATM   17  C   UNL     1     -12.622   7.280  71.482  1.00  0.00    -0.415 A  
HETATM   18  F   UNL     1     -10.308   3.426  72.690  1.00  0.00    -0.210 F  
HETATM   19  F   UNL     1     -12.258   3.726  73.585  1.00  0.00    -0.116 F  
HETATM   20  C   UNL     1     -12.481   6.165  72.303  1.00  0.00    -0.020 A  
HETATM   21  C   UNL     1     -10.071   6.255  72.013  1.00  0.00    -0.205 A  
HETATM   22  C   UNL     1     -11.066   4.346  73.349  1.00  0.00    -0.305 C  
HETATM   23  F   UNL     1     -10.483   4.515  74.565  1.00  0.00    -0.236 F  
HETATM   24  C   UNL     1     -11.209   5.635  72.572  1.00  0.00    -0.346 A  
ENDBRANCH  14  15
ENDBRANCH   8  14
BRANCH   9  25
HETATM   25  O   UNL     1      -9.900  10.406  69.500  1.00  0.00    -0.222 OA 
HETATM   26  C   UNL     1     -10.918  11.382  69.320  1.00  0.00    -0.229 C  
ENDBRANCH   9  25
BRANCH  11  27
HETATM   27  N   UNL     1      -9.681   9.448  64.871  1.00  0.00    -0.410 NA 
HETATM   28  H   UNL     1     -10.114   8.899  64.128  1.00  0.00     0.000 HD 
BRANCH  27  29
HETATM   29  C   UNL     1      -9.020  10.710  64.532  1.00  0.00    -0.196 C  
HETATM   30  C   UNL     1      -9.537  11.778  65.499  1.00  0.00    -0.222 C  
BRANCH  29  31
HETATM   31  C   UNL     1      -7.492  10.583  64.675  1.00  0.00     0.049 C  
BRANCH  31  32
HETATM   32  C   UNL     1      -6.880  11.380  65.833  1.00  0.00     0.344 C  
BRANCH  32  33
HETATM   33  C   UNL     1      -6.331  10.546  66.994  1.00  0.00    -0.074 C  
HETATM   34  N   UNL     1      -6.710  11.095  68.298  1.00  0.00    -0.058 NA 
HETATM   35  H1  UNL     1      -6.345  10.540  69.071  1.00  0.00     0.000 HD 
HETATM   36  H2  UNL     1      -7.721  11.209  68.370  1.00  0.00     0.000 HD 
ENDBRANCH  32  33
ENDBRANCH  31  32
ENDBRANCH  29  31
ENDBRANCH  27  29
ENDBRANCH  11  27
ENDBRANCH   2   3
TORSDOF 9
ENDMDL
MODEL      261
REMARK 921   NORMALIZED FREE ENERGY PREDICTED BY IDOCK:   -2.65 KCAL/MOL
REMARK 922        TOTAL FREE ENERGY PREDICTED BY IDOCK:   -5.02 KCAL/MOL
REMARK 923 INTER-LIGAND FREE ENERGY PREDICTED BY IDOCK:   -3.40 KCAL/MOL
REMARK 924 INTRA-LIGAND FREE ENERGY PREDICTED BY IDOCK:   -1.62 KCAL/MOL
REMARK 927      BINDING AFFINITY PREDICTED BY RF-SCORE:    0.00 PKD
ROOT
HETATM    1  C   UNL     1     -12.063  11.231  66.566  1.00  0.00     1.466 C  
HETATM    2  O   UNL     1     -11.252  11.667  65.478  1.00  0.00    -0.285 OA 
ENDROOT
BRANCH   2   3
HETATM    3  C   UNL     1     -10.182  12.434  65.883  1.00  0.00    -0.251 A  
HETATM    4  C   UNL     1     -10.247  13.780  65.618  1.00  0.00    -0.326 A  
HETATM    5  C   UNL     1      -9.215  14.601  66.087  1.00  0.00    -0.210 A  
HETATM    6  C   UNL     1      -8.218  14.054  66.956  1.00  0.00    -0.078 A  
HETATM    7  C   UNL     1      -9.145  15.998  65.527  1.00  0.00     0.260 C  
HETATM    8  C   UNL     1      -7.298  14.754  67.812  1.00  0.00    -0.170 A  
HETATM    9  C   UNL     1      -6.159  14.099  68.313  1.00  0.00    -0.118 A  
HETATM   10  C   UNL     1      -8.142  12.638  66.959  1.00  0.00    -0.085 A  
HETATM   11  C   UNL     1      -7.005  11.985  67.478  1.00  0.00    -0.130 A  
HETATM   12  N   UNL     1      -9.115  11.854  66.454  1.00  0.00    -0.214 NA 
HETATM   13  C   UNL     1      -6.011  12.729  68.110  1.00  0.00    -0.086 A  
BRANCH   8  14
HETATM   14  O   UNL     1      -7.464  16.057  68.239  1.00  0.00    -0.130 OA 
BRANCH  14  15
HETATM   15  C   UNL     1      -8.574  16.502  68.929  1.00  0.00    -0.241 A  
HETATM   16  C   UNL     1      -8.986  17.784  68.542  1.00  0.00    -0.288 A  
HETATM   17  C   UNL     1     -10.240  18.269  68.908  1.00  0.00    -0.299 A  
HETATM   18  F   UNL     1     -11.680  14.044  70.229  1.00  0.00    -0.314 F  
HETATM   19  F   UNL     1     -12.933  15.726  70.771  1.00  0.00    -0.488 F  
HETATM   20  C   UNL     1     -11.097  17.465  69.655  1.00  0.00     0.817 A  
HETATM   21  C   UNL     1      -9.364  15.771  69.821  1.00  0.00    -0.063 A  
HETATM   22  C   UNL     1     -11.646  15.278  70.804  1.00  0.00    -0.333 C  
HETATM   23  F   UNL     1     -11.353  15.076  72.116  1.00  0.00    -0.457 F  
HETATM   24  C   UNL     1     -10.673  16.207  70.113  1.00  0.00    -0.289 A  
ENDBRANCH  14  15
ENDBRANCH   8  14
BRANCH   9  25
HETATM   25  O   UNL     1      -5.147  14.630  69.070  1.00  0.00    -0.085 OA 
HETATM   26  C   UNL     1      -5.360  14.754  70.470  1.00  0.00    -0.128 C  
ENDBRANCH   9  25
BRANCH  11  27
HETATM   27  N   UNL     1      -6.936  10.576  67.406  1.00  0.00    -0.083 NA 
HETATM   28  H   UNL     1      -7.090  10.028  68.252  1.00  0.00     0.000 HD 
BRANCH  27  29
HETATM   29  C   UNL     1      -6.648   9.883  66.150  1.00  0.00    -0.084 C  
HETATM   30  C   UNL     1      -5.129   9.874  65.962  1.00  0.00    -0.035 C  
BRANCH  29  31
HETATM   31  C   UNL     1      -7.169   8.434  66.191  1.00  0.00    -0.077 C  
BRANCH  31  32
HETATM   32  C   UNL     1      -7.716   7.980  67.549  1.00  0.00    -0.106 C  
BRANCH  32  33
HETATM   33  C   UNL     1      -9.200   7.601  67.572  1.00  0.00    -0.132 C  
HETATM   34  N   UNL     1      -9.950   8.236  66.487  1.00  0.00    -0.362 NA 
HETATM   35  H1  UNL     1     -10.938   7.983  66.502  1.00  0.00     0.000 HD 
HETATM   36  H2  UNL     1      -9.531   8.031  65.580  1.00  0.00     0.000 HD 
ENDBRANCH  32  33
ENDBRANCH  31  32
ENDBRANCH  29  31
ENDBRANCH  27  29
ENDBRANCH  11  27
ENDBRANCH   2   3
TORSDOF 9
ENDMDL
MODEL      262
REMARK 921   NORMALIZED FREE ENERGY PREDICTED BY IDOCK:   -2.43 KCAL/MOL
REMARK 922        TOTAL FREE ENERGY PREDICTED BY IDOCK:   -4.68 KCAL/MOL
REMARK 923 INTER-LIGAND FREE ENERGY PREDICTED BY IDOCK:   -4.27 KCAL/MOL
REMARK 924 INTRA-LIGAND FREE ENERGY PREDICTED BY IDOCK:   -0.41 KCAL/MOL
REMARK 927      BINDING AFFINITY PREDICTED BY RF-SCORE:    0.00 PKD
ROOT
HETATM    1  C   UNL     1      -9.729  12.230  63.512  1.00  0.00     0.031 C  
HETATM    2  O   UNL     1      -9.178  13.405  64.099  1.00  0.00     1.105 OA 
ENDROOT
BRANCH   2   3
HETATM    3  C   UNL     1      -9.943  13.896  65.134  1.00  0.00    -0.218 A  
HETATM    4  C   UNL     1     -11.180  13.327  65.315  1.00  0.00    -0.315 A  
HETATM    5  C   UNL     1     -11.951  13.744  66.406  1.00  0.00    -0.473 A  
HETATM    6  C   UNL     1     -11.375  14.618  67.384  1.00  0.00    -0.368 A  
HETATM    7  C   UNL     1     -13.405  13.348  66.408  1.00  0.00     2.211 C  
HETATM    8  C   UNL     1     -11.836  14.890  68.718  1.00  0.00    -0.296 A  
HETATM    9  C   UNL     1     -11.377  16.028  69.406  1.00  0.00    -0.355 A  
HETATM   10  C   UNL     1     -10.202  15.293  66.962  1.00  0.00    -0.260 A  
HETATM   11  C   UNL     1      -9.737  16.423  67.664  1.00  0.00    -0.238 A  
HETATM   12  N   UNL     1      -9.496  14.920  65.876  1.00  0.00    -0.296 NA 
HETATM   13  C   UNL     1     -10.357  16.799  68.855  1.00  0.00    -0.317 A  
BRANCH   8  14
HETATM   14  O   UNL     1     -12.691  14.075  69.433  1.00  0.00    -0.056 OA 
BRANCH  14  15
HETATM   15  C   UNL     1     -12.302  12.895  70.034  1.00  0.00    -0.129 A  
HETATM   16  C   UNL     1     -12.978  12.639  71.234  1.00  0.00    -0.306 A  
HETATM   17  C   UNL     1     -12.934  11.375  71.819  1.00  0.00    -0.519 A  
HETATM   18  F   UNL     1     -11.168   9.460  67.962  1.00  0.00    -0.219 F  
HETATM   19  F   UNL     1     -11.167   8.244  69.756  1.00  0.00    -0.225 F  
HETATM   20  C   UNL     1     -12.223  10.353  71.197  1.00  0.00    -0.498 A  
HETATM   21  C   UNL     1     -11.452  11.919  69.508  1.00  0.00    -0.357 A  
HETATM   22  C   UNL     1     -10.823   9.475  69.280  1.00  0.00    -0.191 C  
HETATM   23  F   UNL     1      -9.465   9.526  69.315  1.00  0.00    -0.147 F  
HETATM   24  C   UNL     1     -11.482  10.610  70.032  1.00  0.00    -0.404 A  
ENDBRANCH  14  15
ENDBRANCH   8  14
BRANCH   9  25
HETATM   25  O   UNL     1     -11.765  16.479  70.642  1.00  0.00    -0.139 OA 
HETATM   26  C   UNL     1     -11.356  15.733  71.780  1.00  0.00    -0.308 C  
ENDBRANCH   9  25
BRANCH  11  27
HETATM   27  N   UNL     1      -8.602  17.109  67.179  1.00  0.00    -0.199 NA 
HETATM   28  H   UNL     1      -8.556  18.123  67.273  1.00  0.00     0.000 HD 
BRANCH  27  29
HETATM   29  C   UNL     1      -7.489  16.401  66.544  1.00  0.00    -0.188 C  
HETATM   30  C   UNL     1      -6.644  17.438  65.798  1.00  0.00     0.045 C  
BRANCH  29  31
HETATM   31  C   UNL     1      -6.618  15.691  67.598  1.00  0.00    -0.198 C  
BRANCH  31  32
HETATM   32  C   UNL     1      -6.946  16.043  69.054  1.00  0.00    -0.165 C  
BRANCH  32  33
HETATM   33  C   UNL     1      -7.271  14.855  69.964  1.00  0.00     0.009 C  
HETATM   34  N   UNL     1      -8.036  13.818  69.269  1.00  0.00    -0.288 NA 
HETATM   35  H1  UNL     1      -8.254  13.027  69.875  1.00  0.00     0.000 HD 
HETATM   36  H2  UNL     1      -7.558  13.512  68.421  1.00  0.00     0.000 HD 
ENDBRANCH  32  33
ENDBRANCH  31  32
ENDBRANCH  29  31
ENDBRANCH  27  29
ENDBRANCH  11  27
ENDBRANCH   2   3
TORSDOF 9
ENDMDL
MODEL      263
REMARK 921   NORMALIZED FREE ENERGY PREDICTED BY IDOCK:   -2.31 KCAL/MOL
REMARK 922        TOTAL FREE ENERGY PREDICTED BY IDOCK:   -4.50 KCAL/MOL
REMARK 923 INTER-LIGAND FREE ENERGY PREDICTED BY IDOCK:   -3.64 KCAL/MOL
REMARK 924 INTRA-LIGAND FREE ENERGY PREDICTED BY IDOCK:   -0.86 KCAL/MOL
REMARK 927      BINDING AFFINITY PREDICTED BY RF-SCORE:    0.00 PKD
ROOT
HETATM    1  C   UNL     1      -7.901   8.076  64.058  1.00  0.00    -0.145 C  
HETATM    2  O   UNL     1      -7.148   8.758  65.057  1.00  0.00    -0.078 OA 
ENDROOT
BRANCH   2   3
HETATM    3  C   UNL     1      -7.696   8.636  66.316  1.00  0.00    -0.098 A  
HETATM    4  C   UNL     1      -8.905   7.992  66.407  1.00  0.00    -0.183 A  
HETATM    5  C   UNL     1      -9.451   7.778  67.678  1.00  0.00    -0.168 A  
HETATM    6  C   UNL     1      -8.673   8.084  68.840  1.00  0.00    -0.131 A  
HETATM    7  C   UNL     1     -10.897   7.361  67.740  1.00  0.00    -0.186 C  
HETATM    8  C   UNL     1      -8.877   7.640  70.192  1.00  0.00    -0.146 A  
HETATM    9  C   UNL     1      -8.254   8.312  71.259  1.00  0.00    -0.125 A  
HETATM   10  C   UNL     1      -7.564   8.936  68.608  1.00  0.00    -0.096 A  
HETATM   11  C   UNL     1      -6.932   9.595  69.682  1.00  0.00    -0.071 A  
HETATM   12  N   UNL     1      -7.079   9.182  67.374  1.00  0.00    -0.079 NA 
HETATM   13  C   UNL     1      -7.314   9.304  70.991  1.00  0.00    -0.091 A  
BRANCH   8  14
HETATM   14  O   UNL     1      -9.628   6.537  70.549  1.00  0.00    -0.168 OA 
BRANCH  14  15
HETATM   15  C   UNL     1      -9.193   5.235  70.407  1.00  0.00    -0.148 A  
HETATM   16  C   UNL     1      -9.860   4.336  71.250  1.00  0.00    -0.257 A  
HETATM   17  C   UNL     1      -9.767   2.962  71.041  1.00  0.00    -0.166 A  
HETATM   18  F   UNL     1      -7.918   3.557  66.810  1.00  0.00    -0.082 F  
HETATM   19  F   UNL     1      -7.871   1.553  67.633  1.00  0.00    -0.056 F  
HETATM   20  C   UNL     1      -9.015   2.478  69.974  1.00  0.00    -0.161 A  
HETATM   21  C   UNL     1      -8.304   4.741  69.450  1.00  0.00    -0.079 A  
HETATM   22  C   UNL     1      -7.577   2.853  67.926  1.00  0.00    -0.057 C  
HETATM   23  F   UNL     1      -6.222   2.920  68.015  1.00  0.00    -0.028 F  
HETATM   24  C   UNL     1      -8.282   3.360  69.163  1.00  0.00    -0.075 A  
ENDBRANCH  14  15
ENDBRANCH   8  14
BRANCH   9  25
HETATM   25  O   UNL     1      -8.397   8.075  72.603  1.00  0.00    -0.135 OA 
HETATM   26  C   UNL     1      -9.707   8.137  73.153  1.00  0.00    -0.224 C  
ENDBRANCH   9  25
BRANCH  11  27
HETATM   27  N   UNL     1      -5.872  10.486  69.407  1.00  0.00    -0.038 NA 
HETATM   28  H   UNL     1      -4.913  10.184  69.579  1.00  0.00     0.000 HD 
BRANCH  27  29
HETATM   29  C   UNL     1      -6.113  11.831  68.884  1.00  0.00    -0.054 C  
HETATM   30  C   UNL     1      -7.577  12.183  69.164  1.00  0.00     0.173 C  
BRANCH  29  31
HETATM   31  C   UNL     1      -5.197  12.860  69.572  1.00  0.00    -0.077 C  
BRANCH  31  32
HETATM   32  C   UNL     1      -5.915  13.858  70.489  1.00  0.00    -0.172 C  
BRANCH  32  33
HETATM   33  C   UNL     1      -5.289  15.253  70.567  1.00  0.00    -0.134 C  
HETATM   34  N   UNL     1      -5.249  15.916  69.262  1.00  0.00    -0.108 NA 
HETATM   35  H1  UNL     1      -4.833  16.846  69.314  1.00  0.00     0.000 HD 
HETATM   36  H2  UNL     1      -6.175  15.950  68.837  1.00  0.00     0.000 HD 
ENDBRANCH  32  33
ENDBRANCH  31  32
ENDBRANCH  29  31
ENDBRANCH  27  29
ENDBRANCH  11  27
ENDBRANCH   2   3
TORSDOF 9
ENDMDL
MODEL      264
REMARK 921   NORMALIZED FREE ENERGY PREDICTED BY IDOCK:   -1.59 KCAL/MOL
REMARK 922        TOTAL FREE ENERGY PREDICTED BY IDOCK:   -3.39 KCAL/MOL
REMARK 923 INTER-LIGAND FREE ENERGY PREDICTED BY IDOCK:   -4.14 KCAL/MOL
REMARK 924 INTRA-LIGAND FREE ENERGY PREDICTED BY IDOCK:    0.75 KCAL/MOL
REMARK 927      BINDING AFFINITY PREDICTED BY RF-SCORE:    0.00 PKD
ROOT
HETATM    1  C   UNL     1     -10.691  17.876  65.221  1.00  0.00     0.277 C  
HETATM    2  O   UNL     1     -11.362  17.184  66.270  1.00  0.00     0.503 OA 
ENDROOT
BRANCH   2   3
HETATM    3  C   UNL     1     -10.903  15.896  66.441  1.00  0.00    -0.193 A  
HETATM    4  C   UNL     1     -10.609  15.186  65.303  1.00  0.00    -0.432 A  
HETATM    5  C   UNL     1     -10.064  13.904  65.441  1.00  0.00    -0.328 A  
HETATM    6  C   UNL     1      -9.680  13.437  66.739  1.00  0.00    -0.262 A  
HETATM    7  C   UNL     1     -10.044  13.034  64.212  1.00  0.00    -0.216 C  
HETATM    8  C   UNL     1      -8.812  12.340  67.071  1.00  0.00    -0.205 A  
HETATM    9  C   UNL     1      -8.829  11.792  68.366  1.00  0.00    -0.161 A  
HETATM   10  C   UNL     1     -10.239  14.160  67.822  1.00  0.00    -0.242 A  
HETATM   11  C   UNL     1     -10.239  13.615  69.122  1.00  0.00     0.118 A  
HETATM   12  N   UNL     1     -10.813  15.371  67.672  1.00  0.00    -0.297 NA 
HETATM   13  C   UNL     1      -9.569  12.417  69.367  1.00  0.00     1.012 A  
BRANCH   8  14
HETATM   14  O   UNL     1      -7.891  11.781  66.207  1.00  0.00     0.015 OA 
BRANCH  14  15
HETATM   15  C   UNL     1      -7.864  10.441  65.878  1.00  0.00    -0.148 A  
HETATM   16  C   UNL     1      -8.013  10.206  64.505  1.00  0.00    -0.147 A  
HETATM   17  C   UNL     1      -7.718   8.958  63.960  1.00  0.00    -0.128 A  
HETATM   18  F   UNL     1      -5.551   7.582  67.843  1.00  0.00    -0.025 F  
HETATM   19  F   UNL     1      -5.962   6.064  66.353  1.00  0.00    -0.021 F  
HETATM   20  C   UNL     1      -7.258   7.938  64.787  1.00  0.00    -0.074 A  
HETATM   21  C   UNL     1      -7.570   9.369  66.725  1.00  0.00    -0.097 A  
HETATM   22  C   UNL     1      -6.543   7.077  67.057  1.00  0.00    -0.055 C  
HETATM   23  F   UNL     1      -7.430   6.487  67.901  1.00  0.00    -0.085 F  
HETATM   24  C   UNL     1      -7.171   8.132  66.175  1.00  0.00    -0.066 A  
ENDBRANCH  14  15
ENDBRANCH   8  14
BRANCH   9  25
HETATM   25  O   UNL     1      -8.131  10.706  68.831  1.00  0.00    -0.122 OA 
HETATM   26  C   UNL     1      -6.942  10.947  69.571  1.00  0.00    -0.131 C  
ENDBRANCH   9  25
BRANCH  11  27
HETATM   27  N   UNL     1     -10.861  14.335  70.165  1.00  0.00    -0.449 NA 
HETATM   28  H   UNL     1     -10.547  15.284  70.369  1.00  0.00     0.000 HD 
BRANCH  27  29
HETATM   29  C   UNL     1     -11.943  13.755  70.962  1.00  0.00    -0.121 C  
HETATM   30  C   UNL     1     -13.173  14.651  70.795  1.00  0.00    -0.333 C  
BRANCH  29  31
HETATM   31  C   UNL     1     -12.276  12.331  70.479  1.00  0.00    -0.387 C  
BRANCH  31  32
HETATM   32  C   UNL     1     -12.951  11.433  71.522  1.00  0.00    -0.505 C  
BRANCH  32  33
HETATM   33  C   UNL     1     -13.118   9.964  71.122  1.00  0.00    -0.370 C  
HETATM   34  N   UNL     1     -12.061   9.513  70.214  1.00  0.00    -0.464 NA 
HETATM   35  H1  UNL     1     -12.171   8.535  69.948  1.00  0.00     0.000 HD 
HETATM   36  H2  UNL     1     -11.137   9.685  70.610  1.00  0.00     0.000 HD 
ENDBRANCH  32  33
ENDBRANCH  31  32
ENDBRANCH  29  31
ENDBRANCH  27  29
ENDBRANCH  11  27
ENDBRANCH   2   3
TORSDOF 9
ENDMDL
MODEL      265
REMARK 921   NORMALIZED FREE ENERGY PREDICTED BY IDOCK:   -1.52 KCAL/MOL
REMARK 922        TOTAL FREE ENERGY PREDICTED BY IDOCK:   -3.29 KCAL/MOL
REMARK 923 INTER-LIGAND FREE ENERGY PREDICTED BY IDOCK:   -2.63 KCAL/MOL
REMARK 924 INTRA-LIGAND FREE ENERGY PREDICTED BY IDOCK:   -0.66 KCAL/MOL
REMARK 927      BINDING AFFINITY PREDICTED BY RF-SCORE:    0.00 PKD
ROOT
HETATM    1  C   UNL     1     -11.453  11.142  71.822  1.00  0.00     2.440 C  
HETATM    2  O   UNL     1     -10.535  10.190  71.293  1.00  0.00     0.212 OA 
ENDROOT
BRANCH   2   3
HETATM    3  C   UNL     1     -10.297  10.367  69.947  1.00  0.00    -0.182 A  
HETATM    4  C   UNL     1      -9.503   9.432  69.329  1.00  0.00    -0.164 A  
HETATM    5  C   UNL     1      -9.308   9.535  67.947  1.00  0.00    -0.145 A  
HETATM    6  C   UNL     1     -10.057  10.498  67.198  1.00  0.00    -0.253 A  
HETATM    7  C   UNL     1      -8.202   8.704  67.349  1.00  0.00    -0.105 C  
HETATM    8  C   UNL     1     -10.277  10.548  65.778  1.00  0.00    -0.243 A  
HETATM    9  C   UNL     1     -10.719  11.739  65.173  1.00  0.00    -0.291 A  
HETATM   10  C   UNL     1     -10.651  11.525  67.973  1.00  0.00    -0.190 A  
HETATM   11  C   UNL     1     -11.108  12.709  67.361  1.00  0.00    -0.273 A  
HETATM   12  N   UNL     1     -10.785  11.443  69.313  1.00  0.00    -0.190 NA 
HETATM   13  C   UNL     1     -11.097  12.816  65.971  1.00  0.00    -0.315 A  
BRANCH   8  14
HETATM   14  O   UNL     1     -10.128   9.473  64.924  1.00  0.00     0.055 OA 
BRANCH  14  15
HETATM   15  C   UNL     1      -8.930   9.122  64.335  1.00  0.00    -0.055 A  
HETATM   16  C   UNL     1      -8.001  10.171  64.306  1.00  0.00    -0.155 A  
HETATM   17  C   UNL     1      -6.659   9.925  64.026  1.00  0.00    -0.127 A  
HETATM   18  F   UNL     1      -7.202   5.336  64.590  1.00  0.00    -0.053 F  
HETATM   19  F   UNL     1      -5.335   6.008  63.721  1.00  0.00    -0.015 F  
HETATM   20  C   UNL     1      -6.234   8.621  63.785  1.00  0.00    -0.073 A  
HETATM   21  C   UNL     1      -8.532   7.847  63.923  1.00  0.00     0.186 A  
HETATM   22  C   UNL     1      -6.688   6.138  63.615  1.00  0.00    -0.037 C  
HETATM   23  F   UNL     1      -7.030   5.561  62.432  1.00  0.00    -0.035 F  
HETATM   24  C   UNL     1      -7.162   7.568  63.739  1.00  0.00    -0.078 A  
ENDBRANCH  14  15
ENDBRANCH   8  14
BRANCH   9  25
HETATM   25  O   UNL     1     -10.904  11.986  63.836  1.00  0.00    -0.324 OA 
HETATM   26  C   UNL     1     -12.237  12.016  63.344  1.00  0.00    -0.519 C  
ENDBRANCH   9  25
BRANCH  11  27
HETATM   27  N   UNL     1     -11.635  13.738  68.172  1.00  0.00    -0.314 NA 
HETATM   28  H   UNL     1     -12.525  13.589  68.647  1.00  0.00     0.000 HD 
BRANCH  27  29
HETATM   29  C   UNL     1     -10.938  15.013  68.348  1.00  0.00    -0.264 C  
HETATM   30  C   UNL     1      -9.456  14.777  68.044  1.00  0.00    -0.204 C  
BRANCH  29  31
HETATM   31  C   UNL     1     -11.496  16.079  67.387  1.00  0.00     0.114 C  
BRANCH  31  32
HETATM   32  C   UNL     1     -10.437  16.880  66.621  1.00  0.00    -0.257 C  
BRANCH  32  33
HETATM   33  C   UNL     1     -10.023  18.211  67.257  1.00  0.00    -0.330 C  
HETATM   34  N   UNL     1     -10.386  19.359  66.424  1.00  0.00    -0.444 NA 
HETATM   35  H1  UNL     1     -10.112  20.245  66.848  1.00  0.00     0.000 HD 
HETATM   36  H2  UNL     1     -11.381  19.352  66.198  1.00  0.00     0.000 HD 
ENDBRANCH  32  33
ENDBRANCH  31  32
ENDBRANCH  29  31
ENDBRANCH  27  29
ENDBRANCH  11  27
ENDBRANCH   2   3
TORSDOF 9
ENDMDL
MODEL      266
REMARK 921   NORMALIZED FREE ENERGY PREDICTED BY IDOCK:   -1.48 KCAL/MOL
REMARK 922        TOTAL FREE ENERGY PREDICTED BY IDOCK:   -3.23 KCAL/MOL
REMARK 923 INTER-LIGAND FREE ENERGY PREDICTED BY IDOCK:   -2.86 KCAL/MOL
REMARK 924 INTRA-LIGAND FREE ENERGY PREDICTED BY IDOCK:   -0.37 KCAL/MOL
REMARK 927      BINDING AFFINITY PREDICTED BY RF-SCORE:    0.00 PKD
ROOT
HETATM    1  C   UNL     1      -7.916   8.086  64.074  1.00  0.00    -0.134 C  
HETATM    2  O   UNL     1      -7.293   8.783  65.149  1.00  0.00    -0.086 OA 
ENDROOT
BRANCH   2   3
HETATM    3  C   UNL     1      -7.956   8.623  66.346  1.00  0.00    -0.099 A  
HETATM    4  C   UNL     1      -9.130   7.910  66.315  1.00  0.00    -0.224 A  
HETATM    5  C   UNL     1      -9.788   7.659  67.524  1.00  0.00    -0.214 A  
HETATM    6  C   UNL     1      -9.150   8.004  68.759  1.00  0.00    -0.144 A  
HETATM    7  C   UNL     1     -11.206   7.159  67.440  1.00  0.00    -0.057 C  
HETATM    8  C   UNL     1      -9.464   7.542  70.084  1.00  0.00    -0.161 A  
HETATM    9  C   UNL     1      -8.992   8.243  71.208  1.00  0.00    -0.160 A  
HETATM   10  C   UNL     1      -8.075   8.919  68.639  1.00  0.00    -0.111 A  
HETATM   11  C   UNL     1      -7.594   9.608  69.771  1.00  0.00    -0.123 A  
HETATM   12  N   UNL     1      -7.483   9.199  67.461  1.00  0.00    -0.088 NA 
HETATM   13  C   UNL     1      -8.089   9.289  71.035  1.00  0.00    -0.115 A  
BRANCH   8  14
HETATM   14  O   UNL     1     -10.182   6.396  70.364  1.00  0.00    -0.185 OA 
BRANCH  14  15
HETATM   15  C   UNL     1      -9.663   5.121  70.260  1.00  0.00    -0.203 A  
HETATM   16  C   UNL     1      -9.148   4.837  68.989  1.00  0.00    -0.157 A  
HETATM   17  C   UNL     1      -8.330   3.729  68.783  1.00  0.00    -0.088 A  
HETATM   18  F   UNL     1      -7.733   3.105  73.357  1.00  0.00    -0.054 F  
HETATM   19  F   UNL     1      -7.053   1.517  72.049  1.00  0.00    -0.026 F  
HETATM   20  C   UNL     1      -8.010   2.901  69.856  1.00  0.00    -0.052 A  
HETATM   21  C   UNL     1      -9.482   4.195  71.291  1.00  0.00    -0.230 A  
HETATM   22  C   UNL     1      -8.124   2.318  72.316  1.00  0.00    -0.054 C  
HETATM   23  F   UNL     1      -9.093   1.499  72.805  1.00  0.00    -0.060 F  
HETATM   24  C   UNL     1      -8.575   3.128  71.122  1.00  0.00    -0.108 A  
ENDBRANCH  14  15
ENDBRANCH   8  14
BRANCH   9  25
HETATM   25  O   UNL     1      -9.256   7.992  72.530  1.00  0.00    -0.171 OA 
HETATM   26  C   UNL     1      -8.512   8.711  73.505  1.00  0.00     0.204 C  
ENDBRANCH   9  25
BRANCH  11  27
HETATM   27  N   UNL     1      -6.564  10.560  69.604  1.00  0.00    -0.082 NA 
HETATM   28  H   UNL     1      -5.610  10.309  69.861  1.00  0.00     0.000 HD 
BRANCH  27  29
HETATM   29  C   UNL     1      -6.832  11.897  69.073  1.00  0.00    -0.105 C  
HETATM   30  C   UNL     1      -8.351  12.089  69.042  1.00  0.00     0.279 C  
BRANCH  29  31
HETATM   31  C   UNL     1      -6.196  12.979  69.965  1.00  0.00    -0.062 C  
BRANCH  31  32
HETATM   32  C   UNL     1      -7.003  14.276  70.089  1.00  0.00     0.146 C  
BRANCH  32  33
HETATM   33  C   UNL     1      -6.188  15.538  70.387  1.00  0.00     0.020 C  
HETATM   34  N   UNL     1      -5.158  15.305  71.402  1.00  0.00    -0.155 NA 
HETATM   35  H1  UNL     1      -4.615  16.145  71.601  1.00  0.00     0.000 HD 
HETATM   36  H2  UNL     1      -4.553  14.527  71.141  1.00  0.00     0.000 HD 
ENDBRANCH  32  33
ENDBRANCH  31  32
ENDBRANCH  29  31
ENDBRANCH  27  29
ENDBRANCH  11  27
ENDBRANCH   2   3
TORSDOF 9
ENDMDL
MODEL      267
REMARK 921   NORMALIZED FREE ENERGY PREDICTED BY IDOCK:    1.47 KCAL/MOL
REMARK 922        TOTAL FREE ENERGY PREDICTED BY IDOCK:    1.28 KCAL/MOL
REMARK 923 INTER-LIGAND FREE ENERGY PREDICTED BY IDOCK:   -2.05 KCAL/MOL
REMARK 924 INTRA-LIGAND FREE ENERGY PREDICTED BY IDOCK:    3.32 KCAL/MOL
REMARK 927      BINDING AFFINITY PREDICTED BY RF-SCORE:    0.00 PKD
ROOT
HETATM    1  C   UNL     1      -7.142   2.799  68.198  1.00  0.00    -0.049 C  
HETATM    2  O   UNL     1      -8.489   3.005  67.784  1.00  0.00    -0.079 OA 
ENDROOT
BRANCH   2   3
HETATM    3  C   UNL     1      -8.919   4.299  67.984  1.00  0.00    -0.122 A  
HETATM    4  C   UNL     1      -9.421   4.601  69.226  1.00  0.00    -0.231 A  
HETATM    5  C   UNL     1      -9.791   5.925  69.489  1.00  0.00    -0.216 A  
HETATM    6  C   UNL     1      -9.490   6.946  68.531  1.00  0.00    -0.133 A  
HETATM    7  C   UNL     1     -10.618   6.171  70.725  1.00  0.00    -0.299 C  
HETATM    8  C   UNL     1      -9.458   8.370  68.725  1.00  0.00    -0.147 A  
HETATM    9  C   UNL     1      -9.505   9.236  67.618  1.00  0.00    -0.132 A  
HETATM   10  C   UNL     1      -9.189   6.471  67.230  1.00  0.00    -0.120 A  
HETATM   11  C   UNL     1      -9.221   7.346  66.125  1.00  0.00    -0.099 A  
HETATM   12  N   UNL     1      -8.889   5.182  66.975  1.00  0.00    -0.110 NA 
HETATM   13  C   UNL     1      -9.420   8.710  66.331  1.00  0.00    -0.295 A  
BRANCH   8  14
HETATM   14  O   UNL     1      -9.336   8.990  69.953  1.00  0.00    -0.158 OA 
BRANCH  14  15
HETATM   15  C   UNL     1      -8.959   8.335  71.109  1.00  0.00    -0.158 A  
HETATM   16  C   UNL     1      -9.896   8.460  72.143  1.00  0.00    -0.372 A  
HETATM   17  C   UNL     1      -9.832   7.636  73.264  1.00  0.00    -0.360 A  
HETATM   18  F   UNL     1      -6.801   4.769  71.198  1.00  0.00    -0.033 F  
HETATM   19  F   UNL     1      -7.119   4.501  73.324  1.00  0.00    -0.066 F  
HETATM   20  C   UNL     1      -8.833   6.670  73.351  1.00  0.00    -0.138 A  
HETATM   21  C   UNL     1      -7.862   7.487  71.280  1.00  0.00    -0.094 A  
HETATM   22  C   UNL     1      -6.843   5.446  72.380  1.00  0.00    -0.075 C  
HETATM   23  F   UNL     1      -5.571   5.859  72.624  1.00  0.00    -0.027 F  
HETATM   24  C   UNL     1      -7.844   6.579  72.359  1.00  0.00    -0.101 A  
ENDBRANCH  14  15
ENDBRANCH   8  14
BRANCH   9  25
HETATM   25  O   UNL     1      -9.562  10.606  67.622  1.00  0.00    -0.159 OA 
HETATM   26  C   UNL     1      -8.424  11.319  67.154  1.00  0.00    -0.149 C  
ENDBRANCH   9  25
BRANCH  11  27
HETATM   27  N   UNL     1      -8.979   6.825  64.835  1.00  0.00    -0.176 NA 
HETATM   28  H   UNL     1      -8.695   5.850  64.738  1.00  0.00     0.000 HD 
BRANCH  27  29
HETATM   29  C   UNL     1      -9.123   7.649  63.634  1.00  0.00     1.611 C  
HETATM   30  C   UNL     1      -8.102   8.786  63.725  1.00  0.00    -0.165 C  
BRANCH  29  31
HETATM   31  C   UNL     1      -8.854   6.819  62.365  1.00  0.00     0.434 C  
BRANCH  31  32
HETATM   32  C   UNL     1      -9.438   5.401  62.380  1.00  0.00     0.369 C  
BRANCH  32  33
HETATM   33  C   UNL     1      -8.738   4.407  63.312  1.00  0.00    -0.121 C  
HETATM   34  N   UNL     1      -8.617   3.077  62.712  1.00  0.00    -0.078 NA 
HETATM   35  H1  UNL     1      -8.152   2.414  63.332  1.00  0.00     0.000 HD 
HETATM   36  H2  UNL     1      -8.153   3.122  61.805  1.00  0.00     0.000 HD 
ENDBRANCH  32  33
ENDBRANCH  31  32
ENDBRANCH  29  31
ENDBRANCH  27  29
ENDBRANCH  11  27
ENDBRANCH   2   3
TORSDOF 9
ENDMDL
MODEL      268
REMARK 921   NORMALIZED FREE ENERGY PREDICTED BY IDOCK:    1.85 KCAL/MOL
REMARK 922        TOTAL FREE ENERGY PREDICTED BY IDOCK:    1.86 KCAL/MOL
REMARK 923 INTER-LIGAND FREE ENERGY PREDICTED BY IDOCK:    2.25 KCAL/MOL
REMARK 924 INTRA-LIGAND FREE ENERGY PREDICTED BY IDOCK:   -0.39 KCAL/MOL
REMARK 927      BINDING AFFINITY PREDICTED BY RF-SCORE:    0.00 PKD
ROOT
HETATM    1  C   UNL     1     -12.955  12.823  66.775  1.00  0.00     2.214 C  
HETATM    2  O   UNL     1     -12.408  13.732  65.825  1.00  0.00    -0.431 OA 
ENDROOT
BRANCH   2   3
HETATM    3  C   UNL     1     -11.072  13.992  66.041  1.00  0.00    -0.303 A  
HETATM    4  C   UNL     1     -10.564  15.138  65.481  1.00  0.00    -0.383 A  
HETATM    5  C   UNL     1      -9.232  15.475  65.748  1.00  0.00    -0.216 A  
HETATM    6  C   UNL     1      -8.492  14.718  66.712  1.00  0.00    -0.179 A  
HETATM    7  C   UNL     1      -8.612  16.546  64.888  1.00  0.00     4.074 C  
HETATM    8  C   UNL     1      -7.273  15.078  67.383  1.00  0.00    -0.194 A  
HETATM    9  C   UNL     1      -6.494  14.090  68.012  1.00  0.00    -0.149 A  
HETATM   10  C   UNL     1      -9.049  13.455  67.033  1.00  0.00    -0.243 A  
HETATM   11  C   UNL     1      -8.271  12.474  67.678  1.00  0.00    -0.172 A  
HETATM   12  N   UNL     1     -10.317  13.117  66.722  1.00  0.00    -0.250 NA 
HETATM   13  C   UNL     1      -6.988  12.793  68.122  1.00  0.00    -0.096 A  
BRANCH   8  14
HETATM   14  O   UNL     1      -6.799  16.370  67.508  1.00  0.00    -0.125 OA 
BRANCH  14  15
HETATM   15  C   UNL     1      -7.365  17.317  68.337  1.00  0.00    -0.224 A  
HETATM   16  C   UNL     1      -6.487  17.781  69.325  1.00  0.00    -0.244 A  
HETATM   17  C   UNL     1      -6.779  18.932  70.053  1.00  0.00     0.145 A  
HETATM   18  F   UNL     1     -10.180  20.138  67.113  1.00  0.00    -0.505 F  
HETATM   19  F   UNL     1     -10.050  21.239  68.974  1.00  0.00     0.413 F  
HETATM   20  C   UNL     1      -7.950  19.636  69.787  1.00  0.00     0.446 A  
HETATM   21  C   UNL     1      -8.615  17.925  68.196  1.00  0.00    -0.265 A  
HETATM   22  C   UNL     1     -10.079  19.975  68.462  1.00  0.00    -0.365 C  
HETATM   23  F   UNL     1     -11.258  19.433  68.867  1.00  0.00     0.613 F  
HETATM   24  C   UNL     1      -8.877  19.146  68.852  1.00  0.00    -0.319 A  
ENDBRANCH  14  15
ENDBRANCH   8  14
BRANCH   9  25
HETATM   25  O   UNL     1      -5.276  14.241  68.626  1.00  0.00    -0.082 OA 
HETATM   26  C   UNL     1      -5.231  14.982  69.838  1.00  0.00    -0.097 C  
ENDBRANCH   9  25
BRANCH  11  27
HETATM   27  N   UNL     1      -8.838  11.205  67.925  1.00  0.00    -0.133 NA 
HETATM   28  H   UNL     1      -9.821  11.048  67.700  1.00  0.00     0.000 HD 
BRANCH  27  29
HETATM   29  C   UNL     1      -8.054  10.109  68.495  1.00  0.00    -0.106 C  
HETATM   30  C   UNL     1      -7.797  10.438  69.968  1.00  0.00     0.043 C  
BRANCH  29  31
HETATM   31  C   UNL     1      -8.819   8.776  68.392  1.00  0.00    -0.138 C  
BRANCH  31  32
HETATM   32  C   UNL     1      -8.281   7.648  69.280  1.00  0.00    -0.133 C  
BRANCH  32  33
HETATM   33  C   UNL     1      -9.260   7.102  70.324  1.00  0.00    -0.156 C  
HETATM   34  N   UNL     1     -10.455   6.518  69.710  1.00  0.00    -0.197 NA 
HETATM   35  H1  UNL     1     -11.107   6.154  70.405  1.00  0.00     0.000 HD 
HETATM   36  H2  UNL     1     -10.206   5.802  69.028  1.00  0.00     0.000 HD 
ENDBRANCH  32  33
ENDBRANCH  31  32
ENDBRANCH  29  31
ENDBRANCH  27  29
ENDBRANCH  11  27
ENDBRANCH   2   3
TORSDOF 9
ENDMDL
MODEL      269
REMARK 921   NORMALIZED FREE ENERGY PREDICTED BY IDOCK:    2.13 KCAL/MOL
REMARK 922        TOTAL FREE ENERGY PREDICTED BY IDOCK:    2.28 KCAL/MOL
REMARK 923 INTER-LIGAND FREE ENERGY PREDICTED BY IDOCK:    3.18 KCAL/MOL
REMARK 924 INTRA-LIGAND FREE ENERGY PREDICTED BY IDOCK:   -0.90 KCAL/MOL
REMARK 927      BINDING AFFINITY PREDICTED BY RF-SCORE:    0.00 PKD
ROOT
HETATM    1  C   UNL     1     -10.701  14.844  63.832  1.00  0.00     1.625 C  
HETATM    2  O   UNL     1      -9.935  15.365  64.914  1.00  0.00    -0.274 OA 
ENDROOT
BRANCH   2   3
HETATM    3  C   UNL     1     -10.573  15.244  66.129  1.00  0.00    -0.313 A  
HETATM    4  C   UNL     1     -11.636  14.376  66.187  1.00  0.00    -0.372 A  
HETATM    5  C   UNL     1     -12.256  14.166  67.424  1.00  0.00    -0.278 A  
HETATM    6  C   UNL     1     -11.676  14.725  68.608  1.00  0.00    -0.356 A  
HETATM    7  C   UNL     1     -13.591  13.468  67.410  1.00  0.00     6.376 C  
HETATM    8  C   UNL     1     -11.927  14.368  69.978  1.00  0.00    -0.334 A  
HETATM    9  C   UNL     1     -11.560  15.244  71.015  1.00  0.00    -0.356 A  
HETATM   10  C   UNL     1     -10.738  15.763  68.379  1.00  0.00    -0.281 A  
HETATM   11  C   UNL     1     -10.361  16.628  69.426  1.00  0.00    -0.294 A  
HETATM   12  N   UNL     1     -10.187  15.995  67.171  1.00  0.00    -0.272 NA 
HETATM   13  C   UNL     1     -10.810  16.380  70.722  1.00  0.00     0.130 A  
BRANCH   8  14
HETATM   14  O   UNL     1     -12.479  13.170  70.386  1.00  0.00    -0.289 OA 
BRANCH  14  15
HETATM   15  C   UNL     1     -11.754  12.007  70.549  1.00  0.00     0.040 A  
HETATM   16  C   UNL     1     -12.286  11.157  71.527  1.00  0.00    -0.256 A  
HETATM   17  C   UNL     1     -11.870   9.831  71.621  1.00  0.00    -0.429 A  
HETATM   18  F   UNL     1      -9.778  10.013  67.467  1.00  0.00    -0.164 F  
HETATM   19  F   UNL     1      -9.371   8.279  68.700  1.00  0.00    -0.142 F  
HETATM   20  C   UNL     1     -10.924   9.342  70.724  1.00  0.00    -0.371 A  
HETATM   21  C   UNL     1     -10.683  11.562  69.769  1.00  0.00     0.161 A  
HETATM   22  C   UNL     1      -9.404   9.642  68.723  1.00  0.00    -0.148 C  
HETATM   23  F   UNL     1      -8.114  10.046  68.869  1.00  0.00    -0.090 F  
HETATM   24  C   UNL     1     -10.326  10.198  69.785  1.00  0.00    -0.297 A  
ENDBRANCH  14  15
ENDBRANCH   8  14
BRANCH   9  25
HETATM   25  O   UNL     1     -11.790  15.101  72.360  1.00  0.00    -0.382 OA 
HETATM   26  C   UNL     1     -11.619  16.243  73.189  1.00  0.00     0.067 C  
ENDBRANCH   9  25
BRANCH  11  27
HETATM   27  N   UNL     1      -9.473  17.690  69.147  1.00  0.00    -0.081 NA 
HETATM   28  H   UNL     1      -9.783  18.451  68.542  1.00  0.00     0.000 HD 
BRANCH  27  29
HETATM   29  C   UNL     1      -8.120  17.728  69.702  1.00  0.00     0.902 C  
HETATM   30  C   UNL     1      -7.180  17.081  68.680  1.00  0.00    -0.221 C  
BRANCH  29  31
HETATM   31  C   UNL     1      -7.674  19.179  69.963  1.00  0.00     0.783 C  
BRANCH  31  32
HETATM   32  C   UNL     1      -7.429  20.019  68.704  1.00  0.00    -0.211 C  
BRANCH  32  33
HETATM   33  C   UNL     1      -8.393  19.767  67.541  1.00  0.00    -0.314 C  
HETATM   34  N   UNL     1      -9.755  20.212  67.845  1.00  0.00    -0.376 NA 
HETATM   35  H1  UNL     1     -10.398  20.045  67.071  1.00  0.00     0.000 HD 
HETATM   36  H2  UNL     1      -9.768  21.191  68.130  1.00  0.00     0.000 HD 
ENDBRANCH  32  33
ENDBRANCH  31  32
ENDBRANCH  29  31
ENDBRANCH  27  29
ENDBRANCH  11  27
ENDBRANCH   2   3
TORSDOF 9
ENDMDL
MODEL      270
REMARK 921   NORMALIZED FREE ENERGY PREDICTED BY IDOCK:    4.43 KCAL/MOL
REMARK 922        TOTAL FREE ENERGY PREDICTED BY IDOCK:    5.79 KCAL/MOL
REMARK 923 INTER-LIGAND FREE ENERGY PREDICTED BY IDOCK:    1.70 KCAL/MOL
REMARK 924 INTRA-LIGAND FREE ENERGY PREDICTED BY IDOCK:    4.09 KCAL/MOL
REMARK 927      BINDING AFFINITY PREDICTED BY RF-SCORE:    0.00 PKD
ROOT
HETATM    1  C   UNL     1      -9.968  12.985  64.499  1.00  0.00    -0.124 C  
HETATM    2  O   UNL     1      -9.211  12.611  65.647  1.00  0.00     0.033 OA 
ENDROOT
BRANCH   2   3
HETATM    3  C   UNL     1      -9.119  11.245  65.805  1.00  0.00    -0.203 A  
HETATM    4  C   UNL     1      -9.008  10.494  64.660  1.00  0.00    -0.229 A  
HETATM    5  C   UNL     1      -8.831   9.111  64.787  1.00  0.00    -0.200 A  
HETATM    6  C   UNL     1      -8.610   8.544  66.083  1.00  0.00    -0.154 A  
HETATM    7  C   UNL     1      -9.024   8.281  63.545  1.00  0.00     0.781 C  
HETATM    8  C   UNL     1      -8.076   7.250  66.410  1.00  0.00    -0.119 A  
HETATM    9  C   UNL     1      -8.262   6.713  67.697  1.00  0.00    -0.122 A  
HETATM   10  C   UNL     1      -8.972   9.379  67.169  1.00  0.00    -0.130 A  
HETATM   11  C   UNL     1      -9.142   8.840  68.460  1.00  0.00    -0.138 A  
HETATM   12  N   UNL     1      -9.196  10.702  67.029  1.00  0.00    -0.151 NA 
HETATM   13  C   UNL     1      -8.824   7.503  68.696  1.00  0.00    -0.127 A  
BRANCH   8  14
HETATM   14  O   UNL     1      -7.325   6.472  65.551  1.00  0.00    -0.071 OA 
BRANCH  14  15
HETATM   15  C   UNL     1      -7.649   5.175  65.210  1.00  0.00    -0.082 A  
HETATM   16  C   UNL     1      -6.692   4.240  65.626  1.00  0.00    -0.052 A  
HETATM   17  C   UNL     1      -6.984   2.878  65.634  1.00  0.00    -0.049 A  
HETATM   18  F   UNL     1     -11.537   3.676  65.078  1.00  0.00     0.535 F  
HETATM   19  F   UNL     1     -10.859   1.631  64.847  1.00  0.00     0.818 F  
HETATM   20  C   UNL     1      -8.246   2.443  65.236  1.00  0.00    -0.085 A  
HETATM   21  C   UNL     1      -8.846   4.722  64.649  1.00  0.00    -0.152 A  
HETATM   22  C   UNL     1     -10.604   2.909  64.446  1.00  0.00     0.243 C  
HETATM   23  F   UNL     1     -10.910   2.957  63.123  1.00  0.00    -0.179 F  
HETATM   24  C   UNL     1      -9.192   3.358  64.748  1.00  0.00    -0.142 A  
ENDBRANCH  14  15
ENDBRANCH   8  14
BRANCH   9  25
HETATM   25  O   UNL     1      -7.892   5.474  68.154  1.00  0.00    -0.091 OA 
HETATM   26  C   UNL     1      -8.897   4.652  68.734  1.00  0.00    -0.100 C  
ENDBRANCH   9  25
BRANCH  11  27
HETATM   27  N   UNL     1      -9.565   9.690  69.505  1.00  0.00    -0.185 NA 
HETATM   28  H   UNL     1     -10.563   9.850  69.642  1.00  0.00     0.000 HD 
BRANCH  27  29
HETATM   29  C   UNL     1      -8.608  10.348  70.396  1.00  0.00     0.961 C  
HETATM   30  C   UNL     1      -8.709   9.672  71.766  1.00  0.00     1.512 C  
BRANCH  29  31
HETATM   31  C   UNL     1      -7.172  10.206  69.858  1.00  0.00    -0.155 C  
BRANCH  31  32
HETATM   32  C   UNL     1      -7.058  10.080  68.335  1.00  0.00    -0.072 C  
BRANCH  32  33
HETATM   33  C   UNL     1      -5.639   9.893  67.790  1.00  0.00    -0.039 C  
HETATM   34  N   UNL     1      -5.248   8.483  67.736  1.00  0.00    -0.034 NA 
HETATM   35  H1  UNL     1      -4.303   8.358  67.373  1.00  0.00     0.000 HD 
HETATM   36  H2  UNL     1      -5.922   7.932  67.205  1.00  0.00     0.000 HD 
ENDBRANCH  32  33
ENDBRANCH  31  32
ENDBRANCH  29  31
ENDBRANCH  27  29
ENDBRANCH  11  27
ENDBRANCH   2   3
TORSDOF 9
ENDMDL
MODEL      271
REMARK 921   NORMALIZED FREE ENERGY PREDICTED BY IDOCK:    5.27 KCAL/MOL
REMARK 922        TOTAL FREE ENERGY PREDICTED BY IDOCK:    7.07 KCAL/MOL
REMARK 923 INTER-LIGAND FREE ENERGY PREDICTED BY IDOCK:    1.11 KCAL/MOL
REMARK 924 INTRA-LIGAND FREE ENERGY PREDICTED BY IDOCK:    5.96 KCAL/MOL
REMARK 927      BINDING AFFINITY PREDICTED BY RF-SCORE:    0.00 PKD
ROOT
HETATM    1  C   UNL     1      -7.151   2.762  68.223  1.00  0.00    -0.049 C  
HETATM    2  O   UNL     1      -8.491   2.930  67.769  1.00  0.00    -0.079 OA 
ENDROOT
BRANCH   2   3
HETATM    3  C   UNL     1      -9.073   4.088  68.238  1.00  0.00    -0.137 A  
HETATM    4  C   UNL     1      -9.861   3.977  69.357  1.00  0.00    -0.115 A  
HETATM    5  C   UNL     1     -10.403   5.144  69.907  1.00  0.00    -0.347 A  
HETATM    6  C   UNL     1      -9.997   6.419  69.396  1.00  0.00    -0.184 A  
HETATM    7  C   UNL     1     -11.499   4.975  70.926  1.00  0.00     1.405 C  
HETATM    8  C   UNL     1     -10.143   7.712  70.008  1.00  0.00    -0.204 A  
HETATM    9  C   UNL     1     -10.027   8.879  69.231  1.00  0.00    -0.192 A  
HETATM   10  C   UNL     1      -9.375   6.381  68.123  1.00  0.00    -0.108 A  
HETATM   11  C   UNL     1      -9.247   7.555  67.355  1.00  0.00    -0.132 A  
HETATM   12  N   UNL     1      -8.906   5.242  67.575  1.00  0.00    -0.106 NA 
HETATM   13  C   UNL     1      -9.613   8.783  67.905  1.00  0.00    -0.169 A  
BRANCH   8  14
HETATM   14  O   UNL     1     -10.351   7.921  71.357  1.00  0.00    -0.195 OA 
BRANCH  14  15
HETATM   15  C   UNL     1     -10.378   6.909  72.295  1.00  0.00    -0.196 A  
HETATM   16  C   UNL     1     -11.545   6.905  73.069  1.00  0.00     0.062 A  
HETATM   17  C   UNL     1     -11.878   5.800  73.849  1.00  0.00     2.184 A  
HETATM   18  F   UNL     1      -8.710   3.130  71.728  1.00  0.00    -0.079 F  
HETATM   19  F   UNL     1      -9.628   2.334  73.522  1.00  0.00    -0.083 F  
HETATM   20  C   UNL     1     -11.048   4.682  73.848  1.00  0.00    -0.258 A  
HETATM   21  C   UNL     1      -9.465   5.860  72.432  1.00  0.00    -0.155 A  
HETATM   22  C   UNL     1      -9.005   3.440  73.022  1.00  0.00    -0.087 C  
HETATM   23  F   UNL     1      -7.814   3.526  73.671  1.00  0.00    -0.062 F  
HETATM   24  C   UNL     1      -9.838   4.696  73.136  1.00  0.00    -0.170 A  
ENDBRANCH  14  15
ENDBRANCH   8  14
BRANCH   9  25
HETATM   25  O   UNL     1     -10.212  10.178  69.629  1.00  0.00    -0.218 OA 
HETATM   26  C   UNL     1     -11.492  10.545  70.127  1.00  0.00    -0.325 C  
ENDBRANCH   9  25
BRANCH  11  27
HETATM   27  N   UNL     1      -8.680   7.468  66.065  1.00  0.00    -0.157 NA 
HETATM   28  H   UNL     1      -8.235   6.597  65.775  1.00  0.00     0.000 HD 
BRANCH  27  29
HETATM   29  C   UNL     1      -8.713   8.596  65.132  1.00  0.00    -0.144 C  
HETATM   30  C   UNL     1      -8.024   9.782  65.814  1.00  0.00    -0.116 C  
BRANCH  29  31
HETATM   31  C   UNL     1      -7.969   8.251  63.829  1.00  0.00    -0.149 C  
BRANCH  31  32
HETATM   32  C   UNL     1      -8.107   6.795  63.368  1.00  0.00    -0.006 C  
BRANCH  32  33
HETATM   33  C   UNL     1      -9.534   6.330  63.062  1.00  0.00     1.938 C  
HETATM   34  N   UNL     1      -9.775   4.956  63.508  1.00  0.00    -0.258 NA 
HETATM   35  H1  UNL     1     -10.725   4.645  63.304  1.00  0.00     0.000 HD 
HETATM   36  H2  UNL     1      -9.556   4.845  64.498  1.00  0.00     0.000 HD 
ENDBRANCH  32  33
ENDBRANCH  31  32
ENDBRANCH  29  31
ENDBRANCH  27  29
ENDBRANCH  11  27
ENDBRANCH   2   3
TORSDOF 9
ENDMDL
MODEL      272
REMARK 921   NORMALIZED FREE ENERGY PREDICTED BY IDOCK:    5.45 KCAL/MOL
REMARK 922        TOTAL FREE ENERGY PREDICTED BY IDOCK:    7.35 KCAL/MOL
REMARK 923 INTER-LIGAND FREE ENERGY PREDICTED BY IDOCK:    3.44 KCAL/MOL
REMARK 924 INTRA-LIGAND FREE ENERGY PREDICTED BY IDOCK:    3.91 KCAL/MOL
REMARK 927      BINDING AFFINITY PREDICTED BY RF-SCORE:    0.00 PKD
ROOT
HETATM    1  C   UNL     1      -8.442  19.699  65.222  1.00  0.00     1.039 C  
HETATM    2  O   UNL     1      -8.820  18.383  64.828  1.00  0.00     2.803 OA 
ENDROOT
BRANCH   2   3
HETATM    3  C   UNL     1      -8.849  17.496  65.883  1.00  0.00     0.094 A  
HETATM    4  C   UNL     1      -9.998  16.762  66.044  1.00  0.00    -0.334 A  
HETATM    5  C   UNL     1     -10.033  15.795  67.055  1.00  0.00    -0.240 A  
HETATM    6  C   UNL     1      -8.835  15.485  67.777  1.00  0.00    -0.173 A  
HETATM    7  C   UNL     1     -11.382  15.231  67.416  1.00  0.00    -0.285 C  
HETATM    8  C   UNL     1      -8.554  14.329  68.584  1.00  0.00    -0.149 A  
HETATM    9  C   UNL     1      -7.490  14.351  69.504  1.00  0.00     0.033 A  
HETATM   10  C   UNL     1      -7.807  16.455  67.669  1.00  0.00    -0.143 A  
HETATM   11  C   UNL     1      -6.734  16.463  68.583  1.00  0.00    -0.145 A  
HETATM   12  N   UNL     1      -7.810  17.420  66.727  1.00  0.00    -0.218 NA 
HETATM   13  C   UNL     1      -6.614  15.433  69.515  1.00  0.00    -0.166 A  
BRANCH   8  14
HETATM   14  O   UNL     1      -9.237  13.132  68.502  1.00  0.00    -0.165 OA 
BRANCH  14  15
HETATM   15  C   UNL     1      -9.739  12.615  67.325  1.00  0.00    -0.207 A  
HETATM   16  C   UNL     1     -10.324  11.351  67.483  1.00  0.00    -0.224 A  
HETATM   17  C   UNL     1     -11.133  10.812  66.485  1.00  0.00    -0.061 A  
HETATM   18  F   UNL     1     -11.446  14.903  64.287  1.00  0.00    -0.328 F  
HETATM   19  F   UNL     1     -12.174  13.158  63.229  1.00  0.00    -0.577 F  
HETATM   20  C   UNL     1     -11.373  11.542  65.325  1.00  0.00    -0.150 A  
HETATM   21  C   UNL     1      -9.842  13.265  66.092  1.00  0.00    -0.286 A  
HETATM   22  C   UNL     1     -11.103  13.634  63.927  1.00  0.00     0.042 C  
HETATM   23  F   UNL     1     -10.093  13.757  63.026  1.00  0.00     2.457 F  
HETATM   24  C   UNL     1     -10.739  12.778  65.118  1.00  0.00    -0.319 A  
ENDBRANCH  14  15
ENDBRANCH   8  14
BRANCH   9  25
HETATM   25  O   UNL     1      -7.131  13.377  70.400  1.00  0.00     0.760 OA 
HETATM   26  C   UNL     1      -6.452  13.779  71.583  1.00  0.00     1.348 C  
ENDBRANCH   9  25
BRANCH  11  27
HETATM   27  N   UNL     1      -5.762  17.483  68.485  1.00  0.00    -0.155 NA 
HETATM   28  H   UNL     1      -4.812  17.238  68.207  1.00  0.00     0.000 HD 
BRANCH  27  29
HETATM   29  C   UNL     1      -6.083  18.882  68.773  1.00  0.00    -0.223 C  
HETATM   30  C   UNL     1      -5.193  19.755  67.884  1.00  0.00    -0.184 C  
BRANCH  29  31
HETATM   31  C   UNL     1      -7.563  19.179  68.468  1.00  0.00    -0.369 C  
BRANCH  31  32
HETATM   32  C   UNL     1      -8.478  19.248  69.695  1.00  0.00     0.441 C  
BRANCH  32  33
HETATM   33  C   UNL     1      -9.982  19.254  69.401  1.00  0.00    -0.087 C  
HETATM   34  N   UNL     1     -10.264  19.222  67.965  1.00  0.00    -0.388 NA 
HETATM   35  H1  UNL     1     -11.265  19.226  67.768  1.00  0.00     0.000 HD 
HETATM   36  H2  UNL     1      -9.804  18.430  67.516  1.00  0.00     0.000 HD 
ENDBRANCH  32  33
ENDBRANCH  31  32
ENDBRANCH  29  31
ENDBRANCH  27  29
ENDBRANCH  11  27
ENDBRANCH   2   3
TORSDOF 9
ENDMDL
MODEL      273
REMARK 921   NORMALIZED FREE ENERGY PREDICTED BY IDOCK:    5.51 KCAL/MOL
REMARK 922        TOTAL FREE ENERGY PREDICTED BY IDOCK:    7.45 KCAL/MOL
REMARK 923 INTER-LIGAND FREE ENERGY PREDICTED BY IDOCK:    5.11 KCAL/MOL
REMARK 924 INTRA-LIGAND FREE ENERGY PREDICTED BY IDOCK:    2.33 KCAL/MOL
REMARK 927      BINDING AFFINITY PREDICTED BY RF-SCORE:    0.00 PKD
ROOT
HETATM    1  C   UNL     1      -6.799   9.100  65.298  1.00  0.00    -0.077 C  
HETATM    2  O   UNL     1      -6.041   9.551  66.416  1.00  0.00    -0.058 OA 
ENDROOT
BRANCH   2   3
HETATM    3  C   UNL     1      -6.608   9.203  67.623  1.00  0.00    -0.064 A  
HETATM    4  C   UNL     1      -7.729   8.411  67.575  1.00  0.00    -0.099 A  
HETATM    5  C   UNL     1      -8.284   7.971  68.783  1.00  0.00    -0.126 A  
HETATM    6  C   UNL     1      -7.589   8.217  70.010  1.00  0.00    -0.072 A  
HETATM    7  C   UNL     1      -9.667   7.377  68.723  1.00  0.00    -0.149 C  
HETATM    8  C   UNL     1      -7.779   7.581  71.285  1.00  0.00    -0.085 A  
HETATM    9  C   UNL     1      -7.280   8.182  72.456  1.00  0.00    -0.101 A  
HETATM   10  C   UNL     1      -6.590   9.220  69.938  1.00  0.00    -0.049 A  
HETATM   11  C   UNL     1      -6.081   9.807  71.114  1.00  0.00    -0.038 A  
HETATM   12  N   UNL     1      -6.100   9.680  68.769  1.00  0.00    -0.042 NA 
HETATM   13  C   UNL     1      -6.465   9.307  72.357  1.00  0.00     0.288 A  
BRANCH   8  14
HETATM   14  O   UNL     1      -8.395   6.359  71.467  1.00  0.00    -0.123 OA 
BRANCH  14  15
HETATM   15  C   UNL     1      -8.555   5.424  70.464  1.00  0.00    -0.122 A  
HETATM   16  C   UNL     1      -9.848   4.888  70.411  1.00  0.00    -0.302 A  
HETATM   17  C   UNL     1     -10.274   4.164  69.300  1.00  0.00     0.396 A  
HETATM   18  F   UNL     1      -6.637   5.588  66.766  1.00  0.00    -0.048 F  
HETATM   19  F   UNL     1      -7.845   3.988  65.944  1.00  0.00    -0.086 F  
HETATM   20  C   UNL     1      -9.409   3.984  68.224  1.00  0.00    -0.216 A  
HETATM   21  C   UNL     1      -7.638   5.094  69.463  1.00  0.00    -0.065 A  
HETATM   22  C   UNL     1      -7.190   4.381  67.074  1.00  0.00    -0.069 C  
HETATM   23  F   UNL     1      -6.151   3.517  67.225  1.00  0.00    -0.025 F  
HETATM   24  C   UNL     1      -8.086   4.453  68.289  1.00  0.00    -0.082 A  
ENDBRANCH  14  15
ENDBRANCH   8  14
BRANCH   9  25
HETATM   25  O   UNL     1      -7.435   7.759  73.751  1.00  0.00    -0.113 OA 
HETATM   26  C   UNL     1      -6.796   6.549  74.136  1.00  0.00    -0.077 C  
ENDBRANCH   9  25
BRANCH  11  27
HETATM   27  N   UNL     1      -5.134  10.848  71.002  1.00  0.00    -0.095 NA 
HETATM   28  H   UNL     1      -4.140  10.619  71.015  1.00  0.00     0.000 HD 
BRANCH  27  29
HETATM   29  C   UNL     1      -5.541  12.248  70.869  1.00  0.00    -0.099 C  
HETATM   30  C   UNL     1      -6.551  12.330  69.722  1.00  0.00     0.032 C  
BRANCH  29  31
HETATM   31  C   UNL     1      -6.196  12.754  72.168  1.00  0.00     2.629 C  
BRANCH  31  32
HETATM   32  C   UNL     1      -5.268  13.542  73.099  1.00  0.00    -0.046 C  
BRANCH  32  33
HETATM   33  C   UNL     1      -5.830  14.864  73.631  1.00  0.00     0.641 C  
HETATM   34  N   UNL     1      -6.795  15.466  72.709  1.00  0.00     3.657 NA 
HETATM   35  H1  UNL     1      -7.170  16.346  73.062  1.00  0.00     0.000 HD 
HETATM   36  H2  UNL     1      -7.544  14.812  72.480  1.00  0.00     0.000 HD 
ENDBRANCH  32  33
ENDBRANCH  31  32
ENDBRANCH  29  31
ENDBRANCH  27  29
ENDBRANCH  11  27
ENDBRANCH   2   3
TORSDOF 9
ENDMDL
MODEL      274
REMARK 921   NORMALIZED FREE ENERGY PREDICTED BY IDOCK:    5.82 KCAL/MOL
REMARK 922        TOTAL FREE ENERGY PREDICTED BY IDOCK:    7.91 KCAL/MOL
REMARK 923 INTER-LIGAND FREE ENERGY PREDICTED BY IDOCK:    1.82 KCAL/MOL
REMARK 924 INTRA-LIGAND FREE ENERGY PREDICTED BY IDOCK:    6.09 KCAL/MOL
REMARK 927      BINDING AFFINITY PREDICTED BY RF-SCORE:    0.00 PKD
ROOT
HETATM    1  C   UNL     1     -13.614  11.583  73.139  1.00  0.00     3.478 C  
HETATM    2  O   UNL     1     -13.906  10.684  72.073  1.00  0.00    -0.064 OA 
ENDROOT
BRANCH   2   3
HETATM    3  C   UNL     1     -12.848  10.521  71.206  1.00  0.00    -0.431 A  
HETATM    4  C   UNL     1     -12.539   9.235  70.840  1.00  0.00    -0.161 A  
HETATM    5  C   UNL     1     -11.522   9.037  69.898  1.00  0.00     0.070 A  
HETATM    6  C   UNL     1     -10.951  10.167  69.230  1.00  0.00    -0.279 A  
HETATM    7  C   UNL     1     -10.992   7.635  69.748  1.00  0.00    -0.178 C  
HETATM    8  C   UNL     1     -10.173  10.189  68.020  1.00  0.00    -0.173 A  
HETATM    9  C   UNL     1      -9.391  11.314  67.702  1.00  0.00    -0.160 A  
HETATM   10  C   UNL     1     -11.193  11.415  69.856  1.00  0.00    -0.143 A  
HETATM   11  C   UNL     1     -10.418  12.545  69.522  1.00  0.00     0.547 A  
HETATM   12  N   UNL     1     -12.137  11.585  70.804  1.00  0.00    -0.354 NA 
HETATM   13  C   UNL     1      -9.499  12.466  68.477  1.00  0.00    -0.101 A  
BRANCH   8  14
HETATM   14  O   UNL     1     -10.159   9.177  67.080  1.00  0.00    -0.199 OA 
BRANCH  14  15
HETATM   15  C   UNL     1      -9.512   7.971  67.262  1.00  0.00    -0.155 A  
HETATM   16  C   UNL     1     -10.390   6.900  67.475  1.00  0.00    -0.277 A  
HETATM   17  C   UNL     1      -9.942   5.584  67.383  1.00  0.00    -0.189 A  
HETATM   18  F   UNL     1      -5.960   6.897  65.362  1.00  0.00    -0.032 F  
HETATM   19  F   UNL     1      -6.095   4.840  66.029  1.00  0.00    -0.023 F  
HETATM   20  C   UNL     1      -8.611   5.331  67.063  1.00  0.00    -0.105 A  
HETATM   21  C   UNL     1      -8.146   7.715  67.114  1.00  0.00    -0.118 A  
HETATM   22  C   UNL     1      -6.293   6.126  66.435  1.00  0.00    -0.045 C  
HETATM   23  F   UNL     1      -5.348   6.370  67.382  1.00  0.00    -0.004 F  
HETATM   24  C   UNL     1      -7.701   6.390  66.917  1.00  0.00    -0.100 A  
ENDBRANCH  14  15
ENDBRANCH   8  14
BRANCH   9  25
HETATM   25  O   UNL     1      -8.537  11.474  66.641  1.00  0.00    -0.168 OA 
HETATM   26  C   UNL     1      -7.178  11.780  66.922  1.00  0.00    -0.103 C  
ENDBRANCH   9  25
BRANCH  11  27
HETATM   27  N   UNL     1     -10.645  13.756  70.211  1.00  0.00     0.351 NA 
HETATM   28  H   UNL     1      -9.845  14.314  70.510  1.00  0.00     0.000 HD 
BRANCH  27  29
HETATM   29  C   UNL     1     -11.997  14.230  70.509  1.00  0.00    -0.331 C  
HETATM   30  C   UNL     1     -12.926  13.704  69.412  1.00  0.00     1.077 C  
BRANCH  29  31
HETATM   31  C   UNL     1     -12.472  13.707  71.878  1.00  0.00    -0.152 C  
BRANCH  31  32
HETATM   32  C   UNL     1     -12.451  14.741  73.011  1.00  0.00    -0.451 C  
BRANCH  32  33
HETATM   33  C   UNL     1     -12.488  16.207  72.570  1.00  0.00    -0.437 C  
HETATM   34  N   UNL     1     -13.852  16.676  72.320  1.00  0.00     1.235 NA 
HETATM   35  H1  UNL     1     -13.877  17.653  72.027  1.00  0.00     0.000 HD 
HETATM   36  H2  UNL     1     -14.451  16.520  73.131  1.00  0.00     0.000 HD 
ENDBRANCH  32  33
ENDBRANCH  31  32
ENDBRANCH  29  31
ENDBRANCH  27  29
ENDBRANCH  11  27
ENDBRANCH   2   3
TORSDOF 9
ENDMDL
MODEL      275
REMARK 921   NORMALIZED FREE ENERGY PREDICTED BY IDOCK:    5.94 KCAL/MOL
REMARK 922        TOTAL FREE ENERGY PREDICTED BY IDOCK:    8.10 KCAL/MOL
REMARK 923 INTER-LIGAND FREE ENERGY PREDICTED BY IDOCK:    5.24 KCAL/MOL
REMARK 924 INTRA-LIGAND FREE ENERGY PREDICTED BY IDOCK:    2.86 KCAL/MOL
REMARK 927      BINDING AFFINITY PREDICTED BY RF-SCORE:    0.00 PKD
ROOT
HETATM    1  C   UNL     1      -7.267  17.553  70.770  1.00  0.00     3.515 C  
HETATM    2  O   UNL     1      -8.345  16.630  70.642  1.00  0.00     2.946 OA 
ENDROOT
BRANCH   2   3
HETATM    3  C   UNL     1      -7.977  15.461  70.011  1.00  0.00     0.288 A  
HETATM    4  C   UNL     1      -7.062  14.668  70.659  1.00  0.00     0.603 A  
HETATM    5  C   UNL     1      -6.727  13.436  70.086  1.00  0.00     0.328 A  
HETATM    6  C   UNL     1      -7.453  12.967  68.945  1.00  0.00     0.014 A  
HETATM    7  C   UNL     1      -5.512  12.735  70.636  1.00  0.00    -0.170 C  
HETATM    8  C   UNL     1      -7.522  11.631  68.419  1.00  0.00    -0.107 A  
HETATM    9  C   UNL     1      -7.973  11.411  67.105  1.00  0.00    -0.156 A  
HETATM   10  C   UNL     1      -8.192  13.963  68.259  1.00  0.00    -0.158 A  
HETATM   11  C   UNL     1      -8.656  13.732  66.948  1.00  0.00    -0.109 A  
HETATM   12  N   UNL     1      -8.463  15.170  68.795  1.00  0.00    -0.169 NA 
HETATM   13  C   UNL     1      -8.503  12.471  66.374  1.00  0.00     0.190 A  
BRANCH   8  14
HETATM   14  O   UNL     1      -7.212  10.491  69.134  1.00  0.00    -0.078 OA 
BRANCH  14  15
HETATM   15  C   UNL     1      -7.039   9.248  68.558  1.00  0.00    -0.071 A  
HETATM   16  C   UNL     1      -6.222   9.276  67.421  1.00  0.00    -0.058 A  
HETATM   17  C   UNL     1      -5.701   8.099  66.890  1.00  0.00    -0.041 A  
HETATM   18  F   UNL     1      -6.852   5.671  70.691  1.00  0.00    -0.044 F  
HETATM   19  F   UNL     1      -6.213   4.541  68.956  1.00  0.00    -0.026 F  
HETATM   20  C   UNL     1      -5.986   6.882  67.504  1.00  0.00    -0.028 A  
HETATM   21  C   UNL     1      -7.462   8.016  69.065  1.00  0.00    -0.093 A  
HETATM   22  C   UNL     1      -7.063   5.531  69.352  1.00  0.00    -0.064 C  
HETATM   23  F   UNL     1      -8.318   5.024  69.219  1.00  0.00    -0.081 F  
HETATM   24  C   UNL     1      -6.861   6.827  68.600  1.00  0.00    -0.066 A  
ENDBRANCH  14  15
ENDBRANCH   8  14
BRANCH   9  25
HETATM   25  O   UNL     1      -8.029  10.223  66.421  1.00  0.00    -0.114 OA 
HETATM   26  C   UNL     1      -8.167  10.276  65.007  1.00  0.00    -0.154 C  
ENDBRANCH   9  25
BRANCH  11  27
HETATM   27  N   UNL     1      -9.334  14.770  66.271  1.00  0.00    -0.378 NA 
HETATM   28  H   UNL     1      -8.884  15.681  66.181  1.00  0.00     0.000 HD 
BRANCH  27  29
HETATM   29  C   UNL     1     -10.665  14.573  65.696  1.00  0.00    -0.327 C  
HETATM   30  C   UNL     1     -10.631  15.097  64.258  1.00  0.00     0.635 C  
BRANCH  29  31
HETATM   31  C   UNL     1     -11.042  13.080  65.689  1.00  0.00    -0.301 C  
BRANCH  31  32
HETATM   32  C   UNL     1     -12.166  12.690  66.656  1.00  0.00    -0.085 C  
BRANCH  32  33
HETATM   33  C   UNL     1     -12.167  13.422  68.001  1.00  0.00    -0.100 C  
HETATM   34  N   UNL     1     -11.815  12.537  69.113  1.00  0.00    -0.306 NA 
HETATM   35  H1  UNL     1     -11.816  13.025  70.009  1.00  0.00     0.000 HD 
HETATM   36  H2  UNL     1     -10.923  12.072  68.947  1.00  0.00     0.000 HD 
ENDBRANCH  32  33
ENDBRANCH  31  32
ENDBRANCH  29  31
ENDBRANCH  27  29
ENDBRANCH  11  27
ENDBRANCH   2   3
TORSDOF 9
ENDMDL
MODEL      276
REMARK 921   NORMALIZED FREE ENERGY PREDICTED BY IDOCK:    5.95 KCAL/MOL
REMARK 922        TOTAL FREE ENERGY PREDICTED BY IDOCK:    8.12 KCAL/MOL
REMARK 923 INTER-LIGAND FREE ENERGY PREDICTED BY IDOCK:   -2.56 KCAL/MOL
REMARK 924 INTRA-LIGAND FREE ENERGY PREDICTED BY IDOCK:   10.68 KCAL/MOL
REMARK 927      BINDING AFFINITY PREDICTED BY RF-SCORE:    0.00 PKD
ROOT
HETATM    1  C   UNL     1      -6.813   9.098  65.306  1.00  0.00    -0.077 C  
HETATM    2  O   UNL     1      -6.145   9.538  66.485  1.00  0.00    -0.058 OA 
ENDROOT
BRANCH   2   3
HETATM    3  C   UNL     1      -6.794   9.160  67.641  1.00  0.00    -0.077 A  
HETATM    4  C   UNL     1      -7.896   8.354  67.498  1.00  0.00    -0.099 A  
HETATM    5  C   UNL     1      -8.531   7.885  68.653  1.00  0.00    -0.128 A  
HETATM    6  C   UNL     1      -7.932   8.119  69.933  1.00  0.00    -0.109 A  
HETATM    7  C   UNL     1      -9.898   7.273  68.482  1.00  0.00    -0.159 C  
HETATM    8  C   UNL     1      -8.205   7.458  71.180  1.00  0.00    -0.106 A  
HETATM    9  C   UNL     1      -7.803   8.044  72.394  1.00  0.00    -0.124 A  
HETATM   10  C   UNL     1      -6.946   9.137  69.951  1.00  0.00    -0.054 A  
HETATM   11  C   UNL     1      -6.533   9.710  71.171  1.00  0.00     0.000 A  
HETATM   12  N   UNL     1      -6.378   9.624  68.829  1.00  0.00    -0.046 NA 
HETATM   13  C   UNL     1      -7.000   9.182  72.374  1.00  0.00     0.355 A  
BRANCH   8  14
HETATM   14  O   UNL     1      -8.815   6.225  71.295  1.00  0.00    -0.138 OA 
BRANCH  14  15
HETATM   15  C   UNL     1     -10.134   6.053  71.663  1.00  0.00    -0.190 A  
HETATM   16  C   UNL     1     -10.312   5.052  72.628  1.00  0.00    -0.249 A  
HETATM   17  C   UNL     1     -11.512   4.942  73.326  1.00  0.00    -0.359 A  
HETATM   18  F   UNL     1     -12.937   9.131  71.881  1.00  0.00    -0.340 F  
HETATM   19  F   UNL     1     -14.405   7.875  72.862  1.00  0.00    -0.059 F  
HETATM   20  C   UNL     1     -12.541   5.845  73.072  1.00  0.00     0.929 A  
HETATM   21  C   UNL     1     -11.225   6.843  71.291  1.00  0.00    -0.306 A  
HETATM   22  C   UNL     1     -13.464   7.874  71.875  1.00  0.00    -0.286 C  
HETATM   23  F   UNL     1     -14.146   7.756  70.705  1.00  0.00    -0.209 F  
HETATM   24  C   UNL     1     -12.408   6.808  72.059  1.00  0.00    -0.311 A  
ENDBRANCH  14  15
ENDBRANCH   8  14
BRANCH   9  25
HETATM   25  O   UNL     1      -8.046   7.597  73.667  1.00  0.00    -0.127 OA 
HETATM   26  C   UNL     1      -8.569   6.284  73.821  1.00  0.00    -0.123 C  
ENDBRANCH   9  25
BRANCH  11  27
HETATM   27  N   UNL     1      -5.596  10.766  71.147  1.00  0.00    -0.285 NA 
HETATM   28  H   UNL     1      -4.910  10.838  71.898  1.00  0.00     0.000 HD 
BRANCH  27  29
HETATM   29  C   UNL     1      -5.583  11.759  70.072  1.00  0.00    -0.121 C  
HETATM   30  C   UNL     1      -5.577  11.003  68.741  1.00  0.00    -0.039 C  
BRANCH  29  31
HETATM   31  C   UNL     1      -6.830  12.660  70.144  1.00  0.00     0.720 C  
BRANCH  31  32
HETATM   32  C   UNL     1      -6.542  14.165  70.188  1.00  0.00    -0.034 C  
BRANCH  32  33
HETATM   33  C   UNL     1      -7.364  15.025  69.223  1.00  0.00    -0.184 C  
HETATM   34  N   UNL     1      -7.271  16.453  69.538  1.00  0.00    -0.169 NA 
HETATM   35  H1  UNL     1      -7.818  17.026  68.896  1.00  0.00     0.000 HD 
HETATM   36  H2  UNL     1      -6.300  16.761  69.570  1.00  0.00     0.000 HD 
ENDBRANCH  32  33
ENDBRANCH  31  32
ENDBRANCH  29  31
ENDBRANCH  27  29
ENDBRANCH  11  27
ENDBRANCH   2   3
TORSDOF 9
ENDMDL
MODEL      277
REMARK 921   NORMALIZED FREE ENERGY PREDICTED BY IDOCK:   10.99 KCAL/MOL
REMARK 922        TOTAL FREE ENERGY PREDICTED BY IDOCK:   15.80 KCAL/MOL
REMARK 923 INTER-LIGAND FREE ENERGY PREDICTED BY IDOCK:   12.66 KCAL/MOL
REMARK 924 INTRA-LIGAND FREE ENERGY PREDICTED BY IDOCK:    3.14 KCAL/MOL
REMARK 927      BINDING AFFINITY PREDICTED BY RF-SCORE:    0.00 PKD
ROOT
HETATM    1  C   UNL     1      -6.710  17.200  71.688  1.00  0.00     4.658 C  
HETATM    2  O   UNL     1      -7.798  16.295  71.523  1.00  0.00     5.455 OA 
ENDROOT
BRANCH   2   3
HETATM    3  C   UNL     1      -7.425  15.113  70.920  1.00  0.00     1.552 A  
HETATM    4  C   UNL     1      -6.604  14.281  71.641  1.00  0.00     1.126 A  
HETATM    5  C   UNL     1      -6.271  13.038  71.093  1.00  0.00     0.854 A  
HETATM    6  C   UNL     1      -6.913  12.602  69.889  1.00  0.00     0.529 A  
HETATM    7  C   UNL     1      -5.138  12.285  71.742  1.00  0.00     0.000 C  
HETATM    8  C   UNL     1      -6.990  11.271  69.351  1.00  0.00    -0.109 A  
HETATM    9  C   UNL     1      -7.333  11.073  68.001  1.00  0.00    -0.088 A  
HETATM   10  C   UNL     1      -7.547  13.630  69.147  1.00  0.00     0.140 A  
HETATM   11  C   UNL     1      -7.904  13.421  67.799  1.00  0.00    -0.158 A  
HETATM   12  N   UNL     1      -7.814  14.846  69.665  1.00  0.00    -0.110 NA 
HETATM   13  C   UNL     1      -7.753  12.156  67.234  1.00  0.00    -0.168 A  
BRANCH   8  14
HETATM   14  O   UNL     1      -6.792  10.117  70.084  1.00  0.00    -0.115 OA 
BRANCH  14  15
HETATM   15  C   UNL     1      -6.637   8.868  69.519  1.00  0.00    -0.044 A  
HETATM   16  C   UNL     1      -5.750   8.859  68.435  1.00  0.00    -0.038 A  
HETATM   17  C   UNL     1      -5.248   7.659  67.936  1.00  0.00    -0.030 A  
HETATM   18  F   UNL     1      -6.737   5.289  71.656  1.00  0.00    -0.040 F  
HETATM   19  F   UNL     1      -6.040   4.130  69.962  1.00  0.00    -0.016 F  
HETATM   20  C   UNL     1      -5.623   6.457  68.529  1.00  0.00    -0.012 A  
HETATM   21  C   UNL     1      -7.143   7.656  69.996  1.00  0.00    -0.059 A  
HETATM   22  C   UNL     1      -6.870   5.156  70.306  1.00  0.00    -0.044 C  
HETATM   23  F   UNL     1      -8.134   4.703  70.094  1.00  0.00    -0.064 F  
HETATM   24  C   UNL     1      -6.566   6.441  69.570  1.00  0.00    -0.048 A  
ENDBRANCH  14  15
ENDBRANCH   8  14
BRANCH   9  25
HETATM   25  O   UNL     1      -7.378   9.890  67.309  1.00  0.00    -0.086 OA 
HETATM   26  C   UNL     1      -8.512   9.644  66.487  1.00  0.00    -0.123 C  
ENDBRANCH   9  25
BRANCH  11  27
HETATM   27  N   UNL     1      -8.475  14.488  67.072  1.00  0.00    -0.298 NA 
HETATM   28  H   UNL     1      -7.990  15.384  67.040  1.00  0.00     0.000 HD 
BRANCH  27  29
HETATM   29  C   UNL     1      -9.747  14.341  66.362  1.00  0.00    -0.299 C  
HETATM   30  C   UNL     1     -10.290  12.942  66.668  1.00  0.00    -0.258 C  
BRANCH  29  31
HETATM   31  C   UNL     1     -10.762  15.399  66.832  1.00  0.00    -0.314 C  
BRANCH  31  32
HETATM   32  C   UNL     1     -11.113  16.469  65.792  1.00  0.00     0.139 C  
BRANCH  32  33
HETATM   33  C   UNL     1      -9.921  17.192  65.157  1.00  0.00     0.872 C  
HETATM   34  N   UNL     1      -9.834  18.592  65.579  1.00  0.00    -0.139 NA 
HETATM   35  H1  UNL     1      -9.040  19.073  65.157  1.00  0.00     0.000 HD 
HETATM   36  H2  UNL     1      -9.814  18.670  66.596  1.00  0.00     0.000 HD 
ENDBRANCH  32  33
ENDBRANCH  31  32
ENDBRANCH  29  31
ENDBRANCH  27  29
ENDBRANCH  11  27
ENDBRANCH   2   3
TORSDOF 9
ENDMDL
MODEL      278
REMARK 921   NORMALIZED FREE ENERGY PREDICTED BY IDOCK:   11.24 KCAL/MOL
REMARK 922        TOTAL FREE ENERGY PREDICTED BY IDOCK:   16.19 KCAL/MOL
REMARK 923 INTER-LIGAND FREE ENERGY PREDICTED BY IDOCK:   14.33 KCAL/MOL
REMARK 924 INTRA-LIGAND FREE ENERGY PREDICTED BY IDOCK:    1.86 KCAL/MOL
REMARK 927      BINDING AFFINITY PREDICTED BY RF-SCORE:    0.00 PKD
ROOT
HETATM    1  C   UNL     1     -12.595  14.031  66.789  1.00  0.00    -0.032 C  
HETATM    2  O   UNL     1     -13.355  12.827  66.743  1.00  0.00     2.065 OA 
ENDROOT
BRANCH   2   3
HETATM    3  C   UNL     1     -12.700  11.759  67.317  1.00  0.00     2.968 A  
HETATM    4  C   UNL     1     -12.243  10.782  66.468  1.00  0.00     3.094 A  
HETATM    5  C   UNL     1     -11.504   9.724  67.009  1.00  0.00     1.149 A  
HETATM    6  C   UNL     1     -11.109   9.769  68.385  1.00  0.00    -0.142 A  
HETATM    7  C   UNL     1     -11.285   8.521  66.128  1.00  0.00     2.926 C  
HETATM    8  C   UNL     1     -10.090   9.000  69.046  1.00  0.00    -0.195 A  
HETATM    9  C   UNL     1     -10.077   8.902  70.449  1.00  0.00    -0.196 A  
HETATM   10  C   UNL     1     -11.828  10.696  69.180  1.00  0.00    -0.215 A  
HETATM   11  C   UNL     1     -11.799  10.604  70.586  1.00  0.00    -0.363 A  
HETATM   12  N   UNL     1     -12.584  11.679  68.651  1.00  0.00     0.103 NA 
HETATM   13  C   UNL     1     -10.955   9.680  71.200  1.00  0.00    -0.430 A  
BRANCH   8  14
HETATM   14  O   UNL     1      -9.051   8.358  68.402  1.00  0.00    -0.136 OA 
BRANCH  14  15
HETATM   15  C   UNL     1      -8.208   8.977  67.502  1.00  0.00    -0.109 A  
HETATM   16  C   UNL     1      -7.401   9.960  68.089  1.00  0.00    -0.080 A  
HETATM   17  C   UNL     1      -6.299  10.475  67.411  1.00  0.00    -0.058 A  
HETATM   18  F   UNL     1      -6.454   7.081  64.229  1.00  0.00    -0.037 F  
HETATM   19  F   UNL     1      -5.145   8.758  63.818  1.00  0.00    -0.052 F  
HETATM   20  C   UNL     1      -5.988   9.997  66.141  1.00  0.00    -0.068 A  
HETATM   21  C   UNL     1      -7.995   8.629  66.166  1.00  0.00    -0.106 A  
HETATM   22  C   UNL     1      -6.418   8.442  64.191  1.00  0.00    -0.067 C  
HETATM   23  F   UNL     1      -7.216   8.812  63.154  1.00  0.00    -0.093 F  
HETATM   24  C   UNL     1      -6.825   9.065  65.508  1.00  0.00    -0.073 A  
ENDBRANCH  14  15
ENDBRANCH   8  14
BRANCH   9  25
HETATM   25  O   UNL     1      -9.235   8.157  71.234  1.00  0.00    -0.143 OA 
HETATM   26  C   UNL     1      -8.056   8.782  71.724  1.00  0.00    -0.065 C  
ENDBRANCH   9  25
BRANCH  11  27
HETATM   27  N   UNL     1     -12.578  11.505  71.345  1.00  0.00    -0.348 NA 
HETATM   28  H   UNL     1     -12.718  12.454  70.999  1.00  0.00     0.000 HD 
BRANCH  27  29
HETATM   29  C   UNL     1     -13.187  11.113  72.617  1.00  0.00     1.173 C  
HETATM   30  C   UNL     1     -13.990  12.308  73.136  1.00  0.00     2.740 C  
BRANCH  29  31
HETATM   31  C   UNL     1     -14.127   9.908  72.424  1.00  0.00     0.143 C  
BRANCH  31  32
HETATM   32  C   UNL     1     -14.317   9.457  70.971  1.00  0.00     0.312 C  
BRANCH  32  33
HETATM   33  C   UNL     1     -13.418   8.305  70.513  1.00  0.00     1.060 C  
HETATM   34  N   UNL     1     -13.821   7.023  71.094  1.00  0.00    -0.395 NA 
HETATM   35  H1  UNL     1     -13.223   6.255  70.789  1.00  0.00     0.000 HD 
HETATM   36  H2  UNL     1     -14.803   6.823  70.902  1.00  0.00     0.000 HD 
ENDBRANCH  32  33
ENDBRANCH  31  32
ENDBRANCH  29  31
ENDBRANCH  27  29
ENDBRANCH  11  27
ENDBRANCH   2   3
TORSDOF 9
ENDMDL
MODEL      279
REMARK 921   NORMALIZED FREE ENERGY PREDICTED BY IDOCK:   11.46 KCAL/MOL
REMARK 922        TOTAL FREE ENERGY PREDICTED BY IDOCK:   16.53 KCAL/MOL
REMARK 923 INTER-LIGAND FREE ENERGY PREDICTED BY IDOCK:   14.45 KCAL/MOL
REMARK 924 INTRA-LIGAND FREE ENERGY PREDICTED BY IDOCK:    2.08 KCAL/MOL
REMARK 927      BINDING AFFINITY PREDICTED BY RF-SCORE:    0.00 PKD
ROOT
HETATM    1  C   UNL     1     -12.964  12.804  66.727  1.00  0.00     2.214 C  
HETATM    2  O   UNL     1     -12.939  13.963  65.898  1.00  0.00    -0.436 OA 
ENDROOT
BRANCH   2   3
HETATM    3  C   UNL     1     -11.704  14.574  65.870  1.00  0.00    -0.345 A  
HETATM    4  C   UNL     1     -11.691  15.947  65.902  1.00  0.00     0.667 A  
HETATM    5  C   UNL     1     -10.453  16.598  65.957  1.00  0.00    -0.306 A  
HETATM    6  C   UNL     1      -9.259  15.830  66.139  1.00  0.00    -0.385 A  
HETATM    7  C   UNL     1     -10.447  18.079  65.678  1.00  0.00    -0.101 C  
HETATM    8  C   UNL     1      -7.961  16.285  66.560  1.00  0.00    -0.291 A  
HETATM    9  C   UNL     1      -6.825  15.485  66.339  1.00  0.00     1.740 A  
HETATM   10  C   UNL     1      -9.392  14.446  65.864  1.00  0.00    -0.065 A  
HETATM   11  C   UNL     1      -8.251  13.645  65.660  1.00  0.00     2.953 A  
HETATM   12  N   UNL     1     -10.590  13.836  65.757  1.00  0.00    -0.286 NA 
HETATM   13  C   UNL     1      -6.983  14.187  65.860  1.00  0.00     6.214 A  
BRANCH   8  14
HETATM   14  O   UNL     1      -7.726  17.469  67.230  1.00  0.00    -0.194 OA 
BRANCH  14  15
HETATM   15  C   UNL     1      -7.522  17.552  68.593  1.00  0.00    -0.265 A  
HETATM   16  C   UNL     1      -7.481  16.300  69.221  1.00  0.00    -0.217 A  
HETATM   17  C   UNL     1      -6.997  16.171  70.521  1.00  0.00     1.253 A  
HETATM   18  F   UNL     1      -5.177  20.455  70.451  1.00  0.00    -0.239 F  
HETATM   19  F   UNL     1      -5.249  19.445  72.367  1.00  0.00    -0.209 F  
HETATM   20  C   UNL     1      -6.535  17.296  71.197  1.00  0.00     2.455 A  
HETATM   21  C   UNL     1      -7.222  18.697  69.335  1.00  0.00    -0.066 A  
HETATM   22  C   UNL     1      -6.011  19.770  71.284  1.00  0.00    -0.164 C  
HETATM   23  F   UNL     1      -6.926  20.673  71.726  1.00  0.00    -0.066 F  
HETATM   24  C   UNL     1      -6.635  18.569  70.611  1.00  0.00     1.050 A  
ENDBRANCH  14  15
ENDBRANCH   8  14
BRANCH   9  25
HETATM   25  O   UNL     1      -5.515  15.792  66.603  1.00  0.00     0.137 OA 
HETATM   26  C   UNL     1      -5.156  16.072  67.949  1.00  0.00    -0.126 C  
ENDBRANCH   9  25
BRANCH  11  27
HETATM   27  N   UNL     1      -8.424  12.284  65.325  1.00  0.00     0.572 NA 
HETATM   28  H   UNL     1      -7.975  11.918  64.485  1.00  0.00     0.000 HD 
BRANCH  27  29
HETATM   29  C   UNL     1      -9.230  11.384  66.152  1.00  0.00    -0.210 C  
HETATM   30  C   UNL     1      -9.571  10.156  65.304  1.00  0.00    -0.338 C  
BRANCH  29  31
HETATM   31  C   UNL     1      -8.448  10.943  67.403  1.00  0.00    -0.120 C  
BRANCH  31  32
HETATM   32  C   UNL     1      -9.057   9.761  68.166  1.00  0.00    -0.125 C  
BRANCH  32  33
HETATM   33  C   UNL     1      -8.057   8.848  68.881  1.00  0.00    -0.112 C  
HETATM   34  N   UNL     1      -8.661   7.578  69.290  1.00  0.00    -0.136 NA 
HETATM   35  H1  UNL     1      -7.995   6.970  69.767  1.00  0.00     0.000 HD 
HETATM   36  H2  UNL     1      -9.092   7.103  68.498  1.00  0.00     0.000 HD 
ENDBRANCH  32  33
ENDBRANCH  31  32
ENDBRANCH  29  31
ENDBRANCH  27  29
ENDBRANCH  11  27
ENDBRANCH   2   3
TORSDOF 9
ENDMDL
MODEL      280
REMARK 921   NORMALIZED FREE ENERGY PREDICTED BY IDOCK:   12.14 KCAL/MOL
REMARK 922        TOTAL FREE ENERGY PREDICTED BY IDOCK:   17.56 KCAL/MOL
REMARK 923 INTER-LIGAND FREE ENERGY PREDICTED BY IDOCK:   18.10 KCAL/MOL
REMARK 924 INTRA-LIGAND FREE ENERGY PREDICTED BY IDOCK:   -0.55 KCAL/MOL
REMARK 927      BINDING AFFINITY PREDICTED BY RF-SCORE:    0.00 PKD
ROOT
HETATM    1  C   UNL     1      -6.185  13.185  69.783  1.00  0.00    -0.108 C  
HETATM    2  O   UNL     1      -6.334  14.476  69.198  1.00  0.00    -0.091 OA 
ENDROOT
BRANCH   2   3
HETATM    3  C   UNL     1      -7.370  14.536  68.291  1.00  0.00    -0.120 A  
HETATM    4  C   UNL     1      -7.038  14.445  66.962  1.00  0.00     0.508 A  
HETATM    5  C   UNL     1      -8.071  14.420  66.018  1.00  0.00     1.949 A  
HETATM    6  C   UNL     1      -9.429  14.328  66.461  1.00  0.00    -0.306 A  
HETATM    7  C   UNL     1      -7.686  14.635  64.577  1.00  0.00    13.680 C  
HETATM    8  C   UNL     1     -10.591  13.950  65.703  1.00  0.00    -0.301 A  
HETATM    9  C   UNL     1     -11.878  14.259  66.180  1.00  0.00    -0.402 A  
HETATM   10  C   UNL     1      -9.635  14.657  67.824  1.00  0.00    -0.213 A  
HETATM   11  C   UNL     1     -10.929  14.949  68.302  1.00  0.00    -0.264 A  
HETATM   12  N   UNL     1      -8.627  14.733  68.717  1.00  0.00    -0.168 NA 
HETATM   13  C   UNL     1     -12.028  14.786  67.460  1.00  0.00    -0.239 A  
BRANCH   8  14
HETATM   14  O   UNL     1     -10.556  13.240  64.519  1.00  0.00    -0.379 OA 
BRANCH  14  15
HETATM   15  C   UNL     1     -10.118  11.936  64.419  1.00  0.00    -0.279 A  
HETATM   16  C   UNL     1     -10.341  11.373  63.155  1.00  0.00    -0.357 A  
HETATM   17  C   UNL     1      -9.710  10.189  62.782  1.00  0.00    -0.086 A  
HETATM   18  F   UNL     1      -6.761  10.424  66.376  1.00  0.00    -0.081 F  
HETATM   19  F   UNL     1      -6.810   8.567  65.261  1.00  0.00    -0.064 F  
HETATM   20  C   UNL     1      -8.837   9.565  63.669  1.00  0.00    -0.236 A  
HETATM   21  C   UNL     1      -9.382  11.217  65.365  1.00  0.00    -0.232 A  
HETATM   22  C   UNL     1      -7.611   9.481  65.881  1.00  0.00    -0.100 C  
HETATM   23  F   UNL     1      -8.140   8.846  66.960  1.00  0.00    -0.104 F  
HETATM   24  C   UNL     1      -8.657  10.074  64.965  1.00  0.00    -0.173 A  
ENDBRANCH  14  15
ENDBRANCH   8  14
BRANCH   9  25
HETATM   25  O   UNL     1     -13.081  14.044  65.557  1.00  0.00    -0.713 OA 
HETATM   26  C   UNL     1     -13.415  14.876  64.453  1.00  0.00     2.163 C  
ENDBRANCH   9  25
BRANCH  11  27
HETATM   27  N   UNL     1     -11.088  15.335  69.651  1.00  0.00    -0.257 NA 
HETATM   28  H   UNL     1     -10.574  16.144  70.000  1.00  0.00     0.000 HD 
BRANCH  27  29
HETATM   29  C   UNL     1     -11.969  14.603  70.561  1.00  0.00    -0.310 C  
HETATM   30  C   UNL     1     -11.147  13.483  71.204  1.00  0.00     2.304 C  
BRANCH  29  31
HETATM   31  C   UNL     1     -12.516  15.533  71.660  1.00  0.00    -0.473 C  
BRANCH  31  32
HETATM   32  C   UNL     1     -11.580  16.675  72.070  1.00  0.00    -0.070 C  
BRANCH  32  33
HETATM   33  C   UNL     1     -11.076  17.562  70.926  1.00  0.00     1.795 C  
HETATM   34  N   UNL     1     -10.403  18.767  71.416  1.00  0.00     1.833 NA 
HETATM   35  H1  UNL     1     -10.067  19.357  70.655  1.00  0.00     0.000 HD 
HETATM   36  H2  UNL     1      -9.648  18.532  72.060  1.00  0.00     0.000 HD 
ENDBRANCH  32  33
ENDBRANCH  31  32
ENDBRANCH  29  31
ENDBRANCH  27  29
ENDBRANCH  11  27
ENDBRANCH   2   3
TORSDOF 9
ENDMDL
MODEL      281
REMARK 921   NORMALIZED FREE ENERGY PREDICTED BY IDOCK:   13.79 KCAL/MOL
REMARK 922        TOTAL FREE ENERGY PREDICTED BY IDOCK:   20.07 KCAL/MOL
REMARK 923 INTER-LIGAND FREE ENERGY PREDICTED BY IDOCK:    9.33 KCAL/MOL
REMARK 924 INTRA-LIGAND FREE ENERGY PREDICTED BY IDOCK:   10.74 KCAL/MOL
REMARK 927      BINDING AFFINITY PREDICTED BY RF-SCORE:    0.00 PKD
ROOT
HETATM    1  C   UNL     1     -10.627  16.846  65.597  1.00  0.00    -0.221 C  
HETATM    2  O   UNL     1      -9.732  15.826  65.164  1.00  0.00    -0.326 OA 
ENDROOT
BRANCH   2   3
HETATM    3  C   UNL     1      -9.644  14.777  66.053  1.00  0.00    -0.301 A  
HETATM    4  C   UNL     1      -8.974  15.014  67.228  1.00  0.00    -0.212 A  
HETATM    5  C   UNL     1      -8.935  13.997  68.189  1.00  0.00    -0.183 A  
HETATM    6  C   UNL     1      -9.719  12.815  67.996  1.00  0.00    -0.220 A  
HETATM    7  C   UNL     1      -7.948  14.158  69.315  1.00  0.00     0.187 C  
HETATM    8  C   UNL     1     -10.099  11.828  68.971  1.00  0.00     0.018 A  
HETATM    9  C   UNL     1     -10.550  10.562  68.556  1.00  0.00    -0.206 A  
HETATM   10  C   UNL     1     -10.168  12.607  66.668  1.00  0.00    -0.236 A  
HETATM   11  C   UNL     1     -10.635  11.341  66.261  1.00  0.00    -0.263 A  
HETATM   12  N   UNL     1     -10.149  13.577  65.731  1.00  0.00    -0.293 NA 
HETATM   13  C   UNL     1     -10.780  10.324  67.204  1.00  0.00    -0.303 A  
BRANCH   8  14
HETATM   14  O   UNL     1     -10.103  12.037  70.336  1.00  0.00     2.518 OA 
BRANCH  14  15
HETATM   15  C   UNL     1     -10.541  13.202  70.932  1.00  0.00     4.130 A  
HETATM   16  C   UNL     1     -10.150  14.356  70.241  1.00  0.00     0.954 A  
HETATM   17  C   UNL     1     -10.739  15.587  70.521  1.00  0.00    -0.309 A  
HETATM   18  F   UNL     1     -14.162  13.590  72.962  1.00  0.00    -0.284 F  
HETATM   19  F   UNL     1     -13.983  15.745  73.098  1.00  0.00    -0.594 F  
HETATM   20  C   UNL     1     -11.737  15.669  71.488  1.00  0.00    -0.504 A  
HETATM   21  C   UNL     1     -11.414  13.320  72.017  1.00  0.00     3.276 A  
HETATM   22  C   UNL     1     -13.265  14.589  73.192  1.00  0.00    -0.377 C  
HETATM   23  F   UNL     1     -12.902  14.478  74.498  1.00  0.00     0.071 F  
HETATM   24  C   UNL     1     -12.091  14.537  72.241  1.00  0.00    -0.222 A  
ENDBRANCH  14  15
ENDBRANCH   8  14
BRANCH   9  25
HETATM   25  O   UNL     1     -10.877   9.486  69.341  1.00  0.00    -0.228 OA 
HETATM   26  C   UNL     1     -11.291   9.739  70.677  1.00  0.00    -0.330 C  
ENDBRANCH   9  25
BRANCH  11  27
HETATM   27  N   UNL     1     -11.014  11.154  64.914  1.00  0.00    -0.185 NA 
HETATM   28  H   UNL     1     -11.969  10.864  64.702  1.00  0.00     0.000 HD 
BRANCH  27  29
HETATM   29  C   UNL     1     -10.072  11.364  63.814  1.00  0.00    -0.362 C  
HETATM   30  C   UNL     1     -10.701  10.780  62.546  1.00  0.00     1.089 C  
BRANCH  29  31
HETATM   31  C   UNL     1      -9.798  12.865  63.606  1.00  0.00     0.710 C  
BRANCH  31  32
HETATM   32  C   UNL     1     -11.037  13.716  63.307  1.00  0.00     1.186 C  
BRANCH  32  33
HETATM   33  C   UNL     1     -12.264  13.429  64.177  1.00  0.00    -0.398 C  
HETATM   34  N   UNL     1     -13.497  13.954  63.586  1.00  0.00     1.748 NA 
HETATM   35  H1  UNL     1     -14.314  13.763  64.165  1.00  0.00     0.000 HD 
HETATM   36  H2  UNL     1     -13.628  13.606  62.636  1.00  0.00     0.000 HD 
ENDBRANCH  32  33
ENDBRANCH  31  32
ENDBRANCH  29  31
ENDBRANCH  27  29
ENDBRANCH  11  27
ENDBRANCH   2   3
TORSDOF 9
ENDMDL
MODEL      282
REMARK 921   NORMALIZED FREE ENERGY PREDICTED BY IDOCK:   17.38 KCAL/MOL
REMARK 922        TOTAL FREE ENERGY PREDICTED BY IDOCK:   25.55 KCAL/MOL
REMARK 923 INTER-LIGAND FREE ENERGY PREDICTED BY IDOCK:    0.97 KCAL/MOL
REMARK 924 INTRA-LIGAND FREE ENERGY PREDICTED BY IDOCK:   24.58 KCAL/MOL
REMARK 927      BINDING AFFINITY PREDICTED BY RF-SCORE:    0.00 PKD
ROOT
HETATM    1  C   UNL     1      -6.832   9.108  65.354  1.00  0.00    -0.073 C  
HETATM    2  O   UNL     1      -6.096   9.661  66.442  1.00  0.00    -0.058 OA 
ENDROOT
BRANCH   2   3
HETATM    3  C   UNL     1      -6.680   9.411  67.665  1.00  0.00    -0.068 A  
HETATM    4  C   UNL     1      -7.787   8.599  67.670  1.00  0.00    -0.103 A  
HETATM    5  C   UNL     1      -8.357   8.259  68.902  1.00  0.00    -0.127 A  
HETATM    6  C   UNL     1      -7.688   8.626  70.114  1.00  0.00    -0.081 A  
HETATM    7  C   UNL     1      -9.729   7.638  68.873  1.00  0.00    -0.156 C  
HETATM    8  C   UNL     1      -7.891   8.103  71.438  1.00  0.00    -0.101 A  
HETATM    9  C   UNL     1      -7.423   8.814  72.558  1.00  0.00     0.154 A  
HETATM   10  C   UNL     1      -6.704   9.635  69.969  1.00  0.00    -0.079 A  
HETATM   11  C   UNL     1      -6.226  10.334  71.096  1.00  0.00     0.148 A  
HETATM   12  N   UNL     1      -6.200   9.997  68.772  1.00  0.00    -0.041 NA 
HETATM   13  C   UNL     1      -6.624   9.939  72.372  1.00  0.00     1.274 A  
BRANCH   8  14
HETATM   14  O   UNL     1      -8.491   6.891  71.718  1.00  0.00    -0.116 OA 
BRANCH  14  15
HETATM   15  C   UNL     1      -9.461   6.315  70.923  1.00  0.00    -0.172 A  
HETATM   16  C   UNL     1     -10.551   5.821  71.653  1.00  0.00    -0.302 A  
HETATM   17  C   UNL     1     -11.740   5.479  71.013  1.00  0.00     0.712 A  
HETATM   18  F   UNL     1     -10.444   7.619  67.087  1.00  0.00    -0.293 F  
HETATM   19  F   UNL     1     -12.200   6.353  66.987  1.00  0.00     0.881 F  
HETATM   20  C   UNL     1     -11.851   5.642  69.635  1.00  0.00     1.946 A  
HETATM   21  C   UNL     1      -9.518   6.312  69.527  1.00  0.00    -0.151 A  
HETATM   22  C   UNL     1     -10.903   6.376  67.406  1.00  0.00    -0.375 C  
HETATM   23  F   UNL     1     -10.233   5.508  66.602  1.00  0.00    -0.168 F  
HETATM   24  C   UNL     1     -10.747   6.067  68.878  1.00  0.00    -0.384 A  
ENDBRANCH  14  15
ENDBRANCH   8  14
BRANCH   9  25
HETATM   25  O   UNL     1      -7.595   8.505  73.883  1.00  0.00    -0.340 OA 
HETATM   26  C   UNL     1      -8.127   7.227  74.204  1.00  0.00    -0.147 C  
ENDBRANCH   9  25
BRANCH  11  27
HETATM   27  N   UNL     1      -5.293  11.377  70.908  1.00  0.00    -0.165 NA 
HETATM   28  H   UNL     1      -4.613  11.574  71.642  1.00  0.00     0.000 HD 
BRANCH  27  29
HETATM   29  C   UNL     1      -5.276  12.183  69.686  1.00  0.00    -0.073 C  
HETATM   30  C   UNL     1      -5.295  11.221  68.495  1.00  0.00    -0.043 C  
BRANCH  29  31
HETATM   31  C   UNL     1      -6.508  13.105  69.621  1.00  0.00    -0.047 C  
BRANCH  31  32
HETATM   32  C   UNL     1      -6.196  14.594  69.432  1.00  0.00    -0.115 C  
BRANCH  32  33
HETATM   33  C   UNL     1      -7.273  15.410  68.712  1.00  0.00    -0.128 C  
HETATM   34  N   UNL     1      -7.336  16.792  69.194  1.00  0.00    -0.237 NA 
HETATM   35  H1  UNL     1      -8.053  17.336  68.715  1.00  0.00     0.000 HD 
HETATM   36  H2  UNL     1      -6.425  17.246  69.132  1.00  0.00     0.000 HD 
ENDBRANCH  32  33
ENDBRANCH  31  32
ENDBRANCH  29  31
ENDBRANCH  27  29
ENDBRANCH  11  27
ENDBRANCH   2   3
TORSDOF 9
ENDMDL
MODEL      283
REMARK 921   NORMALIZED FREE ENERGY PREDICTED BY IDOCK:   31.43 KCAL/MOL
REMARK 922        TOTAL FREE ENERGY PREDICTED BY IDOCK:   47.00 KCAL/MOL
REMARK 923 INTER-LIGAND FREE ENERGY PREDICTED BY IDOCK:   35.60 KCAL/MOL
REMARK 924 INTRA-LIGAND FREE ENERGY PREDICTED BY IDOCK:   11.40 KCAL/MOL
REMARK 927      BINDING AFFINITY PREDICTED BY RF-SCORE:    0.00 PKD
ROOT
HETATM    1  C   UNL     1     -13.639  11.779  73.713  1.00  0.00     8.801 C  
HETATM    2  O   UNL     1     -13.719  10.937  72.567  1.00  0.00     0.103 OA 
ENDROOT
BRANCH   2   3
HETATM    3  C   UNL     1     -12.510  10.796  71.920  1.00  0.00    -0.029 A  
HETATM    4  C   UNL     1     -12.178   9.533  71.494  1.00  0.00    -0.468 A  
HETATM    5  C   UNL     1     -10.996   9.368  70.763  1.00  0.00    -0.371 A  
HETATM    6  C   UNL     1     -10.258  10.521  70.345  1.00  0.00     0.349 A  
HETATM    7  C   UNL     1     -10.498   7.958  70.579  1.00  0.00    -0.214 C  
HETATM    8  C   UNL     1      -9.246  10.611  69.327  1.00  0.00    -0.104 A  
HETATM    9  C   UNL     1      -8.375  11.715  69.293  1.00  0.00     0.420 A  
HETATM   10  C   UNL     1     -10.579  11.717  71.034  1.00  0.00     4.067 A  
HETATM   11  C   UNL     1      -9.712  12.826  70.983  1.00  0.00     9.382 A  
HETATM   12  N   UNL     1     -11.693  11.850  71.783  1.00  0.00     1.881 NA 
HETATM   13  C   UNL     1      -8.599  12.794  70.144  1.00  0.00     4.065 A  
BRANCH   8  14
HETATM   14  O   UNL     1      -9.073   9.693  68.311  1.00  0.00    -0.124 OA 
BRANCH  14  15
HETATM   15  C   UNL     1      -8.476   9.990  67.102  1.00  0.00    -0.125 A  
HETATM   16  C   UNL     1      -7.076   9.958  67.156  1.00  0.00    -0.085 A  
HETATM   17  C   UNL     1      -6.319   9.939  65.987  1.00  0.00    -0.082 A  
HETATM   18  F   UNL     1     -10.051   8.963  63.381  1.00  0.00     1.788 F  
HETATM   19  F   UNL     1      -8.238   9.522  62.335  1.00  0.00    -0.121 F  
HETATM   20  C   UNL     1      -6.962   9.939  64.752  1.00  0.00    -0.132 A  
HETATM   21  C   UNL     1      -9.107  10.165  65.868  1.00  0.00    -0.190 A  
HETATM   22  C   UNL     1      -9.067   9.905  63.348  1.00  0.00    -0.261 C  
HETATM   23  F   UNL     1      -9.659  11.056  62.934  1.00  0.00    -0.253 F  
HETATM   24  C   UNL     1      -8.360  10.044  64.678  1.00  0.00    -0.167 A  
ENDBRANCH  14  15
ENDBRANCH   8  14
BRANCH   9  25
HETATM   25  O   UNL     1      -7.313  11.925  68.449  1.00  0.00    -0.082 OA 
HETATM   26  C   UNL     1      -6.532  13.097  68.643  1.00  0.00    -0.087 C  
ENDBRANCH   9  25
BRANCH  11  27
HETATM   27  N   UNL     1     -10.033  13.979  71.734  1.00  0.00     5.001 NA 
HETATM   28  H   UNL     1      -9.287  14.623  71.998  1.00  0.00     0.000 HD 
BRANCH  27  29
HETATM   29  C   UNL     1     -11.407  14.272  72.143  1.00  0.00     1.414 C  
HETATM   30  C   UNL     1     -12.315  13.209  71.519  1.00  0.00    -0.049 C  
BRANCH  29  31
HETATM   31  C   UNL     1     -11.543  14.226  73.677  1.00  0.00     1.132 C  
BRANCH  31  32
HETATM   32  C   UNL     1     -11.748  15.588  74.352  1.00  0.00     0.297 C  
BRANCH  32  33
HETATM   33  C   UNL     1     -12.300  16.697  73.451  1.00  0.00    -0.235 C  
HETATM   34  N   UNL     1     -13.758  16.631  73.323  1.00  0.00     0.078 NA 
HETATM   35  H1  UNL     1     -14.126  17.370  72.723  1.00  0.00     0.000 HD 
HETATM   36  H2  UNL     1     -14.209  16.640  74.237  1.00  0.00     0.000 HD 
ENDBRANCH  32  33
ENDBRANCH  31  32
ENDBRANCH  29  31
ENDBRANCH  27  29
ENDBRANCH  11  27
ENDBRANCH   2   3
TORSDOF 9
ENDMDL
MODEL      284
REMARK 921   NORMALIZED FREE ENERGY PREDICTED BY IDOCK:   38.07 KCAL/MOL
REMARK 922        TOTAL FREE ENERGY PREDICTED BY IDOCK:   57.13 KCAL/MOL
REMARK 923 INTER-LIGAND FREE ENERGY PREDICTED BY IDOCK:   52.08 KCAL/MOL
REMARK 924 INTRA-LIGAND FREE ENERGY PREDICTED BY IDOCK:    5.05 KCAL/MOL
REMARK 927      BINDING AFFINITY PREDICTED BY RF-SCORE:    0.00 PKD
ROOT
HETATM    1  C   UNL     1      -6.304  18.951  67.047  1.00  0.00    -0.186 C  
HETATM    2  O   UNL     1      -7.637  18.527  66.779  1.00  0.00    -0.215 OA 
ENDROOT
BRANCH   2   3
HETATM    3  C   UNL     1      -7.976  17.370  67.447  1.00  0.00    -0.198 A  
HETATM    4  C   UNL     1      -7.408  17.179  68.683  1.00  0.00    -0.238 A  
HETATM    5  C   UNL     1      -7.791  16.056  69.424  1.00  0.00    -0.167 A  
HETATM    6  C   UNL     1      -8.868  15.236  68.957  1.00  0.00    -0.226 A  
HETATM    7  C   UNL     1      -6.941  15.701  70.617  1.00  0.00     0.941 C  
HETATM    8  C   UNL     1      -9.640  14.272  69.694  1.00  0.00     0.609 A  
HETATM    9  C   UNL     1     -10.401  13.305  69.012  1.00  0.00     0.038 A  
HETATM   10  C   UNL     1      -9.199  15.410  67.590  1.00  0.00    -0.187 A  
HETATM   11  C   UNL     1      -9.976  14.447  66.915  1.00  0.00    -0.261 A  
HETATM   12  N   UNL     1      -8.779  16.467  66.866  1.00  0.00    -0.188 NA 
HETATM   13  C   UNL     1     -10.531  13.385  67.628  1.00  0.00    -0.242 A  
BRANCH   8  14
HETATM   14  O   UNL     1      -9.741  14.237  71.071  1.00  0.00     2.579 OA 
BRANCH  14  15
HETATM   15  C   UNL     1     -10.067  15.333  71.843  1.00  0.00     2.413 A  
HETATM   16  C   UNL     1     -10.232  15.023  73.200  1.00  0.00     4.592 A  
HETATM   17  C   UNL     1     -10.269  16.030  74.161  1.00  0.00     8.909 A  
HETATM   18  F   UNL     1      -8.678  19.202  71.148  1.00  0.00     2.746 F  
HETATM   19  F   UNL     1      -9.439  19.934  73.041  1.00  0.00     1.246 F  
HETATM   20  C   UNL     1     -10.129  17.359  73.770  1.00  0.00     8.617 A  
HETATM   21  C   UNL     1     -10.102  16.671  71.441  1.00  0.00     3.419 A  
HETATM   22  C   UNL     1      -9.745  19.118  71.992  1.00  0.00     4.780 C  
HETATM   23  F   UNL     1     -10.785  19.709  71.347  1.00  0.00     1.083 F  
HETATM   24  C   UNL     1     -10.036  17.694  72.410  1.00  0.00     7.970 A  
ENDBRANCH  14  15
ENDBRANCH   8  14
BRANCH   9  25
HETATM   25  O   UNL     1     -11.127  12.273  69.548  1.00  0.00    -0.160 OA 
HETATM   26  C   UNL     1     -10.620  11.640  70.716  1.00  0.00     3.064 C  
ENDBRANCH   9  25
BRANCH  11  27
HETATM   27  N   UNL     1     -10.233  14.620  65.537  1.00  0.00    -0.346 NA 
HETATM   28  H   UNL     1     -10.729  15.455  65.226  1.00  0.00     0.000 HD 
BRANCH  27  29
HETATM   29  C   UNL     1      -9.806  13.633  64.544  1.00  0.00     0.305 C  
HETATM   30  C   UNL     1      -8.578  12.911  65.106  1.00  0.00     2.241 C  
BRANCH  29  31
HETATM   31  C   UNL     1     -10.924  12.610  64.274  1.00  0.00    -0.404 C  
BRANCH  31  32
HETATM   32  C   UNL     1     -10.500  11.386  63.453  1.00  0.00    -0.452 C  
BRANCH  32  33
HETATM   33  C   UNL     1      -9.009  11.300  63.115  1.00  0.00    -0.127 C  
HETATM   34  N   UNL     1      -8.165  11.384  64.309  1.00  0.00     0.128 NA 
HETATM   35  H1  UNL     1      -7.172  11.327  64.085  1.00  0.00     0.000 HD 
HETATM   36  H2  UNL     1      -8.429  10.680  64.998  1.00  0.00     0.000 HD 
ENDBRANCH  32  33
ENDBRANCH  31  32
ENDBRANCH  29  31
ENDBRANCH  27  29
ENDBRANCH  11  27
ENDBRANCH   2   3
TORSDOF 9
ENDMDL
MODEL      285
REMARK 921   NORMALIZED FREE ENERGY PREDICTED BY IDOCK:   39.36 KCAL/MOL
REMARK 922        TOTAL FREE ENERGY PREDICTED BY IDOCK:   59.10 KCAL/MOL
REMARK 923 INTER-LIGAND FREE ENERGY PREDICTED BY IDOCK:   51.77 KCAL/MOL
REMARK 924 INTRA-LIGAND FREE ENERGY PREDICTED BY IDOCK:    7.33 KCAL/MOL
REMARK 927      BINDING AFFINITY PREDICTED BY RF-SCORE:    0.00 PKD
ROOT
HETATM    1  C   UNL     1      -6.322  13.408  69.553  1.00  0.00    -0.106 C  
HETATM    2  O   UNL     1      -6.090  14.732  69.079  1.00  0.00    -0.090 OA 
ENDROOT
BRANCH   2   3
HETATM    3  C   UNL     1      -7.151  15.235  68.358  1.00  0.00    -0.111 A  
HETATM    4  C   UNL     1      -7.077  15.130  66.991  1.00  0.00     0.142 A  
HETATM    5  C   UNL     1      -8.172  15.558  66.231  1.00  0.00     0.123 A  
HETATM    6  C   UNL     1      -9.385  15.936  66.892  1.00  0.00    -0.244 A  
HETATM    7  C   UNL     1      -7.953  15.725  64.750  1.00  0.00     8.079 C  
HETATM    8  C   UNL     1     -10.702  16.068  66.331  1.00  0.00    -0.232 A  
HETATM    9  C   UNL     1     -11.694  16.789  67.019  1.00  0.00     1.204 A  
HETATM   10  C   UNL     1      -9.249  16.212  68.275  1.00  0.00    -0.197 A  
HETATM   11  C   UNL     1     -10.253  16.920  68.965  1.00  0.00    -0.308 A  
HETATM   12  N   UNL     1      -8.164  15.846  68.989  1.00  0.00    -0.220 NA 
HETATM   13  C   UNL     1     -11.445  17.235  68.314  1.00  0.00     0.514 A  
BRANCH   8  14
HETATM   14  O   UNL     1     -11.111  15.487  65.146  1.00  0.00    -0.376 OA 
BRANCH  14  15
HETATM   15  C   UNL     1     -10.601  14.301  64.658  1.00  0.00    -0.340 A  
HETATM   16  C   UNL     1      -9.235  14.137  64.923  1.00  0.00     1.688 A  
HETATM   17  C   UNL     1      -8.624  12.894  64.772  1.00  0.00     2.898 A  
HETATM   18  F   UNL     1     -12.730  10.722  64.471  1.00  0.00     1.592 F  
HETATM   19  F   UNL     1     -10.966   9.570  63.966  1.00  0.00     2.385 F  
HETATM   20  C   UNL     1      -9.383  11.800  64.366  1.00  0.00     0.115 A  
HETATM   21  C   UNL     1     -11.315  13.245  64.086  1.00  0.00    -0.424 A  
HETATM   22  C   UNL     1     -11.595  10.755  63.718  1.00  0.00     1.549 C  
HETATM   23  F   UNL     1     -11.999  10.702  62.422  1.00  0.00     1.104 F  
HETATM   24  C   UNL     1     -10.736  11.960  64.026  1.00  0.00    -0.428 A  
ENDBRANCH  14  15
ENDBRANCH   8  14
BRANCH   9  25
HETATM   25  O   UNL     1     -12.969  17.078  66.601  1.00  0.00     5.695 OA 
HETATM   26  C   UNL     1     -13.133  18.103  65.629  1.00  0.00    13.054 C  
ENDBRANCH   9  25
BRANCH  11  27
HETATM   27  N   UNL     1     -10.055  17.233  70.327  1.00  0.00     0.908 NA 
HETATM   28  H   UNL     1      -9.303  17.872  70.586  1.00  0.00     0.000 HD 
BRANCH  27  29
HETATM   29  C   UNL     1     -10.900  16.664  71.378  1.00  0.00     1.022 C  
HETATM   30  C   UNL     1     -10.060  15.640  72.146  1.00  0.00     3.182 C  
BRANCH  29  31
HETATM   31  C   UNL     1     -11.383  17.761  72.346  1.00  0.00     2.229 C  
BRANCH  31  32
HETATM   32  C   UNL     1     -10.479  18.996  72.432  1.00  0.00     3.616 C  
BRANCH  32  33
HETATM   33  C   UNL     1     -10.166  19.682  71.099  1.00  0.00     2.298 C  
HETATM   34  N   UNL     1      -9.477  20.961  71.284  1.00  0.00     1.451 NA 
HETATM   35  H1  UNL     1      -9.268  21.418  70.396  1.00  0.00     0.000 HD 
HETATM   36  H2  UNL     1      -8.635  20.848  71.847  1.00  0.00     0.000 HD 
ENDBRANCH  32  33
ENDBRANCH  31  32
ENDBRANCH  29  31
ENDBRANCH  27  29
ENDBRANCH  11  27
ENDBRANCH   2   3
TORSDOF 9
ENDMDL
MODEL      286
REMARK 921   NORMALIZED FREE ENERGY PREDICTED BY IDOCK:   50.97 KCAL/MOL
REMARK 922        TOTAL FREE ENERGY PREDICTED BY IDOCK:   76.82 KCAL/MOL
REMARK 923 INTER-LIGAND FREE ENERGY PREDICTED BY IDOCK:   71.25 KCAL/MOL
REMARK 924 INTRA-LIGAND FREE ENERGY PREDICTED BY IDOCK:    5.57 KCAL/MOL
REMARK 927      BINDING AFFINITY PREDICTED BY RF-SCORE:    0.00 PKD
ROOT
HETATM    1  C   UNL     1     -13.759  19.150  64.130  1.00  0.00    25.148 C  
HETATM    2  O   UNL     1     -13.768  19.003  65.548  1.00  0.00    16.101 OA 
ENDROOT
BRANCH   2   3
HETATM    3  C   UNL     1     -12.698  18.273  66.017  1.00  0.00     9.397 A  
HETATM    4  C   UNL     1     -12.787  16.907  65.916  1.00  0.00     6.626 A  
HETATM    5  C   UNL     1     -11.685  16.137  66.308  1.00  0.00     0.949 A  
HETATM    6  C   UNL     1     -10.455  16.788  66.644  1.00  0.00    -0.258 A  
HETATM    7  C   UNL     1     -11.912  14.658  66.484  1.00  0.00    -0.284 C  
HETATM    8  C   UNL     1      -9.139  16.215  66.733  1.00  0.00    -0.230 A  
HETATM    9  C   UNL     1      -8.117  16.895  67.420  1.00  0.00    -0.174 A  
HETATM   10  C   UNL     1     -10.569  18.172  66.923  1.00  0.00    -0.308 A  
HETATM   11  C   UNL     1      -9.536  18.854  67.597  1.00  0.00    -0.301 A  
HETATM   12  N   UNL     1     -11.659  18.896  66.593  1.00  0.00     1.108 NA 
HETATM   13  C   UNL     1      -8.340  18.193  67.873  1.00  0.00    -0.254 A  
BRANCH   8  14
HETATM   14  O   UNL     1      -8.760  15.027  66.141  1.00  0.00    -0.152 OA 
BRANCH  14  15
HETATM   15  C   UNL     1      -9.638  14.001  65.850  1.00  0.00    -0.159 A  
HETATM   16  C   UNL     1     -10.378  14.223  64.681  1.00  0.00    -0.256 A  
HETATM   17  C   UNL     1     -11.084  13.185  64.078  1.00  0.00    -0.395 A  
HETATM   18  F   UNL     1      -8.904   9.976  66.651  1.00  0.00    -0.129 F  
HETATM   19  F   UNL     1     -10.624   9.321  65.507  1.00  0.00    -0.009 F  
HETATM   20  C   UNL     1     -11.044  11.911  64.636  1.00  0.00    -0.373 A  
HETATM   21  C   UNL     1      -9.741  12.768  66.499  1.00  0.00    -0.255 A  
HETATM   22  C   UNL     1     -10.205  10.281  66.381  1.00  0.00    -0.225 C  
HETATM   23  F   UNL     1     -10.891  10.064  67.534  1.00  0.00    -0.283 F  
HETATM   24  C   UNL     1     -10.367  11.685  65.846  1.00  0.00    -0.289 A  
ENDBRANCH  14  15
ENDBRANCH   8  14
BRANCH   9  25
HETATM   25  O   UNL     1      -6.838  16.466  67.667  1.00  0.00    -0.117 OA 
HETATM   26  C   UNL     1      -6.292  15.474  66.807  1.00  0.00     0.920 C  
ENDBRANCH   9  25
BRANCH  11  27
HETATM   27  N   UNL     1      -9.712  20.218  67.915  1.00  0.00    -0.361 NA 
HETATM   28  H   UNL     1      -9.661  20.913  67.170  1.00  0.00     0.000 HD 
BRANCH  27  29
HETATM   29  C   UNL     1      -9.964  20.662  69.287  1.00  0.00     0.624 C  
HETATM   30  C   UNL     1     -11.376  21.252  69.332  1.00  0.00     2.285 C  
BRANCH  29  31
HETATM   31  C   UNL     1      -9.869  19.481  70.271  1.00  0.00     0.807 C  
BRANCH  31  32
HETATM   32  C   UNL     1     -10.876  19.516  71.426  1.00  0.00     4.146 C  
BRANCH  32  33
HETATM   33  C   UNL     1     -11.474  18.163  71.825  1.00  0.00     4.014 C  
HETATM   34  N   UNL     1     -10.452  17.224  72.292  1.00  0.00     3.945 NA 
HETATM   35  H1  UNL     1     -10.849  16.323  72.559  1.00  0.00     0.000 HD 
HETATM   36  H2  UNL     1      -9.903  17.623  73.053  1.00  0.00     0.000 HD 
ENDBRANCH  32  33
ENDBRANCH  31  32
ENDBRANCH  29  31
ENDBRANCH  27  29
ENDBRANCH  11  27
ENDBRANCH   2   3
TORSDOF 9
ENDMDL
MODEL      287
REMARK 921   NORMALIZED FREE ENERGY PREDICTED BY IDOCK:   58.56 KCAL/MOL
REMARK 922        TOTAL FREE ENERGY PREDICTED BY IDOCK:   88.40 KCAL/MOL
REMARK 923 INTER-LIGAND FREE ENERGY PREDICTED BY IDOCK:   49.90 KCAL/MOL
REMARK 924 INTRA-LIGAND FREE ENERGY PREDICTED BY IDOCK:   38.50 KCAL/MOL
REMARK 927      BINDING AFFINITY PREDICTED BY RF-SCORE:    0.00 PKD
ROOT
HETATM    1  C   UNL     1     -12.811  12.239  67.334  1.00  0.00     2.866 C  
HETATM    2  O   UNL     1     -12.950  13.488  66.662  1.00  0.00     0.113 OA 
ENDROOT
BRANCH   2   3
HETATM    3  C   UNL     1     -11.857  14.310  66.828  1.00  0.00    -0.426 A  
HETATM    4  C   UNL     1     -12.110  15.635  67.085  1.00  0.00     0.787 A  
HETATM    5  C   UNL     1     -11.025  16.482  67.340  1.00  0.00    -0.121 A  
HETATM    6  C   UNL     1      -9.714  15.925  67.485  1.00  0.00    -0.223 A  
HETATM    7  C   UNL     1     -11.293  17.964  67.308  1.00  0.00     0.671 C  
HETATM    8  C   UNL     1      -8.549  16.529  68.072  1.00  0.00    -0.184 A  
HETATM    9  C   UNL     1      -7.271  16.001  67.812  1.00  0.00    -0.143 A  
HETATM   10  C   UNL     1      -9.566  14.610  66.978  1.00  0.00    -0.240 A  
HETATM   11  C   UNL     1      -8.283  14.079  66.734  1.00  0.00     0.200 A  
HETATM   12  N   UNL     1     -10.617  13.819  66.682  1.00  0.00    -0.273 NA 
HETATM   13  C   UNL     1      -7.153  14.800  67.117  1.00  0.00     0.113 A  
BRANCH   8  14
HETATM   14  O   UNL     1      -8.577  17.601  68.943  1.00  0.00    -0.230 OA 
BRANCH  14  15
HETATM   15  C   UNL     1      -8.203  17.521  70.270  1.00  0.00     3.060 A  
HETATM   16  C   UNL     1      -7.763  16.244  70.642  1.00  0.00     2.784 A  
HETATM   17  C   UNL     1      -7.078  16.049  71.840  1.00  0.00     5.307 A  
HETATM   18  F   UNL     1      -6.407  20.621  72.401  1.00  0.00    -0.077 F  
HETATM   19  F   UNL     1      -5.947  19.342  74.089  1.00  0.00     7.786 F  
HETATM   20  C   UNL     1      -6.817  17.137  72.668  1.00  0.00     7.753 A  
HETATM   21  C   UNL     1      -8.092  18.573  71.181  1.00  0.00     6.181 A  
HETATM   22  C   UNL     1      -6.915  19.615  73.168  1.00  0.00     4.300 C  
HETATM   23  F   UNL     1      -7.951  20.156  73.861  1.00  0.00     3.438 F  
HETATM   24  C   UNL     1      -7.312  18.410  72.346  1.00  0.00     7.647 A  
ENDBRANCH  14  15
ENDBRANCH   8  14
BRANCH   9  25
HETATM   25  O   UNL     1      -6.058  16.492  68.221  1.00  0.00    -0.112 OA 
HETATM   26  C   UNL     1      -5.285  15.695  69.110  1.00  0.00    -0.096 C  
ENDBRANCH   9  25
BRANCH  11  27
HETATM   27  N   UNL     1      -8.175  12.789  66.169  1.00  0.00     0.112 NA 
HETATM   28  H   UNL     1      -7.699  12.677  65.274  1.00  0.00     0.000 HD 
BRANCH  27  29
HETATM   29  C   UNL     1      -8.728  11.609  66.834  1.00  0.00    -0.185 C  
HETATM   30  C   UNL     1      -7.582  10.914  67.576  1.00  0.00    -0.101 C  
BRANCH  29  31
HETATM   31  C   UNL     1      -9.822  12.010  67.841  1.00  0.00    -0.196 C  
BRANCH  31  32
HETATM   32  C   UNL     1     -10.262  13.477  67.772  1.00  0.00    -0.242 C  
BRANCH  32  33
HETATM   33  C   UNL     1     -10.430  14.182  69.122  1.00  0.00    -0.129 C  
HETATM   34  N   UNL     1     -10.913  15.556  68.971  1.00  0.00    -0.241 NA 
HETATM   35  H1  UNL     1     -11.025  16.026  69.869  1.00  0.00     0.000 HD 
HETATM   36  H2  UNL     1     -11.776  15.587  68.429  1.00  0.00     0.000 HD 
ENDBRANCH  32  33
ENDBRANCH  31  32
ENDBRANCH  29  31
ENDBRANCH  27  29
ENDBRANCH  11  27
ENDBRANCH   2   3
TORSDOF 9
ENDMDL
