MODEL        1
REMARK 921   NORMALIZED FREE ENERGY PREDICTED BY IDOCK:   -6.58 KCAL/MOL
REMARK 922        TOTAL FREE ENERGY PREDICTED BY IDOCK:  -14.41 KCAL/MOL
REMARK 923 INTER-LIGAND FREE ENERGY PREDICTED BY IDOCK:  -11.58 KCAL/MOL
REMARK 924 INTRA-LIGAND FREE ENERGY PREDICTED BY IDOCK:   -2.84 KCAL/MOL
REMARK 927      BINDING AFFINITY PREDICTED BY RF-SCORE:    0.00 PKD
ROOT
HETATM    1  C   UNL     1     -14.383  15.050  71.658  1.00  0.00    -0.680 C  
HETATM    2  C   UNL     1     -12.958  15.590  71.601  1.00  0.00    -0.464 C  
HETATM    3  C   UNL     1     -12.456  15.939  72.997  1.00  0.00    -0.599 C  
ENDROOT
BRANCH   2   4
HETATM    4  O   UNL     1     -12.085  14.580  71.065  1.00  0.00    -0.310 OA 
BRANCH   4   5
HETATM    5  C   UNL     1     -11.837  14.671  69.728  1.00  0.00    -0.316 C  
HETATM    6  O   UNL     1     -12.300  13.934  68.870  1.00  0.00    -0.301 OA 
BRANCH   5   7
HETATM    7  C   UNL     1     -10.860  15.785  69.459  1.00  0.00    -0.287 C  
BRANCH   7   8
HETATM    8  C   UNL     1      -9.526  15.228  68.967  1.00  0.00    -0.232 C  
BRANCH   8   9
HETATM    9  C   UNL     1      -8.985  16.074  67.818  1.00  0.00    -0.188 C  
BRANCH   9  10
HETATM   10  C   UNL     1     -10.085  16.726  67.032  1.00  0.00    -0.276 C  
HETATM   11  C   UNL     1     -10.551  16.317  65.841  1.00  0.00    -0.307 C  
BRANCH  11  12
HETATM   12  C   UNL     1     -10.065  15.128  65.055  1.00  0.00    -0.269 C  
BRANCH  12  13
HETATM   13  C   UNL     1     -10.928  13.893  65.339  1.00  0.00    -0.316 C  
HETATM   14  C   UNL     1     -12.333  13.943  64.722  1.00  0.00    -0.400 C  
HETATM   15  C   UNL     1     -12.771  12.487  64.758  1.00  0.00    -0.415 C  
HETATM   16  O   UNL     1     -12.297  14.368  63.361  1.00  0.00    -1.094 OA 
HETATM   17  C   UNL     1     -11.522  11.736  64.299  1.00  0.00    -0.307 C  
HETATM   18  H   UNL     1     -13.167  14.398  62.979  1.00  0.00     0.000 HD 
HETATM   19  C   UNL     1     -10.314  12.583  64.778  1.00  0.00    -0.331 C  
HETATM   20  O   UNL     1     -11.512  11.643  62.873  1.00  0.00    -0.734 OA 
HETATM   21  H   UNL     1     -10.736  11.175  62.588  1.00  0.00     0.000 HD 
BRANCH  19  22
HETATM   22  C   UNL     1      -9.444  11.832  65.767  1.00  0.00    -0.232 C  
HETATM   23  C   UNL     1      -9.377  12.090  67.087  1.00  0.00    -0.187 C  
BRANCH  23  24
HETATM   24  C   UNL     1      -8.609  11.264  68.090  1.00  0.00    -0.150 C  
HETATM   25  F   UNL     1      -7.917  12.083  68.930  1.00  0.00    -0.126 F  
HETATM   26  F   UNL     1      -7.684  10.507  67.439  1.00  0.00    -0.098 F  
BRANCH  24  27
HETATM   27  C   UNL     1      -9.533  10.351  68.912  1.00  0.00    -0.186 C  
BRANCH  27  28
HETATM   28  O   UNL     1     -10.616  11.101  69.481  1.00  0.00    -0.194 OA 
BRANCH  28  29
HETATM   29  C   UNL     1     -11.324  10.458  70.460  1.00  0.00    -0.341 A  
HETATM   30  C   UNL     1     -10.677   9.374  71.056  1.00  0.00    -0.407 A  
HETATM   31  C   UNL     1     -11.304   8.645  72.069  1.00  0.00    -0.432 A  
HETATM   32  C   UNL     1     -12.578   9.008  72.501  1.00  0.00    -0.342 A  
HETATM   33  C   UNL     1     -13.221  10.102  71.924  1.00  0.00    -0.557 A  
HETATM   34  C   UNL     1     -12.596  10.828  70.907  1.00  0.00    -0.498 A  
ENDBRANCH  28  29
ENDBRANCH  27  28
ENDBRANCH  24  27
ENDBRANCH  23  24
ENDBRANCH  19  22
ENDBRANCH  12  13
ENDBRANCH  11  12
ENDBRANCH   9  10
ENDBRANCH   8   9
ENDBRANCH   7   8
ENDBRANCH   5   7
ENDBRANCH   4   5
ENDBRANCH   2   4
TORSDOF 13
ENDMDL
MODEL        2
REMARK 921   NORMALIZED FREE ENERGY PREDICTED BY IDOCK:   -6.57 KCAL/MOL
REMARK 922        TOTAL FREE ENERGY PREDICTED BY IDOCK:  -14.40 KCAL/MOL
REMARK 923 INTER-LIGAND FREE ENERGY PREDICTED BY IDOCK:  -11.76 KCAL/MOL
REMARK 924 INTRA-LIGAND FREE ENERGY PREDICTED BY IDOCK:   -2.64 KCAL/MOL
REMARK 927      BINDING AFFINITY PREDICTED BY RF-SCORE:    0.00 PKD
ROOT
HETATM    1  C   UNL     1     -11.613  12.233  63.751  1.00  0.00    -0.555 C  
HETATM    2  C   UNL     1     -11.674  13.514  64.577  1.00  0.00    -0.397 C  
HETATM    3  C   UNL     1     -12.187  13.227  65.982  1.00  0.00    -0.483 C  
ENDROOT
BRANCH   2   4
HETATM    4  O   UNL     1     -10.351  14.065  64.701  1.00  0.00    -0.440 OA 
BRANCH   4   5
HETATM    5  C   UNL     1     -10.295  15.395  64.989  1.00  0.00    -0.329 C  
HETATM    6  O   UNL     1     -11.076  16.242  64.578  1.00  0.00    -0.672 OA 
BRANCH   5   7
HETATM    7  C   UNL     1      -9.095  15.688  65.850  1.00  0.00    -0.277 C  
BRANCH   7   8
HETATM    8  C   UNL     1      -8.804  14.516  66.786  1.00  0.00    -0.248 C  
BRANCH   8   9
HETATM    9  C   UNL     1      -7.401  14.640  67.376  1.00  0.00    -0.195 C  
BRANCH   9  10
HETATM   10  C   UNL     1      -7.427  15.147  68.788  1.00  0.00    -0.132 C  
HETATM   11  C   UNL     1      -7.339  16.433  69.164  1.00  0.00    -0.225 C  
BRANCH  11  12
HETATM   12  C   UNL     1      -7.196  17.621  68.250  1.00  0.00    -0.227 C  
BRANCH  12  13
HETATM   13  C   UNL     1      -8.400  18.561  68.378  1.00  0.00    -0.355 C  
HETATM   14  C   UNL     1      -8.294  19.849  67.550  1.00  0.00    -0.324 C  
HETATM   15  C   UNL     1      -9.733  20.338  67.498  1.00  0.00    -0.575 C  
HETATM   16  O   UNL     1      -7.860  19.585  66.218  1.00  0.00    -0.288 OA 
HETATM   17  C   UNL     1     -10.526  19.060  67.230  1.00  0.00    -0.451 C  
HETATM   18  H   UNL     1      -7.795  20.383  65.705  1.00  0.00     0.000 HD 
HETATM   19  C   UNL     1      -9.728  17.913  67.903  1.00  0.00    -0.288 C  
HETATM   20  O   UNL     1     -10.608  18.830  65.822  1.00  0.00    -0.551 OA 
HETATM   21  H   UNL     1     -11.102  18.036  65.655  1.00  0.00     0.000 HD 
BRANCH  19  22
HETATM   22  C   UNL     1     -10.518  17.236  69.005  1.00  0.00    -0.309 C  
HETATM   23  C   UNL     1     -11.132  16.043  68.894  1.00  0.00    -0.331 C  
BRANCH  23  24
HETATM   24  C   UNL     1     -11.812  15.312  70.027  1.00  0.00    -0.334 C  
HETATM   25  F   UNL     1     -12.998  15.914  70.320  1.00  0.00    -0.400 F  
HETATM   26  F   UNL     1     -11.045  15.403  71.147  1.00  0.00    -0.339 F  
BRANCH  24  27
HETATM   27  C   UNL     1     -12.059  13.832  69.692  1.00  0.00    -0.336 C  
BRANCH  27  28
HETATM   28  O   UNL     1     -12.697  13.160  70.787  1.00  0.00    -0.273 OA 
BRANCH  28  29
HETATM   29  C   UNL     1     -12.438  11.820  70.884  1.00  0.00    -0.318 A  
HETATM   30  C   UNL     1     -11.444  11.336  70.031  1.00  0.00    -0.359 A  
HETATM   31  C   UNL     1     -11.095   9.984  70.046  1.00  0.00    -0.350 A  
HETATM   32  C   UNL     1     -11.729   9.111  70.927  1.00  0.00    -0.341 A  
HETATM   33  C   UNL     1     -12.708   9.592  71.796  1.00  0.00    -0.492 A  
HETATM   34  C   UNL     1     -13.062  10.944  71.777  1.00  0.00    -0.564 A  
ENDBRANCH  28  29
ENDBRANCH  27  28
ENDBRANCH  24  27
ENDBRANCH  23  24
ENDBRANCH  19  22
ENDBRANCH  12  13
ENDBRANCH  11  12
ENDBRANCH   9  10
ENDBRANCH   8   9
ENDBRANCH   7   8
ENDBRANCH   5   7
ENDBRANCH   4   5
ENDBRANCH   2   4
TORSDOF 13
ENDMDL
MODEL        3
REMARK 921   NORMALIZED FREE ENERGY PREDICTED BY IDOCK:   -6.52 KCAL/MOL
REMARK 922        TOTAL FREE ENERGY PREDICTED BY IDOCK:  -14.32 KCAL/MOL
REMARK 923 INTER-LIGAND FREE ENERGY PREDICTED BY IDOCK:  -11.14 KCAL/MOL
REMARK 924 INTRA-LIGAND FREE ENERGY PREDICTED BY IDOCK:   -3.17 KCAL/MOL
REMARK 927      BINDING AFFINITY PREDICTED BY RF-SCORE:    0.00 PKD
ROOT
HETATM    1  C   UNL     1     -11.404   7.793  72.813  1.00  0.00    -0.446 C  
HETATM    2  C   UNL     1     -12.024   8.583  71.666  1.00  0.00    -0.316 C  
HETATM    3  C   UNL     1     -13.214   9.400  72.155  1.00  0.00    -0.541 C  
ENDROOT
BRANCH   2   4
HETATM    4  O   UNL     1     -11.052   9.504  71.139  1.00  0.00    -0.322 OA 
BRANCH   4   5
HETATM    5  C   UNL     1     -10.379   9.075  70.035  1.00  0.00    -0.206 C  
HETATM    6  O   UNL     1     -10.700   8.126  69.333  1.00  0.00    -0.224 OA 
BRANCH   5   7
HETATM    7  C   UNL     1      -9.145   9.912  69.826  1.00  0.00    -0.249 C  
BRANCH   7   8
HETATM    8  C   UNL     1      -9.191  10.615  68.470  1.00  0.00    -0.170 C  
BRANCH   8   9
HETATM    9  C   UNL     1      -9.761  12.023  68.618  1.00  0.00    -0.104 C  
BRANCH   9  10
HETATM   10  C   UNL     1     -11.183  12.108  68.146  1.00  0.00    -0.320 C  
HETATM   11  C   UNL     1     -12.259  12.320  68.920  1.00  0.00    -0.009 C  
BRANCH  11  12
HETATM   12  C   UNL     1     -12.256  12.514  70.414  1.00  0.00    -0.368 C  
BRANCH  12  13
HETATM   13  C   UNL     1     -12.751  13.917  70.786  1.00  0.00    -0.383 C  
HETATM   14  C   UNL     1     -13.939  13.936  71.756  1.00  0.00    -0.339 C  
HETATM   15  C   UNL     1     -13.920  15.360  72.289  1.00  0.00    -0.661 C  
HETATM   16  O   UNL     1     -13.741  13.044  72.852  1.00  0.00    -0.679 OA 
HETATM   17  C   UNL     1     -12.436  15.616  72.547  1.00  0.00    -0.428 C  
HETATM   18  H   UNL     1     -14.477  13.057  73.453  1.00  0.00     0.000 HD 
HETATM   19  C   UNL     1     -11.668  14.773  71.495  1.00  0.00    -0.350 C  
HETATM   20  O   UNL     1     -12.093  15.176  73.862  1.00  0.00    -0.529 OA 
HETATM   21  H   UNL     1     -11.170  15.335  74.023  1.00  0.00     0.000 HD 
BRANCH  19  22
HETATM   22  C   UNL     1     -10.848  15.637  70.557  1.00  0.00    -0.347 C  
HETATM   23  C   UNL     1     -10.946  15.628  69.215  1.00  0.00    -0.267 C  
BRANCH  23  24
HETATM   24  C   UNL     1     -10.221  16.575  68.289  1.00  0.00    -0.268 C  
HETATM   25  F   UNL     1      -8.979  16.840  68.779  1.00  0.00    -0.227 F  
HETATM   26  F   UNL     1     -10.883  17.763  68.249  1.00  0.00    -0.357 F  
BRANCH  24  27
HETATM   27  C   UNL     1     -10.098  16.007  66.865  1.00  0.00    -0.265 C  
BRANCH  27  28
HETATM   28  O   UNL     1     -11.394  15.746  66.307  1.00  0.00    -0.067 OA 
BRANCH  28  29
HETATM   29  C   UNL     1     -11.498  14.592  65.578  1.00  0.00    -0.341 A  
HETATM   30  C   UNL     1     -10.306  14.127  65.018  1.00  0.00    -0.443 A  
HETATM   31  C   UNL     1     -10.293  12.956  64.256  1.00  0.00    -0.396 A  
HETATM   32  C   UNL     1     -11.470  12.237  64.065  1.00  0.00    -0.483 A  
HETATM   33  C   UNL     1     -12.659  12.685  64.639  1.00  0.00    -0.517 A  
HETATM   34  C   UNL     1     -12.674  13.860  65.397  1.00  0.00    -0.525 A  
ENDBRANCH  28  29
ENDBRANCH  27  28
ENDBRANCH  24  27
ENDBRANCH  23  24
ENDBRANCH  19  22
ENDBRANCH  12  13
ENDBRANCH  11  12
ENDBRANCH   9  10
ENDBRANCH   8   9
ENDBRANCH   7   8
ENDBRANCH   5   7
ENDBRANCH   4   5
ENDBRANCH   2   4
TORSDOF 13
ENDMDL
MODEL        4
REMARK 921   NORMALIZED FREE ENERGY PREDICTED BY IDOCK:   -6.52 KCAL/MOL
REMARK 922        TOTAL FREE ENERGY PREDICTED BY IDOCK:  -14.32 KCAL/MOL
REMARK 923 INTER-LIGAND FREE ENERGY PREDICTED BY IDOCK:  -11.56 KCAL/MOL
REMARK 924 INTRA-LIGAND FREE ENERGY PREDICTED BY IDOCK:   -2.75 KCAL/MOL
REMARK 927      BINDING AFFINITY PREDICTED BY RF-SCORE:    0.00 PKD
ROOT
HETATM    1  C   UNL     1     -10.016   8.972  66.394  1.00  0.00    -0.370 C  
HETATM    2  C   UNL     1      -9.676  10.270  65.671  1.00  0.00    -0.247 C  
HETATM    3  C   UNL     1      -8.247  10.701  65.976  1.00  0.00    -0.158 C  
ENDROOT
BRANCH   2   4
HETATM    4  O   UNL     1      -9.774  10.066  64.250  1.00  0.00    -0.296 OA 
BRANCH   4   5
HETATM    5  C   UNL     1     -10.158  11.154  63.527  1.00  0.00    -0.385 C  
HETATM    6  O   UNL     1      -9.431  11.812  62.797  1.00  0.00    -0.347 OA 
BRANCH   5   7
HETATM    7  C   UNL     1     -11.606  11.468  63.794  1.00  0.00    -0.329 C  
BRANCH   7   8
HETATM    8  C   UNL     1     -11.827  12.977  63.873  1.00  0.00    -0.542 C  
BRANCH   8   9
HETATM    9  C   UNL     1     -12.525  13.348  65.179  1.00  0.00    -0.509 C  
BRANCH   9  10
HETATM   10  C   UNL     1     -11.770  12.855  66.379  1.00  0.00    -0.454 C  
HETATM   11  C   UNL     1     -10.669  13.418  66.902  1.00  0.00    -0.274 C  
BRANCH  11  12
HETATM   12  C   UNL     1      -9.971  14.651  66.392  1.00  0.00    -0.296 C  
BRANCH  12  13
HETATM   13  C   UNL     1      -9.689  15.634  67.534  1.00  0.00    -0.222 C  
HETATM   14  C   UNL     1      -8.648  16.712  67.204  1.00  0.00    -0.192 C  
HETATM   15  C   UNL     1      -8.896  17.763  68.274  1.00  0.00    -0.277 C  
HETATM   16  O   UNL     1      -8.888  17.304  65.929  1.00  0.00    -0.528 OA 
HETATM   17  C   UNL     1     -10.421  17.853  68.328  1.00  0.00    -0.354 C  
HETATM   18  H   UNL     1      -8.243  17.972  65.725  1.00  0.00     0.000 HD 
HETATM   19  C   UNL     1     -10.945  16.439  67.964  1.00  0.00    -0.327 C  
HETATM   20  O   UNL     1     -10.882  18.802  67.364  1.00  0.00    -0.449 OA 
HETATM   21  H   UNL     1     -11.830  18.857  67.398  1.00  0.00     0.000 HD 
BRANCH  19  22
HETATM   22  C   UNL     1     -11.727  15.809  69.100  1.00  0.00    -0.398 C  
HETATM   23  C   UNL     1     -11.408  15.907  70.405  1.00  0.00    -0.399 C  
BRANCH  23  24
HETATM   24  C   UNL     1     -12.253  15.387  71.542  1.00  0.00    -0.366 C  
HETATM   25  F   UNL     1     -12.846  16.427  72.191  1.00  0.00    -0.443 F  
HETATM   26  F   UNL     1     -11.452  14.770  72.453  1.00  0.00    -0.387 F  
BRANCH  24  27
HETATM   27  C   UNL     1     -13.331  14.405  71.056  1.00  0.00    -0.300 C  
BRANCH  27  28
HETATM   28  O   UNL     1     -13.328  13.210  71.850  1.00  0.00    -0.435 OA 
BRANCH  28  29
HETATM   29  C   UNL     1     -12.738  12.121  71.267  1.00  0.00    -0.261 A  
HETATM   30  C   UNL     1     -13.042  10.889  71.851  1.00  0.00    -0.537 A  
HETATM   31  C   UNL     1     -12.499   9.710  71.338  1.00  0.00    -0.465 A  
HETATM   32  C   UNL     1     -11.660   9.756  70.226  1.00  0.00    -0.283 A  
HETATM   33  C   UNL     1     -11.370  10.981  69.626  1.00  0.00    -0.363 A  
HETATM   34  C   UNL     1     -11.909  12.162  70.143  1.00  0.00    -0.368 A  
ENDBRANCH  28  29
ENDBRANCH  27  28
ENDBRANCH  24  27
ENDBRANCH  23  24
ENDBRANCH  19  22
ENDBRANCH  12  13
ENDBRANCH  11  12
ENDBRANCH   9  10
ENDBRANCH   8   9
ENDBRANCH   7   8
ENDBRANCH   5   7
ENDBRANCH   4   5
ENDBRANCH   2   4
TORSDOF 13
ENDMDL
MODEL        5
REMARK 921   NORMALIZED FREE ENERGY PREDICTED BY IDOCK:   -6.52 KCAL/MOL
REMARK 922        TOTAL FREE ENERGY PREDICTED BY IDOCK:  -14.32 KCAL/MOL
REMARK 923 INTER-LIGAND FREE ENERGY PREDICTED BY IDOCK:  -11.81 KCAL/MOL
REMARK 924 INTRA-LIGAND FREE ENERGY PREDICTED BY IDOCK:   -2.51 KCAL/MOL
REMARK 927      BINDING AFFINITY PREDICTED BY RF-SCORE:    0.00 PKD
ROOT
HETATM    1  C   UNL     1     -10.656  13.374  64.794  1.00  0.00    -0.420 C  
HETATM    2  C   UNL     1     -11.215  11.981  64.525  1.00  0.00    -0.332 C  
HETATM    3  C   UNL     1     -12.471  12.060  63.666  1.00  0.00    -0.637 C  
ENDROOT
BRANCH   2   4
HETATM    4  O   UNL     1     -10.242  11.207  63.801  1.00  0.00    -0.313 OA 
BRANCH   4   5
HETATM    5  C   UNL     1      -9.670  10.186  64.498  1.00  0.00    -0.293 C  
HETATM    6  O   UNL     1      -8.884   9.369  64.041  1.00  0.00    -0.215 OA 
BRANCH   5   7
HETATM    7  C   UNL     1     -10.187  10.173  65.913  1.00  0.00    -0.281 C  
BRANCH   7   8
HETATM    8  C   UNL     1      -9.870   8.843  66.592  1.00  0.00    -0.332 C  
BRANCH   8   9
HETATM    9  C   UNL     1      -9.485   9.066  68.053  1.00  0.00    -0.157 C  
BRANCH   9  10
HETATM   10  C   UNL     1      -8.973   7.812  68.698  1.00  0.00    -0.133 C  
HETATM   11  C   UNL     1      -9.168   7.447  69.975  1.00  0.00    -0.148 C  
BRANCH  11  12
HETATM   12  C   UNL     1      -9.938   8.220  71.014  1.00  0.00    -0.226 C  
BRANCH  12  13
HETATM   13  C   UNL     1     -11.444   8.168  70.734  1.00  0.00    -0.272 C  
HETATM   14  C   UNL     1     -12.192   7.056  71.482  1.00  0.00    -0.368 C  
HETATM   15  C   UNL     1     -13.643   7.504  71.394  1.00  0.00    -0.397 C  
HETATM   16  O   UNL     1     -11.821   7.003  72.858  1.00  0.00    -0.517 OA 
HETATM   17  C   UNL     1     -13.562   9.003  71.683  1.00  0.00    -0.390 C  
HETATM   18  H   UNL     1     -12.285   6.315  73.321  1.00  0.00     0.000 HD 
HETATM   19  C   UNL     1     -12.182   9.468  71.149  1.00  0.00    -0.421 C  
HETATM   20  O   UNL     1     -13.635   9.225  73.093  1.00  0.00    -0.863 OA 
HETATM   21  H   UNL     1     -13.585  10.157  73.273  1.00  0.00     0.000 HD 
BRANCH  19  22
HETATM   22  C   UNL     1     -12.315  10.489  70.036  1.00  0.00    -0.290 C  
HETATM   23  C   UNL     1     -11.447  11.491  69.801  1.00  0.00    -0.362 C  
BRANCH  23  24
HETATM   24  C   UNL     1     -11.510  12.430  68.620  1.00  0.00    -0.303 C  
HETATM   25  F   UNL     1     -12.211  11.851  67.607  1.00  0.00    -0.295 F  
HETATM   26  F   UNL     1     -10.253  12.646  68.147  1.00  0.00    -0.210 F  
BRANCH  24  27
HETATM   27  C   UNL     1     -12.159  13.774  68.989  1.00  0.00    -0.322 C  
BRANCH  27  28
HETATM   28  O   UNL     1     -11.349  14.490  69.932  1.00  0.00    -0.255 OA 
BRANCH  28  29
HETATM   29  C   UNL     1     -12.011  14.965  71.032  1.00  0.00    -0.320 A  
HETATM   30  C   UNL     1     -13.397  14.800  71.017  1.00  0.00    -0.427 A  
HETATM   31  C   UNL     1     -14.174  15.244  72.089  1.00  0.00    -0.667 A  
HETATM   32  C   UNL     1     -13.565  15.844  73.189  1.00  0.00    -0.580 A  
HETATM   33  C   UNL     1     -12.179  15.993  73.219  1.00  0.00    -0.632 A  
HETATM   34  C   UNL     1     -11.401  15.554  72.144  1.00  0.00    -0.428 A  
ENDBRANCH  28  29
ENDBRANCH  27  28
ENDBRANCH  24  27
ENDBRANCH  23  24
ENDBRANCH  19  22
ENDBRANCH  12  13
ENDBRANCH  11  12
ENDBRANCH   9  10
ENDBRANCH   8   9
ENDBRANCH   7   8
ENDBRANCH   5   7
ENDBRANCH   4   5
ENDBRANCH   2   4
TORSDOF 13
ENDMDL
MODEL        6
REMARK 921   NORMALIZED FREE ENERGY PREDICTED BY IDOCK:   -6.45 KCAL/MOL
REMARK 922        TOTAL FREE ENERGY PREDICTED BY IDOCK:  -14.19 KCAL/MOL
REMARK 923 INTER-LIGAND FREE ENERGY PREDICTED BY IDOCK:  -11.37 KCAL/MOL
REMARK 924 INTRA-LIGAND FREE ENERGY PREDICTED BY IDOCK:   -2.82 KCAL/MOL
REMARK 927      BINDING AFFINITY PREDICTED BY RF-SCORE:    0.00 PKD
ROOT
HETATM    1  C   UNL     1     -10.201   5.384  70.637  1.00  0.00    -0.323 C  
HETATM    2  C   UNL     1     -10.866   6.653  70.114  1.00  0.00    -0.279 C  
HETATM    3  C   UNL     1     -11.205   6.514  68.635  1.00  0.00    -0.302 C  
ENDROOT
BRANCH   2   4
HETATM    4  O   UNL     1     -12.098   6.874  70.823  1.00  0.00    -0.374 OA 
BRANCH   4   5
HETATM    5  C   UNL     1     -12.040   7.795  71.824  1.00  0.00    -0.298 C  
HETATM    6  O   UNL     1     -11.429   7.663  72.875  1.00  0.00    -0.354 OA 
BRANCH   5   7
HETATM    7  C   UNL     1     -12.884   8.992  71.474  1.00  0.00    -0.394 C  
BRANCH   7   8
HETATM    8  C   UNL     1     -12.012  10.233  71.292  1.00  0.00    -0.457 C  
BRANCH   8   9
HETATM    9  C   UNL     1     -11.759  10.496  69.809  1.00  0.00    -0.354 C  
BRANCH   9  10
HETATM   10  C   UNL     1     -10.301  10.417  69.465  1.00  0.00    -0.264 C  
HETATM   11  C   UNL     1      -9.785  10.378  68.227  1.00  0.00    -0.162 C  
BRANCH  11  12
HETATM   12  C   UNL     1     -10.562  10.403  66.937  1.00  0.00    -0.293 C  
BRANCH  12  13
HETATM   13  C   UNL     1     -10.492  11.787  66.281  1.00  0.00    -0.281 C  
HETATM   14  C   UNL     1     -10.062  11.771  64.808  1.00  0.00    -0.263 C  
HETATM   15  C   UNL     1     -10.507  13.138  64.310  1.00  0.00    -0.410 C  
HETATM   16  O   UNL     1     -10.760  10.774  64.064  1.00  0.00    -0.476 OA 
HETATM   17  C   UNL     1     -11.896  13.298  64.928  1.00  0.00    -0.362 C  
HETATM   18  H   UNL     1     -10.494  10.765  63.152  1.00  0.00     0.000 HD 
HETATM   19  C   UNL     1     -11.859  12.521  66.270  1.00  0.00    -0.453 C  
HETATM   20  O   UNL     1     -12.877  12.723  64.063  1.00  0.00    -0.686 OA 
HETATM   21  H   UNL     1     -13.740  12.823  64.446  1.00  0.00     0.000 HD 
BRANCH  19  22
HETATM   22  C   UNL     1     -12.085  13.430  67.463  1.00  0.00    -0.323 C  
HETATM   23  C   UNL     1     -11.132  13.815  68.331  1.00  0.00    -0.287 C  
BRANCH  23  24
HETATM   24  C   UNL     1     -11.330  14.816  69.443  1.00  0.00    -0.285 C  
HETATM   25  F   UNL     1     -11.689  14.171  70.588  1.00  0.00    -0.339 F  
HETATM   26  F   UNL     1     -12.361  15.645  69.126  1.00  0.00    -0.332 F  
BRANCH  24  27
HETATM   27  C   UNL     1     -10.063  15.648  69.701  1.00  0.00    -0.291 C  
BRANCH  27  28
HETATM   28  O   UNL     1      -9.407  15.974  68.467  1.00  0.00    -0.200 OA 
BRANCH  28  29
HETATM   29  C   UNL     1      -9.832  17.127  67.864  1.00  0.00    -0.283 A  
HETATM   30  C   UNL     1      -9.956  18.235  68.705  1.00  0.00    -0.410 A  
HETATM   31  C   UNL     1     -10.380  19.465  68.196  1.00  0.00    -0.525 A  
HETATM   32  C   UNL     1     -10.667  19.595  66.840  1.00  0.00    -0.570 A  
HETATM   33  C   UNL     1     -10.524  18.498  65.991  1.00  0.00    -0.433 A  
HETATM   34  C   UNL     1     -10.106  17.266  66.500  1.00  0.00    -0.311 A  
ENDBRANCH  28  29
ENDBRANCH  27  28
ENDBRANCH  24  27
ENDBRANCH  23  24
ENDBRANCH  19  22
ENDBRANCH  12  13
ENDBRANCH  11  12
ENDBRANCH   9  10
ENDBRANCH   8   9
ENDBRANCH   7   8
ENDBRANCH   5   7
ENDBRANCH   4   5
ENDBRANCH   2   4
TORSDOF 13
ENDMDL
MODEL        7
REMARK 921   NORMALIZED FREE ENERGY PREDICTED BY IDOCK:   -6.43 KCAL/MOL
REMARK 922        TOTAL FREE ENERGY PREDICTED BY IDOCK:  -14.15 KCAL/MOL
REMARK 923 INTER-LIGAND FREE ENERGY PREDICTED BY IDOCK:  -11.62 KCAL/MOL
REMARK 924 INTRA-LIGAND FREE ENERGY PREDICTED BY IDOCK:   -2.53 KCAL/MOL
REMARK 927      BINDING AFFINITY PREDICTED BY RF-SCORE:    0.00 PKD
ROOT
HETATM    1  C   UNL     1     -11.327   6.377  69.828  1.00  0.00    -0.494 C  
HETATM    2  C   UNL     1     -11.595   6.867  71.247  1.00  0.00    -0.310 C  
HETATM    3  C   UNL     1     -10.999   5.908  72.271  1.00  0.00    -0.313 C  
ENDROOT
BRANCH   2   4
HETATM    4  O   UNL     1     -10.970   8.148  71.437  1.00  0.00    -0.228 OA 
BRANCH   4   5
HETATM    5  C   UNL     1     -11.803   9.224  71.357  1.00  0.00    -0.358 C  
HETATM    6  O   UNL     1     -12.875   9.333  71.934  1.00  0.00    -0.345 OA 
BRANCH   5   7
HETATM    7  C   UNL     1     -11.235  10.248  70.411  1.00  0.00    -0.407 C  
BRANCH   7   8
HETATM    8  C   UNL     1      -9.776   9.933  70.085  1.00  0.00    -0.255 C  
BRANCH   8   9
HETATM    9  C   UNL     1      -9.429  10.406  68.675  1.00  0.00    -0.167 C  
BRANCH   9  10
HETATM   10  C   UNL     1     -10.414   9.910  67.657  1.00  0.00    -0.296 C  
HETATM   11  C   UNL     1     -10.429  10.232  66.354  1.00  0.00    -0.233 C  
BRANCH  11  12
HETATM   12  C   UNL     1      -9.465  11.153  65.653  1.00  0.00    -0.252 C  
BRANCH  12  13
HETATM   13  C   UNL     1     -10.187  12.387  65.103  1.00  0.00    -0.305 C  
HETATM   14  C   UNL     1     -10.566  12.294  63.618  1.00  0.00    -0.462 C  
HETATM   15  C   UNL     1     -11.619  13.382  63.468  1.00  0.00    -0.198 C  
HETATM   16  O   UNL     1     -11.168  11.040  63.305  1.00  0.00    -0.715 OA 
HETATM   17  C   UNL     1     -12.483  13.205  64.716  1.00  0.00    -0.402 C  
HETATM   18  H   UNL     1     -11.403  10.983  62.386  1.00  0.00     0.000 HD 
HETATM   19  C   UNL     1     -11.533  12.671  65.821  1.00  0.00    -0.399 C  
HETATM   20  O   UNL     1     -13.512  12.247  64.458  1.00  0.00    -0.686 OA 
HETATM   21  H   UNL     1     -14.049  12.138  65.234  1.00  0.00     0.000 HD 
BRANCH  19  22
HETATM   22  C   UNL     1     -11.423  13.629  66.991  1.00  0.00    -0.368 C  
HETATM   23  C   UNL     1     -10.663  14.740  67.011  1.00  0.00    -0.300 C  
BRANCH  23  24
HETATM   24  C   UNL     1     -10.648  15.757  68.126  1.00  0.00    -0.275 C  
HETATM   25  F   UNL     1     -11.889  16.297  68.275  1.00  0.00    -0.305 F  
HETATM   26  F   UNL     1      -9.818  16.782  67.790  1.00  0.00    -0.240 F  
BRANCH  24  27
HETATM   27  C   UNL     1     -10.193  15.143  69.460  1.00  0.00    -0.233 C  
BRANCH  27  28
HETATM   28  O   UNL     1     -10.858  15.773  70.564  1.00  0.00    -0.319 OA 
BRANCH  28  29
HETATM   29  C   UNL     1     -11.779  14.997  71.214  1.00  0.00    -0.347 A  
HETATM   30  C   UNL     1     -12.323  15.554  72.374  1.00  0.00    -0.496 A  
HETATM   31  C   UNL     1     -13.275  14.852  73.116  1.00  0.00    -0.568 A  
HETATM   32  C   UNL     1     -13.698  13.594  72.694  1.00  0.00    -0.551 A  
HETATM   33  C   UNL     1     -13.174  13.042  71.526  1.00  0.00    -0.360 A  
HETATM   34  C   UNL     1     -12.217  13.742  70.785  1.00  0.00    -0.437 A  
ENDBRANCH  28  29
ENDBRANCH  27  28
ENDBRANCH  24  27
ENDBRANCH  23  24
ENDBRANCH  19  22
ENDBRANCH  12  13
ENDBRANCH  11  12
ENDBRANCH   9  10
ENDBRANCH   8   9
ENDBRANCH   7   8
ENDBRANCH   5   7
ENDBRANCH   4   5
ENDBRANCH   2   4
TORSDOF 13
ENDMDL
MODEL        8
REMARK 921   NORMALIZED FREE ENERGY PREDICTED BY IDOCK:   -6.42 KCAL/MOL
REMARK 922        TOTAL FREE ENERGY PREDICTED BY IDOCK:  -14.13 KCAL/MOL
REMARK 923 INTER-LIGAND FREE ENERGY PREDICTED BY IDOCK:  -11.92 KCAL/MOL
REMARK 924 INTRA-LIGAND FREE ENERGY PREDICTED BY IDOCK:   -2.21 KCAL/MOL
REMARK 927      BINDING AFFINITY PREDICTED BY RF-SCORE:    0.00 PKD
ROOT
HETATM    1  C   UNL     1      -6.379  19.985  68.599  1.00  0.00    -0.332 C  
HETATM    2  C   UNL     1      -7.682  20.057  67.810  1.00  0.00    -0.292 C  
HETATM    3  C   UNL     1      -7.410  20.007  66.312  1.00  0.00    -0.312 C  
ENDROOT
BRANCH   2   4
HETATM    4  O   UNL     1      -8.504  18.924  68.141  1.00  0.00    -0.289 OA 
BRANCH   4   5
HETATM    5  C   UNL     1      -9.846  19.158  68.155  1.00  0.00    -0.369 C  
HETATM    6  O   UNL     1     -10.385  20.173  68.573  1.00  0.00    -0.403 OA 
BRANCH   5   7
HETATM    7  C   UNL     1     -10.585  17.958  67.623  1.00  0.00    -0.398 C  
BRANCH   7   8
HETATM    8  C   UNL     1     -10.310  17.771  66.133  1.00  0.00    -0.340 C  
BRANCH   8   9
HETATM    9  C   UNL     1     -10.282  16.287  65.776  1.00  0.00    -0.390 C  
BRANCH   9  10
HETATM   10  C   UNL     1     -10.438  15.414  66.987  1.00  0.00    -0.295 C  
HETATM   11  C   UNL     1     -11.255  14.355  67.094  1.00  0.00    -0.337 C  
BRANCH  11  12
HETATM   12  C   UNL     1     -12.178  13.830  66.026  1.00  0.00    -0.495 C  
BRANCH  12  13
HETATM   13  C   UNL     1     -11.804  12.396  65.634  1.00  0.00    -0.468 C  
HETATM   14  C   UNL     1     -11.253  12.249  64.209  1.00  0.00    -0.350 C  
HETATM   15  C   UNL     1     -10.566  10.892  64.249  1.00  0.00    -0.336 C  
HETATM   16  O   UNL     1     -10.271  13.241  63.917  1.00  0.00    -0.707 OA 
HETATM   17  C   UNL     1      -9.832  10.913  65.589  1.00  0.00    -0.241 C  
HETATM   18  H   UNL     1      -9.930  13.149  63.035  1.00  0.00     0.000 HD 
HETATM   19  C   UNL     1     -10.693  11.792  66.534  1.00  0.00    -0.304 C  
HETATM   20  O   UNL     1      -8.542  11.503  65.423  1.00  0.00    -0.391 OA 
HETATM   21  H   UNL     1      -8.085  11.515  66.256  1.00  0.00     0.000 HD 
BRANCH  19  22
HETATM   22  C   UNL     1     -11.215  11.011  67.724  1.00  0.00    -0.374 C  
HETATM   23  C   UNL     1     -10.802  11.175  68.996  1.00  0.00    -0.276 C  
BRANCH  23  24
HETATM   24  C   UNL     1     -11.408  10.488  70.196  1.00  0.00    -0.323 C  
HETATM   25  F   UNL     1     -10.420  10.027  71.012  1.00  0.00    -0.354 F  
HETATM   26  F   UNL     1     -12.110   9.398  69.784  1.00  0.00     0.049 F  
BRANCH  24  27
HETATM   27  C   UNL     1     -12.332  11.426  70.990  1.00  0.00    -0.343 C  
BRANCH  27  28
HETATM   28  O   UNL     1     -12.525  12.664  70.291  1.00  0.00    -0.207 OA 
BRANCH  28  29
HETATM   29  C   UNL     1     -12.483  13.789  71.069  1.00  0.00    -0.380 A  
HETATM   30  C   UNL     1     -13.313  13.774  72.193  1.00  0.00    -0.569 A  
HETATM   31  C   UNL     1     -13.349  14.868  73.060  1.00  0.00    -0.556 A  
HETATM   32  C   UNL     1     -12.543  15.978  72.815  1.00  0.00    -0.565 A  
HETATM   33  C   UNL     1     -11.697  15.990  71.706  1.00  0.00    -0.593 A  
HETATM   34  C   UNL     1     -11.665  14.898  70.835  1.00  0.00    -0.374 A  
ENDBRANCH  28  29
ENDBRANCH  27  28
ENDBRANCH  24  27
ENDBRANCH  23  24
ENDBRANCH  19  22
ENDBRANCH  12  13
ENDBRANCH  11  12
ENDBRANCH   9  10
ENDBRANCH   8   9
ENDBRANCH   7   8
ENDBRANCH   5   7
ENDBRANCH   4   5
ENDBRANCH   2   4
TORSDOF 13
ENDMDL
MODEL        9
REMARK 921   NORMALIZED FREE ENERGY PREDICTED BY IDOCK:   -6.41 KCAL/MOL
REMARK 922        TOTAL FREE ENERGY PREDICTED BY IDOCK:  -14.12 KCAL/MOL
REMARK 923 INTER-LIGAND FREE ENERGY PREDICTED BY IDOCK:  -11.51 KCAL/MOL
REMARK 924 INTRA-LIGAND FREE ENERGY PREDICTED BY IDOCK:   -2.60 KCAL/MOL
REMARK 927      BINDING AFFINITY PREDICTED BY RF-SCORE:    0.00 PKD
ROOT
HETATM    1  C   UNL     1     -11.023   7.072  70.848  1.00  0.00    -0.282 C  
HETATM    2  C   UNL     1     -11.377   7.898  72.080  1.00  0.00    -0.292 C  
HETATM    3  C   UNL     1     -10.264   7.826  73.117  1.00  0.00    -0.398 C  
ENDROOT
BRANCH   2   4
HETATM    4  O   UNL     1     -11.531   9.277  71.702  1.00  0.00    -0.355 OA 
BRANCH   4   5
HETATM    5  C   UNL     1     -12.774   9.802  71.892  1.00  0.00    -0.410 C  
HETATM    6  O   UNL     1     -13.693   9.251  72.481  1.00  0.00    -0.467 OA 
BRANCH   5   7
HETATM    7  C   UNL     1     -12.875  11.147  71.223  1.00  0.00    -0.515 C  
BRANCH   7   8
HETATM    8  C   UNL     1     -11.663  11.398  70.329  1.00  0.00    -0.397 C  
BRANCH   8   9
HETATM    9  C   UNL     1     -11.893  12.624  69.448  1.00  0.00    -0.356 C  
BRANCH   9  10
HETATM   10  C   UNL     1     -12.271  13.832  70.253  1.00  0.00    -0.429 C  
HETATM   11  C   UNL     1     -11.649  15.022  70.227  1.00  0.00    -0.329 C  
BRANCH  11  12
HETATM   12  C   UNL     1     -10.450  15.381  69.389  1.00  0.00    -0.257 C  
BRANCH  12  13
HETATM   13  C   UNL     1     -10.862  16.219  68.173  1.00  0.00    -0.342 C  
HETATM   14  C   UNL     1     -10.403  17.682  68.223  1.00  0.00    -0.384 C  
HETATM   15  C   UNL     1     -10.528  18.127  66.774  1.00  0.00    -0.363 C  
HETATM   16  O   UNL     1      -9.036  17.794  68.611  1.00  0.00    -0.287 OA 
HETATM   17  C   UNL     1      -9.955  16.943  65.996  1.00  0.00    -0.293 C  
HETATM   18  H   UNL     1      -8.752  18.701  68.642  1.00  0.00     0.000 HD 
HETATM   19  C   UNL     1     -10.272  15.682  66.841  1.00  0.00    -0.281 C  
HETATM   20  O   UNL     1      -8.540  17.093  65.865  1.00  0.00    -0.522 OA 
HETATM   21  H   UNL     1      -8.183  16.357  65.380  1.00  0.00     0.000 HD 
BRANCH  19  22
HETATM   22  C   UNL     1     -11.180  14.714  66.106  1.00  0.00    -0.341 C  
HETATM   23  C   UNL     1     -10.944  14.218  64.877  1.00  0.00    -0.413 C  
BRANCH  23  24
HETATM   24  C   UNL     1     -11.780  13.161  64.197  1.00  0.00    -0.418 C  
HETATM   25  F   UNL     1     -12.417  13.697  63.120  1.00  0.00    -0.556 F  
HETATM   26  F   UNL     1     -12.753  12.738  65.050  1.00  0.00    -0.515 F  
BRANCH  24  27
HETATM   27  C   UNL     1     -10.935  11.959  63.747  1.00  0.00    -0.425 C  
BRANCH  27  28
HETATM   28  O   UNL     1      -9.791  11.792  64.597  1.00  0.00    -0.244 OA 
BRANCH  28  29
HETATM   29  C   UNL     1      -9.829  10.703  65.425  1.00  0.00    -0.267 A  
HETATM   30  C   UNL     1      -9.145   9.575  64.967  1.00  0.00    -0.281 A  
HETATM   31  C   UNL     1      -9.114   8.407  65.732  1.00  0.00    -0.195 A  
HETATM   32  C   UNL     1      -9.757   8.367  66.967  1.00  0.00    -0.268 A  
HETATM   33  C   UNL     1     -10.425   9.496  67.439  1.00  0.00    -0.336 A  
HETATM   34  C   UNL     1     -10.460  10.664  66.672  1.00  0.00    -0.296 A  
ENDBRANCH  28  29
ENDBRANCH  27  28
ENDBRANCH  24  27
ENDBRANCH  23  24
ENDBRANCH  19  22
ENDBRANCH  12  13
ENDBRANCH  11  12
ENDBRANCH   9  10
ENDBRANCH   8   9
ENDBRANCH   7   8
ENDBRANCH   5   7
ENDBRANCH   4   5
ENDBRANCH   2   4
TORSDOF 13
ENDMDL
MODEL       10
REMARK 921   NORMALIZED FREE ENERGY PREDICTED BY IDOCK:   -6.37 KCAL/MOL
REMARK 922        TOTAL FREE ENERGY PREDICTED BY IDOCK:  -14.04 KCAL/MOL
REMARK 923 INTER-LIGAND FREE ENERGY PREDICTED BY IDOCK:  -11.51 KCAL/MOL
REMARK 924 INTRA-LIGAND FREE ENERGY PREDICTED BY IDOCK:   -2.53 KCAL/MOL
REMARK 927      BINDING AFFINITY PREDICTED BY RF-SCORE:    0.00 PKD
ROOT
HETATM    1  C   UNL     1     -13.095  10.703  71.622  1.00  0.00    -0.555 C  
HETATM    2  C   UNL     1     -12.910   9.266  72.098  1.00  0.00    -0.408 C  
HETATM    3  C   UNL     1     -14.204   8.476  71.945  1.00  0.00    -0.536 C  
ENDROOT
BRANCH   2   4
HETATM    4  O   UNL     1     -11.909   8.621  71.292  1.00  0.00    -0.281 OA 
BRANCH   4   5
HETATM    5  C   UNL     1     -10.681   8.499  71.870  1.00  0.00    -0.324 C  
HETATM    6  O   UNL     1     -10.462   8.019  72.973  1.00  0.00    -0.342 OA 
BRANCH   5   7
HETATM    7  C   UNL     1      -9.626   9.089  70.972  1.00  0.00    -0.348 C  
BRANCH   7   8
HETATM    8  C   UNL     1     -10.136   9.193  69.536  1.00  0.00    -0.202 C  
BRANCH   8   9
HETATM    9  C   UNL     1     -10.005  10.627  69.026  1.00  0.00    -0.226 C  
BRANCH   9  10
HETATM   10  C   UNL     1      -8.718  10.845  68.286  1.00  0.00    -0.140 C  
HETATM   11  C   UNL     1      -8.567  10.844  66.952  1.00  0.00    -0.136 C  
BRANCH  11  12
HETATM   12  C   UNL     1      -9.654  10.624  65.933  1.00  0.00    -0.253 C  
BRANCH  12  13
HETATM   13  C   UNL     1     -10.258  11.957  65.476  1.00  0.00    -0.290 C  
HETATM   14  C   UNL     1     -10.315  12.142  63.954  1.00  0.00    -0.415 C  
HETATM   15  C   UNL     1     -11.324  13.267  63.786  1.00  0.00    -0.295 C  
HETATM   16  O   UNL     1     -10.824  10.981  63.300  1.00  0.00    -0.726 OA 
HETATM   17  C   UNL     1     -12.429  12.894  64.774  1.00  0.00    -0.455 C  
HETATM   18  H   UNL     1     -10.860  11.096  62.357  1.00  0.00     0.000 HD 
HETATM   19  C   UNL     1     -11.728  12.145  65.937  1.00  0.00    -0.393 C  
HETATM   20  O   UNL     1     -13.370  12.027  64.138  1.00  0.00    -0.725 OA 
HETATM   21  H   UNL     1     -14.058  11.796  64.752  1.00  0.00     0.000 HD 
BRANCH  19  22
HETATM   22  C   UNL     1     -11.876  12.873  67.258  1.00  0.00    -0.416 C  
HETATM   23  C   UNL     1     -11.055  13.845  67.701  1.00  0.00    -0.295 C  
BRANCH  23  24
HETATM   24  C   UNL     1     -11.273  14.655  68.955  1.00  0.00    -0.269 C  
HETATM   25  F   UNL     1     -11.560  13.826  69.997  1.00  0.00    -0.311 F  
HETATM   26  F   UNL     1     -12.358  15.459  68.790  1.00  0.00    -0.259 F  
BRANCH  24  27
HETATM   27  C   UNL     1     -10.047  15.513  69.307  1.00  0.00    -0.256 C  
BRANCH  27  28
HETATM   28  O   UNL     1      -9.428  16.029  68.120  1.00  0.00    -0.205 OA 
BRANCH  28  29
HETATM   29  C   UNL     1      -9.382  17.394  68.028  1.00  0.00    -0.276 A  
HETATM   30  C   UNL     1     -10.528  18.000  67.510  1.00  0.00    -0.408 A  
HETATM   31  C   UNL     1     -10.594  19.388  67.374  1.00  0.00    -0.603 A  
HETATM   32  C   UNL     1      -9.517  20.178  67.770  1.00  0.00    -0.479 A  
HETATM   33  C   UNL     1      -8.378  19.581  68.307  1.00  0.00    -0.375 A  
HETATM   34  C   UNL     1      -8.310  18.191  68.438  1.00  0.00    -0.311 A  
ENDBRANCH  28  29
ENDBRANCH  27  28
ENDBRANCH  24  27
ENDBRANCH  23  24
ENDBRANCH  19  22
ENDBRANCH  12  13
ENDBRANCH  11  12
ENDBRANCH   9  10
ENDBRANCH   8   9
ENDBRANCH   7   8
ENDBRANCH   5   7
ENDBRANCH   4   5
ENDBRANCH   2   4
TORSDOF 13
ENDMDL
MODEL       11
REMARK 921   NORMALIZED FREE ENERGY PREDICTED BY IDOCK:   -6.31 KCAL/MOL
REMARK 922        TOTAL FREE ENERGY PREDICTED BY IDOCK:  -13.95 KCAL/MOL
REMARK 923 INTER-LIGAND FREE ENERGY PREDICTED BY IDOCK:  -10.94 KCAL/MOL
REMARK 924 INTRA-LIGAND FREE ENERGY PREDICTED BY IDOCK:   -3.01 KCAL/MOL
REMARK 927      BINDING AFFINITY PREDICTED BY RF-SCORE:    0.00 PKD
ROOT
HETATM    1  C   UNL     1     -10.511  19.477  68.169  1.00  0.00    -0.497 C  
HETATM    2  C   UNL     1      -9.823  19.001  66.894  1.00  0.00    -0.331 C  
HETATM    3  C   UNL     1     -10.161  19.915  65.723  1.00  0.00    -0.486 C  
ENDROOT
BRANCH   2   4
HETATM    4  O   UNL     1      -8.396  19.040  67.077  1.00  0.00    -0.265 OA 
BRANCH   4   5
HETATM    5  C   UNL     1      -7.680  18.198  66.281  1.00  0.00    -0.255 C  
HETATM    6  O   UNL     1      -6.992  18.537  65.329  1.00  0.00    -0.527 OA 
BRANCH   5   7
HETATM    7  C   UNL     1      -7.895  16.771  66.713  1.00  0.00    -0.281 C  
BRANCH   7   8
HETATM    8  C   UNL     1      -8.018  16.679  68.232  1.00  0.00    -0.192 C  
BRANCH   8   9
HETATM    9  C   UNL     1      -8.762  15.407  68.632  1.00  0.00    -0.191 C  
BRANCH   9  10
HETATM   10  C   UNL     1     -10.201  15.677  68.960  1.00  0.00    -0.225 C  
HETATM   11  C   UNL     1     -11.209  15.753  68.077  1.00  0.00    -0.338 C  
BRANCH  11  12
HETATM   12  C   UNL     1     -11.100  15.585  66.585  1.00  0.00    -0.193 C  
BRANCH  12  13
HETATM   13  C   UNL     1     -11.416  14.143  66.170  1.00  0.00    -0.350 C  
HETATM   14  C   UNL     1     -12.341  14.019  64.952  1.00  0.00    -0.427 C  
HETATM   15  C   UNL     1     -12.118  12.583  64.501  1.00  0.00    -0.496 C  
HETATM   16  O   UNL     1     -11.942  14.889  63.895  1.00  0.00    -0.847 OA 
HETATM   17  C   UNL     1     -10.603  12.417  64.606  1.00  0.00    -0.308 C  
HETATM   18  H   UNL     1     -12.515  14.811  63.141  1.00  0.00     0.000 HD 
HETATM   19  C   UNL     1     -10.151  13.338  65.769  1.00  0.00    -0.293 C  
HETATM   20  O   UNL     1      -9.987  12.839  63.388  1.00  0.00    -0.642 OA 
HETATM   21  H   UNL     1      -9.045  12.735  63.452  1.00  0.00     0.000 HD 
BRANCH  19  22
HETATM   22  C   UNL     1      -9.525  12.556  66.908  1.00  0.00    -0.219 C  
HETATM   23  C   UNL     1      -9.743  11.252  67.159  1.00  0.00    -0.201 C  
BRANCH  23  24
HETATM   24  C   UNL     1      -9.026  10.444  68.214  1.00  0.00    -0.135 C  
HETATM   25  F   UNL     1      -8.083  11.213  68.824  1.00  0.00    -0.123 F  
HETATM   26  F   UNL     1      -8.362   9.415  67.621  1.00  0.00    -0.115 F  
BRANCH  24  27
HETATM   27  C   UNL     1      -9.995   9.889  69.271  1.00  0.00    -0.207 C  
BRANCH  27  28
HETATM   28  O   UNL     1     -11.342  10.296  68.992  1.00  0.00    -0.231 OA 
BRANCH  28  29
HETATM   29  C   UNL     1     -11.945  11.041  69.970  1.00  0.00    -0.351 A  
HETATM   30  C   UNL     1     -11.813  12.425  69.838  1.00  0.00    -0.376 A  
HETATM   31  C   UNL     1     -12.390  13.282  70.777  1.00  0.00    -0.425 A  
HETATM   32  C   UNL     1     -13.115  12.759  71.846  1.00  0.00    -0.474 A  
HETATM   33  C   UNL     1     -13.267  11.379  71.971  1.00  0.00    -0.432 A  
HETATM   34  C   UNL     1     -12.685  10.519  71.034  1.00  0.00    -0.504 A  
ENDBRANCH  28  29
ENDBRANCH  27  28
ENDBRANCH  24  27
ENDBRANCH  23  24
ENDBRANCH  19  22
ENDBRANCH  12  13
ENDBRANCH  11  12
ENDBRANCH   9  10
ENDBRANCH   8   9
ENDBRANCH   7   8
ENDBRANCH   5   7
ENDBRANCH   4   5
ENDBRANCH   2   4
TORSDOF 13
ENDMDL
MODEL       12
REMARK 921   NORMALIZED FREE ENERGY PREDICTED BY IDOCK:   -6.29 KCAL/MOL
REMARK 922        TOTAL FREE ENERGY PREDICTED BY IDOCK:  -13.90 KCAL/MOL
REMARK 923 INTER-LIGAND FREE ENERGY PREDICTED BY IDOCK:  -11.53 KCAL/MOL
REMARK 924 INTRA-LIGAND FREE ENERGY PREDICTED BY IDOCK:   -2.37 KCAL/MOL
REMARK 927      BINDING AFFINITY PREDICTED BY RF-SCORE:    0.00 PKD
ROOT
HETATM    1  C   UNL     1     -11.049   6.351  68.332  1.00  0.00    -0.374 C  
HETATM    2  C   UNL     1     -10.986   5.884  69.782  1.00  0.00    -0.382 C  
HETATM    3  C   UNL     1      -9.891   4.842  69.968  1.00  0.00    -0.297 C  
ENDROOT
BRANCH   2   4
HETATM    4  O   UNL     1     -10.671   7.002  70.631  1.00  0.00    -0.221 OA 
BRANCH   4   5
HETATM    5  C   UNL     1     -11.742   7.687  71.119  1.00  0.00    -0.290 C  
HETATM    6  O   UNL     1     -12.802   7.189  71.471  1.00  0.00    -0.369 OA 
BRANCH   5   7
HETATM    7  C   UNL     1     -11.455   9.166  71.117  1.00  0.00    -0.388 C  
BRANCH   7   8
HETATM    8  C   UNL     1     -10.028   9.438  70.644  1.00  0.00    -0.349 C  
BRANCH   8   9
HETATM    9  C   UNL     1     -10.031  10.427  69.481  1.00  0.00    -0.229 C  
BRANCH   9  10
HETATM   10  C   UNL     1     -10.960  10.001  68.382  1.00  0.00    -0.266 C  
HETATM   11  C   UNL     1     -10.832  10.304  67.081  1.00  0.00    -0.278 C  
BRANCH  11  12
HETATM   12  C   UNL     1      -9.734  11.130  66.462  1.00  0.00    -0.228 C  
BRANCH  12  13
HETATM   13  C   UNL     1     -10.312  12.325  65.696  1.00  0.00    -0.287 C  
HETATM   14  C   UNL     1     -10.306  12.165  64.170  1.00  0.00    -0.354 C  
HETATM   15  C   UNL     1     -11.302  13.221  63.714  1.00  0.00    -0.295 C  
HETATM   16  O   UNL     1     -10.794  10.886  63.771  1.00  0.00    -0.536 OA 
HETATM   17  C   UNL     1     -12.448  13.073  64.714  1.00  0.00    -0.427 C  
HETATM   18  H   UNL     1     -10.791  10.787  62.825  1.00  0.00     0.000 HD 
HETATM   19  C   UNL     1     -11.799  12.605  66.042  1.00  0.00    -0.492 C  
HETATM   20  O   UNL     1     -13.367  12.082  64.250  1.00  0.00    -0.709 OA 
HETATM   21  H   UNL     1     -14.080  11.990  64.871  1.00  0.00     0.000 HD 
BRANCH  19  22
HETATM   22  C   UNL     1     -11.997  13.609  67.161  1.00  0.00    -0.434 C  
HETATM   23  C   UNL     1     -11.148  13.798  68.188  1.00  0.00    -0.282 C  
BRANCH  23  24
HETATM   24  C   UNL     1     -11.281  14.881  69.232  1.00  0.00    -0.284 C  
HETATM   25  F   UNL     1     -11.655  14.333  70.421  1.00  0.00    -0.308 F  
HETATM   26  F   UNL     1     -12.275  15.736  68.869  1.00  0.00    -0.363 F  
BRANCH  24  27
HETATM   27  C   UNL     1      -9.972  15.665  69.418  1.00  0.00    -0.279 C  
BRANCH  27  28
HETATM   28  O   UNL     1      -9.439  16.078  68.152  1.00  0.00    -0.205 OA 
BRANCH  28  29
HETATM   29  C   UNL     1      -9.682  17.381  67.811  1.00  0.00    -0.268 A  
HETATM   30  C   UNL     1     -10.231  17.578  66.542  1.00  0.00    -0.342 A  
HETATM   31  C   UNL     1     -10.522  18.867  66.090  1.00  0.00    -0.521 A  
HETATM   32  C   UNL     1     -10.280  19.965  66.912  1.00  0.00    -0.600 A  
HETATM   33  C   UNL     1      -9.752  19.773  68.188  1.00  0.00    -0.506 A  
HETATM   34  C   UNL     1      -9.454  18.484  68.639  1.00  0.00    -0.373 A  
ENDBRANCH  28  29
ENDBRANCH  27  28
ENDBRANCH  24  27
ENDBRANCH  23  24
ENDBRANCH  19  22
ENDBRANCH  12  13
ENDBRANCH  11  12
ENDBRANCH   9  10
ENDBRANCH   8   9
ENDBRANCH   7   8
ENDBRANCH   5   7
ENDBRANCH   4   5
ENDBRANCH   2   4
TORSDOF 13
ENDMDL
MODEL       13
REMARK 921   NORMALIZED FREE ENERGY PREDICTED BY IDOCK:   -6.28 KCAL/MOL
REMARK 922        TOTAL FREE ENERGY PREDICTED BY IDOCK:  -13.89 KCAL/MOL
REMARK 923 INTER-LIGAND FREE ENERGY PREDICTED BY IDOCK:  -11.41 KCAL/MOL
REMARK 924 INTRA-LIGAND FREE ENERGY PREDICTED BY IDOCK:   -2.48 KCAL/MOL
REMARK 927      BINDING AFFINITY PREDICTED BY RF-SCORE:    0.00 PKD
ROOT
HETATM    1  C   UNL     1      -7.061  19.094  66.195  1.00  0.00    -0.273 C  
HETATM    2  C   UNL     1      -7.663  17.694  66.254  1.00  0.00    -0.289 C  
HETATM    3  C   UNL     1      -6.795  16.768  67.096  1.00  0.00    -0.231 C  
ENDROOT
BRANCH   2   4
HETATM    4  O   UNL     1      -8.960  17.758  66.873  1.00  0.00    -0.242 OA 
BRANCH   4   5
HETATM    5  C   UNL     1     -10.020  17.645  66.025  1.00  0.00    -0.209 C  
HETATM    6  O   UNL     1     -10.670  18.579  65.575  1.00  0.00    -0.586 OA 
BRANCH   5   7
HETATM    7  C   UNL     1     -10.316  16.193  65.758  1.00  0.00    -0.398 C  
BRANCH   7   8
HETATM    8  C   UNL     1     -11.113  15.583  66.908  1.00  0.00    -0.221 C  
BRANCH   8   9
HETATM    9  C   UNL     1     -11.059  14.058  66.846  1.00  0.00    -0.310 C  
BRANCH   9  10
HETATM   10  C   UNL     1     -12.240  13.482  66.122  1.00  0.00    -0.484 C  
HETATM   11  C   UNL     1     -12.210  12.879  64.923  1.00  0.00    -0.504 C  
BRANCH  11  12
HETATM   12  C   UNL     1     -10.991  12.660  64.065  1.00  0.00    -0.448 C  
BRANCH  12  13
HETATM   13  C   UNL     1     -10.474  11.224  64.203  1.00  0.00    -0.431 C  
HETATM   14  C   UNL     1      -9.608  10.745  63.030  1.00  0.00    -0.353 C  
HETATM   15  C   UNL     1      -8.888   9.537  63.612  1.00  0.00    -0.236 C  
HETATM   16  O   UNL     1      -8.630  11.717  62.664  1.00  0.00    -0.640 OA 
HETATM   17  C   UNL     1      -8.480  10.013  65.006  1.00  0.00    -0.160 C  
HETATM   18  H   UNL     1      -8.094  11.419  61.938  1.00  0.00     0.000 HD 
HETATM   19  C   UNL     1      -9.572  11.022  65.449  1.00  0.00    -0.267 C  
HETATM   20  O   UNL     1      -7.213  10.669  64.939  1.00  0.00    -0.341 OA 
HETATM   21  H   UNL     1      -6.960  10.964  65.806  1.00  0.00     0.000 HD 
BRANCH  19  22
HETATM   22  C   UNL     1     -10.315  10.553  66.685  1.00  0.00    -0.295 C  
HETATM   23  C   UNL     1      -9.864  10.670  67.948  1.00  0.00    -0.181 C  
BRANCH  23  24
HETATM   24  C   UNL     1     -10.656  10.319  69.184  1.00  0.00    -0.230 C  
HETATM   25  F   UNL     1      -9.857  10.404  70.284  1.00  0.00    -0.213 F  
HETATM   26  F   UNL     1     -11.066   9.024  69.104  1.00  0.00    -0.198 F  
BRANCH  24  27
HETATM   27  C   UNL     1     -11.877  11.235  69.365  1.00  0.00    -0.355 C  
BRANCH  27  28
HETATM   28  O   UNL     1     -12.143  11.461  70.757  1.00  0.00    -0.363 OA 
BRANCH  28  29
HETATM   29  C   UNL     1     -12.591  12.715  71.073  1.00  0.00    -0.262 A  
HETATM   30  C   UNL     1     -12.119  13.745  70.256  1.00  0.00    -0.425 A  
HETATM   31  C   UNL     1     -12.512  15.065  70.484  1.00  0.00    -0.425 A  
HETATM   32  C   UNL     1     -13.394  15.359  71.522  1.00  0.00    -0.586 A  
HETATM   33  C   UNL     1     -13.886  14.333  72.327  1.00  0.00    -0.622 A  
HETATM   34  C   UNL     1     -13.487  13.012  72.103  1.00  0.00    -0.638 A  
ENDBRANCH  28  29
ENDBRANCH  27  28
ENDBRANCH  24  27
ENDBRANCH  23  24
ENDBRANCH  19  22
ENDBRANCH  12  13
ENDBRANCH  11  12
ENDBRANCH   9  10
ENDBRANCH   8   9
ENDBRANCH   7   8
ENDBRANCH   5   7
ENDBRANCH   4   5
ENDBRANCH   2   4
TORSDOF 13
ENDMDL
MODEL       14
REMARK 921   NORMALIZED FREE ENERGY PREDICTED BY IDOCK:   -6.28 KCAL/MOL
REMARK 922        TOTAL FREE ENERGY PREDICTED BY IDOCK:  -13.88 KCAL/MOL
REMARK 923 INTER-LIGAND FREE ENERGY PREDICTED BY IDOCK:  -11.06 KCAL/MOL
REMARK 924 INTRA-LIGAND FREE ENERGY PREDICTED BY IDOCK:   -2.83 KCAL/MOL
REMARK 927      BINDING AFFINITY PREDICTED BY RF-SCORE:    0.00 PKD
ROOT
HETATM    1  C   UNL     1     -11.483   6.128  72.349  1.00  0.00    -0.349 C  
HETATM    2  C   UNL     1     -11.666   7.471  71.651  1.00  0.00    -0.282 C  
HETATM    3  C   UNL     1     -13.114   7.935  71.742  1.00  0.00    -0.352 C  
ENDROOT
BRANCH   2   4
HETATM    4  O   UNL     1     -10.851   8.462  72.300  1.00  0.00    -0.308 OA 
BRANCH   4   5
HETATM    5  C   UNL     1      -9.643   8.701  71.717  1.00  0.00    -0.290 C  
HETATM    6  O   UNL     1      -8.616   8.999  72.310  1.00  0.00    -0.362 OA 
BRANCH   5   7
HETATM    7  C   UNL     1      -9.762   8.594  70.220  1.00  0.00    -0.191 C  
BRANCH   7   8
HETATM    8  C   UNL     1      -9.036   9.751  69.536  1.00  0.00    -0.227 C  
BRANCH   8   9
HETATM    9  C   UNL     1      -9.951  10.969  69.432  1.00  0.00    -0.019 C  
BRANCH   9  10
HETATM   10  C   UNL     1     -11.382  10.580  69.203  1.00  0.00    -0.319 C  
HETATM   11  C   UNL     1     -12.435  10.990  69.928  1.00  0.00    -0.286 C  
BRANCH  11  12
HETATM   12  C   UNL     1     -12.393  11.920  71.112  1.00  0.00    -0.303 C  
BRANCH  12  13
HETATM   13  C   UNL     1     -12.865  13.325  70.724  1.00  0.00    -0.194 C  
HETATM   14  C   UNL     1     -13.799  13.988  71.745  1.00  0.00    -0.392 C  
HETATM   15  C   UNL     1     -13.736  15.458  71.360  1.00  0.00    -0.591 C  
HETATM   16  O   UNL     1     -13.308  13.851  73.077  1.00  0.00    -0.623 OA 
HETATM   17  C   UNL     1     -12.248  15.685  71.097  1.00  0.00    -0.413 C  
HETATM   18  H   UNL     1     -13.887  14.262  73.709  1.00  0.00     0.000 HD 
HETATM   19  C   UNL     1     -11.696  14.335  70.569  1.00  0.00    -0.309 C  
HETATM   20  O   UNL     1     -11.590  16.031  72.317  1.00  0.00    -0.440 OA 
HETATM   21  H   UNL     1     -10.665  16.173  72.154  1.00  0.00     0.000 HD 
BRANCH  19  22
HETATM   22  C   UNL     1     -11.159  14.450  69.155  1.00  0.00    -0.290 C  
HETATM   23  C   UNL     1     -11.770  13.969  68.056  1.00  0.00    -0.394 C  
BRANCH  23  24
HETATM   24  C   UNL     1     -11.300  14.192  66.639  1.00  0.00    -0.344 C  
HETATM   25  F   UNL     1     -12.317  14.698  65.888  1.00  0.00    -0.342 F  
HETATM   26  F   UNL     1     -10.965  12.997  66.082  1.00  0.00    -0.280 F  
BRANCH  24  27
HETATM   27  C   UNL     1     -10.094  15.145  66.576  1.00  0.00    -0.269 C  
BRANCH  27  28
HETATM   28  O   UNL     1     -10.421  16.333  65.841  1.00  0.00    -0.334 OA 
BRANCH  28  29
HETATM   29  C   UNL     1     -10.320  17.504  66.543  1.00  0.00    -0.325 A  
HETATM   30  C   UNL     1     -10.347  18.670  65.775  1.00  0.00    -0.232 A  
HETATM   31  C   UNL     1     -10.255  19.922  66.387  1.00  0.00    -0.617 A  
HETATM   32  C   UNL     1     -10.149  20.013  67.773  1.00  0.00    -0.563 A  
HETATM   33  C   UNL     1     -10.143  18.853  68.547  1.00  0.00    -0.460 A  
HETATM   34  C   UNL     1     -10.230  17.600  67.935  1.00  0.00    -0.357 A  
ENDBRANCH  28  29
ENDBRANCH  27  28
ENDBRANCH  24  27
ENDBRANCH  23  24
ENDBRANCH  19  22
ENDBRANCH  12  13
ENDBRANCH  11  12
ENDBRANCH   9  10
ENDBRANCH   8   9
ENDBRANCH   7   8
ENDBRANCH   5   7
ENDBRANCH   4   5
ENDBRANCH   2   4
TORSDOF 13
ENDMDL
MODEL       15
REMARK 921   NORMALIZED FREE ENERGY PREDICTED BY IDOCK:   -6.27 KCAL/MOL
REMARK 922        TOTAL FREE ENERGY PREDICTED BY IDOCK:  -13.87 KCAL/MOL
REMARK 923 INTER-LIGAND FREE ENERGY PREDICTED BY IDOCK:  -11.82 KCAL/MOL
REMARK 924 INTRA-LIGAND FREE ENERGY PREDICTED BY IDOCK:   -2.05 KCAL/MOL
REMARK 927      BINDING AFFINITY PREDICTED BY RF-SCORE:    0.00 PKD
ROOT
HETATM    1  C   UNL     1     -11.360  16.031  64.573  1.00  0.00    -0.303 C  
HETATM    2  C   UNL     1     -11.575  14.553  64.882  1.00  0.00    -0.401 C  
HETATM    3  C   UNL     1     -12.248  14.376  66.237  1.00  0.00    -0.366 C  
ENDROOT
BRANCH   2   4
HETATM    4  O   UNL     1     -12.442  13.978  63.888  1.00  0.00    -0.696 OA 
BRANCH   4   5
HETATM    5  C   UNL     1     -12.142  12.701  63.518  1.00  0.00    -0.561 C  
HETATM    6  O   UNL     1     -12.956  11.851  63.184  1.00  0.00    -0.640 OA 
BRANCH   5   7
HETATM    7  C   UNL     1     -10.659  12.466  63.627  1.00  0.00    -0.481 C  
BRANCH   7   8
HETATM    8  C   UNL     1     -10.340  10.975  63.531  1.00  0.00    -0.402 C  
BRANCH   8   9
HETATM    9  C   UNL     1      -9.953  10.422  64.900  1.00  0.00    -0.409 C  
BRANCH   9  10
HETATM   10  C   UNL     1     -10.585  11.196  66.019  1.00  0.00    -0.298 C  
HETATM   11  C   UNL     1     -10.449  10.939  67.330  1.00  0.00    -0.275 C  
BRANCH  11  12
HETATM   12  C   UNL     1      -9.639   9.825  67.939  1.00  0.00    -0.158 C  
BRANCH  12  13
HETATM   13  C   UNL     1     -10.495   8.570  68.141  1.00  0.00    -0.236 C  
HETATM   14  C   UNL     1     -10.419   7.557  66.990  1.00  0.00    -0.338 C  
HETATM   15  C   UNL     1     -10.955   6.282  67.625  1.00  0.00    -0.438 C  
HETATM   16  O   UNL     1      -9.074   7.323  66.580  1.00  0.00    -0.141 OA 
HETATM   17  C   UNL     1     -10.280   6.266  68.996  1.00  0.00    -0.184 C  
HETATM   18  H   UNL     1      -9.027   6.695  65.868  1.00  0.00     0.000 HD 
HETATM   19  C   UNL     1     -10.084   7.752  69.394  1.00  0.00    -0.195 C  
HETATM   20  O   UNL     1      -9.008   5.620  68.899  1.00  0.00    -0.111 OA 
HETATM   21  H   UNL     1      -8.589   5.609  69.751  1.00  0.00     0.000 HD 
BRANCH  19  22
HETATM   22  C   UNL     1     -10.853   8.113  70.650  1.00  0.00    -0.246 C  
HETATM   23  C   UNL     1     -11.867   8.997  70.707  1.00  0.00    -0.251 C  
BRANCH  23  24
HETATM   24  C   UNL     1     -12.713   9.264  71.929  1.00  0.00    -0.394 C  
HETATM   25  F   UNL     1     -12.062   8.834  73.045  1.00  0.00    -0.302 F  
HETATM   26  F   UNL     1     -13.862   8.541  71.848  1.00  0.00    -0.357 F  
BRANCH  24  27
HETATM   27  C   UNL     1     -13.053  10.756  72.079  1.00  0.00    -0.371 C  
BRANCH  27  28
HETATM   28  O   UNL     1     -12.426  11.529  71.045  1.00  0.00    -0.380 OA 
BRANCH  28  29
HETATM   29  C   UNL     1     -12.659  12.877  71.097  1.00  0.00    -0.281 A  
HETATM   30  C   UNL     1     -13.451  13.309  72.163  1.00  0.00    -0.655 A  
HETATM   31  C   UNL     1     -13.751  14.664  72.317  1.00  0.00    -0.565 A  
HETATM   32  C   UNL     1     -13.246  15.596  71.412  1.00  0.00    -0.540 A  
HETATM   33  C   UNL     1     -12.438  15.173  70.358  1.00  0.00    -0.416 A  
HETATM   34  C   UNL     1     -12.142  13.816  70.200  1.00  0.00    -0.429 A  
ENDBRANCH  28  29
ENDBRANCH  27  28
ENDBRANCH  24  27
ENDBRANCH  23  24
ENDBRANCH  19  22
ENDBRANCH  12  13
ENDBRANCH  11  12
ENDBRANCH   9  10
ENDBRANCH   8   9
ENDBRANCH   7   8
ENDBRANCH   5   7
ENDBRANCH   4   5
ENDBRANCH   2   4
TORSDOF 13
ENDMDL
MODEL       16
REMARK 921   NORMALIZED FREE ENERGY PREDICTED BY IDOCK:   -6.24 KCAL/MOL
REMARK 922        TOTAL FREE ENERGY PREDICTED BY IDOCK:  -13.82 KCAL/MOL
REMARK 923 INTER-LIGAND FREE ENERGY PREDICTED BY IDOCK:  -11.90 KCAL/MOL
REMARK 924 INTRA-LIGAND FREE ENERGY PREDICTED BY IDOCK:   -1.92 KCAL/MOL
REMARK 927      BINDING AFFINITY PREDICTED BY RF-SCORE:    0.00 PKD
ROOT
HETATM    1  C   UNL     1     -11.218  15.914  64.819  1.00  0.00    -0.364 C  
HETATM    2  C   UNL     1     -11.472  14.429  65.057  1.00  0.00    -0.372 C  
HETATM    3  C   UNL     1     -12.038  14.195  66.452  1.00  0.00    -0.475 C  
ENDROOT
BRANCH   2   4
HETATM    4  O   UNL     1     -12.443  13.953  64.108  1.00  0.00    -0.659 OA 
BRANCH   4   5
HETATM    5  C   UNL     1     -12.213  12.704  63.613  1.00  0.00    -0.536 C  
HETATM    6  O   UNL     1     -13.074  11.876  63.351  1.00  0.00    -0.710 OA 
BRANCH   5   7
HETATM    7  C   UNL     1     -10.733  12.466  63.478  1.00  0.00    -0.473 C  
BRANCH   7   8
HETATM    8  C   UNL     1     -10.432  10.972  63.384  1.00  0.00    -0.320 C  
BRANCH   8   9
HETATM    9  C   UNL     1      -9.574  10.524  64.565  1.00  0.00    -0.359 C  
BRANCH   9  10
HETATM   10  C   UNL     1     -10.183  10.909  65.881  1.00  0.00    -0.314 C  
HETATM   11  C   UNL     1     -10.349  10.099  66.939  1.00  0.00    -0.298 C  
BRANCH  11  12
HETATM   12  C   UNL     1      -9.960   8.646  67.018  1.00  0.00    -0.317 C  
BRANCH  12  13
HETATM   13  C   UNL     1      -9.661   8.236  68.464  1.00  0.00    -0.165 C  
HETATM   14  C   UNL     1      -8.208   7.811  68.717  1.00  0.00    -0.128 C  
HETATM   15  C   UNL     1      -8.086   7.906  70.230  1.00  0.00    -0.115 C  
HETATM   16  O   UNL     1      -7.282   8.725  68.134  1.00  0.00    -0.080 OA 
HETATM   17  C   UNL     1      -8.798   9.218  70.556  1.00  0.00    -0.241 C  
HETATM   18  H   UNL     1      -6.382   8.462  68.291  1.00  0.00     0.000 HD 
HETATM   19  C   UNL     1      -9.904   9.382  69.481  1.00  0.00    -0.192 C  
HETATM   20  O   UNL     1      -7.873  10.304  70.466  1.00  0.00    -0.427 OA 
HETATM   21  H   UNL     1      -8.315  11.119  70.669  1.00  0.00     0.000 HD 
BRANCH  19  22
HETATM   22  C   UNL     1     -11.294   9.390  70.087  1.00  0.00    -0.220 C  
HETATM   23  C   UNL     1     -11.639  10.032  71.219  1.00  0.00    -0.430 C  
BRANCH  23  24
HETATM   24  C   UNL     1     -13.046  10.144  71.756  1.00  0.00    -0.463 C  
HETATM   25  F   UNL     1     -13.181   9.365  72.864  1.00  0.00    -0.429 F  
HETATM   26  F   UNL     1     -13.920   9.658  70.833  1.00  0.00    -0.371 F  
BRANCH  24  27
HETATM   27  C   UNL     1     -13.417  11.595  72.101  1.00  0.00    -0.133 C  
BRANCH  27  28
HETATM   28  O   UNL     1     -12.864  12.506  71.139  1.00  0.00    -0.320 OA 
BRANCH  28  29
HETATM   29  C   UNL     1     -12.581  13.758  71.613  1.00  0.00    -0.279 A  
HETATM   30  C   UNL     1     -13.249  14.123  72.784  1.00  0.00    -0.604 A  
HETATM   31  C   UNL     1     -13.034  15.378  73.359  1.00  0.00    -0.662 A  
HETATM   32  C   UNL     1     -12.138  16.268  72.772  1.00  0.00    -0.637 A  
HETATM   33  C   UNL     1     -11.453  15.902  71.614  1.00  0.00    -0.473 A  
HETATM   34  C   UNL     1     -11.671  14.648  71.035  1.00  0.00    -0.331 A  
ENDBRANCH  28  29
ENDBRANCH  27  28
ENDBRANCH  24  27
ENDBRANCH  23  24
ENDBRANCH  19  22
ENDBRANCH  12  13
ENDBRANCH  11  12
ENDBRANCH   9  10
ENDBRANCH   8   9
ENDBRANCH   7   8
ENDBRANCH   5   7
ENDBRANCH   4   5
ENDBRANCH   2   4
TORSDOF 13
ENDMDL
MODEL       17
REMARK 921   NORMALIZED FREE ENERGY PREDICTED BY IDOCK:   -6.23 KCAL/MOL
REMARK 922        TOTAL FREE ENERGY PREDICTED BY IDOCK:  -13.80 KCAL/MOL
REMARK 923 INTER-LIGAND FREE ENERGY PREDICTED BY IDOCK:  -11.22 KCAL/MOL
REMARK 924 INTRA-LIGAND FREE ENERGY PREDICTED BY IDOCK:   -2.58 KCAL/MOL
REMARK 927      BINDING AFFINITY PREDICTED BY RF-SCORE:    0.00 PKD
ROOT
HETATM    1  C   UNL     1     -11.162  15.814  64.856  1.00  0.00    -0.358 C  
HETATM    2  C   UNL     1     -11.537  14.357  65.109  1.00  0.00    -0.361 C  
HETATM    3  C   UNL     1     -12.266  14.211  66.439  1.00  0.00    -0.473 C  
ENDROOT
BRANCH   2   4
HETATM    4  O   UNL     1     -12.428  13.906  64.074  1.00  0.00    -0.679 OA 
BRANCH   4   5
HETATM    5  C   UNL     1     -12.154  12.673  63.562  1.00  0.00    -0.561 C  
HETATM    6  O   UNL     1     -12.983  11.890  63.120  1.00  0.00    -0.640 OA 
BRANCH   5   7
HETATM    7  C   UNL     1     -10.680  12.387  63.665  1.00  0.00    -0.497 C  
BRANCH   7   8
HETATM    8  C   UNL     1     -10.403  10.898  63.468  1.00  0.00    -0.342 C  
BRANCH   8   9
HETATM    9  C   UNL     1      -9.786  10.297  64.728  1.00  0.00    -0.403 C  
BRANCH   9  10
HETATM   10  C   UNL     1     -10.251  10.998  65.971  1.00  0.00    -0.305 C  
HETATM   11  C   UNL     1     -10.039  10.588  67.232  1.00  0.00    -0.242 C  
BRANCH  11  12
HETATM   12  C   UNL     1      -9.295   9.348  67.653  1.00  0.00    -0.146 C  
BRANCH  12  13
HETATM   13  C   UNL     1     -10.251   8.159  67.801  1.00  0.00    -0.288 C  
HETATM   14  C   UNL     1     -10.080   7.068  66.736  1.00  0.00    -0.200 C  
HETATM   15  C   UNL     1     -10.781   5.871  67.360  1.00  0.00    -0.370 C  
HETATM   16  O   UNL     1      -8.708   6.732  66.539  1.00  0.00    -0.125 OA 
HETATM   17  C   UNL     1     -10.309   5.909  68.813  1.00  0.00    -0.219 C  
HETATM   18  H   UNL     1      -8.602   6.056  65.880  1.00  0.00     0.000 HD 
HETATM   19  C   UNL     1     -10.075   7.406  69.147  1.00  0.00    -0.189 C  
HETATM   20  O   UNL     1      -9.081   5.189  68.939  1.00  0.00    -0.102 OA 
HETATM   21  H   UNL     1      -8.788   5.212  69.842  1.00  0.00     0.000 HD 
BRANCH  19  22
HETATM   22  C   UNL     1     -10.989   7.893  70.255  1.00  0.00    -0.249 C  
HETATM   23  C   UNL     1     -12.238   7.444  70.479  1.00  0.00    -0.034 C  
BRANCH  23  24
HETATM   24  C   UNL     1     -13.100   7.838  71.654  1.00  0.00    -0.345 C  
HETATM   25  F   UNL     1     -12.354   7.845  72.793  1.00  0.00    -0.275 F  
HETATM   26  F   UNL     1     -14.072   6.903  71.834  1.00  0.00    -0.438 F  
BRANCH  24  27
HETATM   27  C   UNL     1     -13.746   9.219  71.457  1.00  0.00    -0.316 C  
BRANCH  27  28
HETATM   28  O   UNL     1     -13.074  10.213  72.245  1.00  0.00    -0.405 OA 
BRANCH  28  29
HETATM   29  C   UNL     1     -12.845  11.406  71.613  1.00  0.00    -0.391 A  
HETATM   30  C   UNL     1     -12.142  11.323  70.410  1.00  0.00    -0.474 A  
HETATM   31  C   UNL     1     -11.853  12.477  69.678  1.00  0.00    -0.382 A  
HETATM   32  C   UNL     1     -12.282  13.719  70.140  1.00  0.00    -0.425 A  
HETATM   33  C   UNL     1     -13.003  13.806  71.330  1.00  0.00    -0.433 A  
HETATM   34  C   UNL     1     -13.286  12.652  72.066  1.00  0.00    -0.555 A  
ENDBRANCH  28  29
ENDBRANCH  27  28
ENDBRANCH  24  27
ENDBRANCH  23  24
ENDBRANCH  19  22
ENDBRANCH  12  13
ENDBRANCH  11  12
ENDBRANCH   9  10
ENDBRANCH   8   9
ENDBRANCH   7   8
ENDBRANCH   5   7
ENDBRANCH   4   5
ENDBRANCH   2   4
TORSDOF 13
ENDMDL
MODEL       18
REMARK 921   NORMALIZED FREE ENERGY PREDICTED BY IDOCK:   -6.20 KCAL/MOL
REMARK 922        TOTAL FREE ENERGY PREDICTED BY IDOCK:  -13.75 KCAL/MOL
REMARK 923 INTER-LIGAND FREE ENERGY PREDICTED BY IDOCK:  -11.14 KCAL/MOL
REMARK 924 INTRA-LIGAND FREE ENERGY PREDICTED BY IDOCK:   -2.61 KCAL/MOL
REMARK 927      BINDING AFFINITY PREDICTED BY RF-SCORE:    0.00 PKD
ROOT
HETATM    1  C   UNL     1     -10.009  17.323  67.529  1.00  0.00    -0.296 C  
HETATM    2  C   UNL     1      -9.914  16.471  66.268  1.00  0.00    -0.329 C  
HETATM    3  C   UNL     1      -8.890  15.357  66.444  1.00  0.00    -0.340 C  
ENDROOT
BRANCH   2   4
HETATM    4  O   UNL     1     -11.188  15.854  66.011  1.00  0.00    -0.105 OA 
BRANCH   4   5
HETATM    5  C   UNL     1     -11.501  15.681  64.697  1.00  0.00    -0.303 C  
HETATM    6  O   UNL     1     -11.598  16.575  63.868  1.00  0.00    -1.175 OA 
BRANCH   5   7
HETATM    7  C   UNL     1     -11.762  14.225  64.416  1.00  0.00    -0.405 C  
BRANCH   7   8
HETATM    8  C   UNL     1     -12.665  13.621  65.489  1.00  0.00    -0.514 C  
BRANCH   8   9
HETATM    9  C   UNL     1     -11.894  12.604  66.326  1.00  0.00    -0.471 C  
BRANCH   9  10
HETATM   10  C   UNL     1     -10.922  11.815  65.498  1.00  0.00    -0.344 C  
HETATM   11  C   UNL     1      -9.688  11.443  65.874  1.00  0.00    -0.257 C  
BRANCH  11  12
HETATM   12  C   UNL     1      -9.032  11.742  67.196  1.00  0.00    -0.177 C  
BRANCH  12  13
HETATM   13  C   UNL     1      -8.670  10.448  67.934  1.00  0.00    -0.118 C  
HETATM   14  C   UNL     1      -7.184  10.070  67.865  1.00  0.00    -0.087 C  
HETATM   15  C   UNL     1      -7.035   9.071  69.002  1.00  0.00    -0.063 C  
HETATM   16  O   UNL     1      -6.342  11.189  68.137  1.00  0.00    -0.053 OA 
HETATM   17  C   UNL     1      -7.835   9.711  70.136  1.00  0.00    -0.174 C  
HETATM   18  H   UNL     1      -5.422  10.954  68.094  1.00  0.00     0.000 HD 
HETATM   19  C   UNL     1      -8.974  10.514  69.455  1.00  0.00    -0.111 C  
HETATM   20  O   UNL     1      -6.995  10.599  70.877  1.00  0.00    -0.371 OA 
HETATM   21  H   UNL     1      -7.492  10.996  71.582  1.00  0.00     0.000 HD 
BRANCH  19  22
HETATM   22  C   UNL     1     -10.347   9.994  69.836  1.00  0.00    -0.315 C  
HETATM   23  C   UNL     1     -10.674   9.491  71.041  1.00  0.00    -0.411 C  
BRANCH  23  24
HETATM   24  C   UNL     1     -12.068   9.089  71.461  1.00  0.00    -0.340 C  
HETATM   25  F   UNL     1     -12.092   8.829  72.797  1.00  0.00    -0.415 F  
HETATM   26  F   UNL     1     -12.411   7.931  70.835  1.00  0.00    -0.299 F  
BRANCH  24  27
HETATM   27  C   UNL     1     -13.103  10.177  71.132  1.00  0.00    -0.392 C  
BRANCH  27  28
HETATM   28  O   UNL     1     -13.115  11.193  72.146  1.00  0.00    -0.463 OA 
BRANCH  28  29
HETATM   29  C   UNL     1     -13.052  12.481  71.687  1.00  0.00    -0.315 A  
HETATM   30  C   UNL     1     -13.753  13.423  72.443  1.00  0.00    -0.698 A  
HETATM   31  C   UNL     1     -13.756  14.768  72.069  1.00  0.00    -0.527 A  
HETATM   32  C   UNL     1     -13.044  15.180  70.945  1.00  0.00    -0.498 A  
HETATM   33  C   UNL     1     -12.325  14.248  70.198  1.00  0.00    -0.413 A  
HETATM   34  C   UNL     1     -12.326  12.900  70.568  1.00  0.00    -0.362 A  
ENDBRANCH  28  29
ENDBRANCH  27  28
ENDBRANCH  24  27
ENDBRANCH  23  24
ENDBRANCH  19  22
ENDBRANCH  12  13
ENDBRANCH  11  12
ENDBRANCH   9  10
ENDBRANCH   8   9
ENDBRANCH   7   8
ENDBRANCH   5   7
ENDBRANCH   4   5
ENDBRANCH   2   4
TORSDOF 13
ENDMDL
MODEL       19
REMARK 921   NORMALIZED FREE ENERGY PREDICTED BY IDOCK:   -6.20 KCAL/MOL
REMARK 922        TOTAL FREE ENERGY PREDICTED BY IDOCK:  -13.74 KCAL/MOL
REMARK 923 INTER-LIGAND FREE ENERGY PREDICTED BY IDOCK:  -11.77 KCAL/MOL
REMARK 924 INTRA-LIGAND FREE ENERGY PREDICTED BY IDOCK:   -1.98 KCAL/MOL
REMARK 927      BINDING AFFINITY PREDICTED BY RF-SCORE:    0.00 PKD
ROOT
HETATM    1  C   UNL     1     -11.395   6.182  70.647  1.00  0.00    -0.368 C  
HETATM    2  C   UNL     1     -11.820   6.401  72.095  1.00  0.00    -0.314 C  
HETATM    3  C   UNL     1     -10.950   5.584  73.043  1.00  0.00    -0.336 C  
ENDROOT
BRANCH   2   4
HETATM    4  O   UNL     1     -11.653   7.788  72.438  1.00  0.00    -0.316 OA 
BRANCH   4   5
HETATM    5  C   UNL     1     -12.611   8.629  71.958  1.00  0.00    -0.378 C  
HETATM    6  O   UNL     1     -13.812   8.396  71.935  1.00  0.00    -0.374 OA 
BRANCH   5   7
HETATM    7  C   UNL     1     -11.975   9.878  71.408  1.00  0.00    -0.489 C  
BRANCH   7   8
HETATM    8  C   UNL     1     -10.493   9.646  71.117  1.00  0.00    -0.281 C  
BRANCH   8   9
HETATM    9  C   UNL     1     -10.097  10.311  69.801  1.00  0.00    -0.244 C  
BRANCH   9  10
HETATM   10  C   UNL     1     -11.281  10.545  68.910  1.00  0.00    -0.323 C  
HETATM   11  C   UNL     1     -11.283  10.480  67.569  1.00  0.00    -0.299 C  
BRANCH  11  12
HETATM   12  C   UNL     1     -10.101  10.162  66.691  1.00  0.00    -0.283 C  
BRANCH  12  13
HETATM   13  C   UNL     1      -9.889  11.255  65.638  1.00  0.00    -0.277 C  
HETATM   14  C   UNL     1      -9.401  10.741  64.277  1.00  0.00    -0.245 C  
HETATM   15  C   UNL     1      -9.711  11.903  63.345  1.00  0.00    -0.296 C  
HETATM   16  O   UNL     1     -10.148   9.606  63.843  1.00  0.00    -0.263 OA 
HETATM   17  C   UNL     1     -11.106  12.342  63.788  1.00  0.00    -0.445 C  
HETATM   18  H   UNL     1      -9.846   9.288  62.999  1.00  0.00     0.000 HD 
HETATM   19  C   UNL     1     -11.189  12.035  65.306  1.00  0.00    -0.374 C  
HETATM   20  O   UNL     1     -12.095  11.586  63.086  1.00  0.00    -0.925 OA 
HETATM   21  H   UNL     1     -12.962  11.859  63.361  1.00  0.00     0.000 HD 
BRANCH  19  22
HETATM   22  C   UNL     1     -11.389  13.290  66.133  1.00  0.00    -0.335 C  
HETATM   23  C   UNL     1     -10.408  13.965  66.760  1.00  0.00    -0.272 C  
BRANCH  23  24
HETATM   24  C   UNL     1     -10.587  15.281  67.478  1.00  0.00    -0.273 C  
HETATM   25  F   UNL     1     -10.547  16.306  66.583  1.00  0.00    -0.299 F  
HETATM   26  F   UNL     1      -9.546  15.473  68.333  1.00  0.00    -0.190 F  
BRANCH  24  27
HETATM   27  C   UNL     1     -11.910  15.335  68.259  1.00  0.00    -0.228 C  
BRANCH  27  28
HETATM   28  O   UNL     1     -12.020  14.218  69.154  1.00  0.00    -0.319 OA 
BRANCH  28  29
HETATM   29  C   UNL     1     -12.257  14.537  70.464  1.00  0.00    -0.332 A  
HETATM   30  C   UNL     1     -12.999  13.600  71.186  1.00  0.00    -0.353 A  
HETATM   31  C   UNL     1     -13.298  13.820  72.532  1.00  0.00    -0.656 A  
HETATM   32  C   UNL     1     -12.843  14.974  73.167  1.00  0.00    -0.615 A  
HETATM   33  C   UNL     1     -12.085  15.903  72.457  1.00  0.00    -0.611 A  
HETATM   34  C   UNL     1     -11.790  15.686  71.108  1.00  0.00    -0.454 A  
ENDBRANCH  28  29
ENDBRANCH  27  28
ENDBRANCH  24  27
ENDBRANCH  23  24
ENDBRANCH  19  22
ENDBRANCH  12  13
ENDBRANCH  11  12
ENDBRANCH   9  10
ENDBRANCH   8   9
ENDBRANCH   7   8
ENDBRANCH   5   7
ENDBRANCH   4   5
ENDBRANCH   2   4
TORSDOF 13
ENDMDL
MODEL       20
REMARK 921   NORMALIZED FREE ENERGY PREDICTED BY IDOCK:   -6.19 KCAL/MOL
REMARK 922        TOTAL FREE ENERGY PREDICTED BY IDOCK:  -13.72 KCAL/MOL
REMARK 923 INTER-LIGAND FREE ENERGY PREDICTED BY IDOCK:  -11.18 KCAL/MOL
REMARK 924 INTRA-LIGAND FREE ENERGY PREDICTED BY IDOCK:   -2.54 KCAL/MOL
REMARK 927      BINDING AFFINITY PREDICTED BY RF-SCORE:    0.00 PKD
ROOT
HETATM    1  C   UNL     1      -9.857   6.493  71.293  1.00  0.00    -0.197 C  
HETATM    2  C   UNL     1     -11.099   7.068  70.622  1.00  0.00    -0.272 C  
HETATM    3  C   UNL     1     -11.278   6.483  69.226  1.00  0.00    -0.390 C  
ENDROOT
BRANCH   2   4
HETATM    4  O   UNL     1     -12.263   6.718  71.391  1.00  0.00    -0.343 OA 
BRANCH   4   5
HETATM    5  C   UNL     1     -13.155   7.728  71.596  1.00  0.00    -0.345 C  
HETATM    6  O   UNL     1     -14.334   7.708  71.274  1.00  0.00    -0.397 OA 
BRANCH   5   7
HETATM    7  C   UNL     1     -12.465   8.904  72.236  1.00  0.00    -0.440 C  
BRANCH   7   8
HETATM    8  C   UNL     1     -13.017  10.218  71.688  1.00  0.00    -0.570 C  
BRANCH   8   9
HETATM    9  C   UNL     1     -11.945  10.956  70.890  1.00  0.00    -0.416 C  
BRANCH   9  10
HETATM   10  C   UNL     1     -12.347  11.154  69.458  1.00  0.00    -0.262 C  
HETATM   11  C   UNL     1     -11.597  10.866  68.383  1.00  0.00    -0.346 C  
BRANCH  11  12
HETATM   12  C   UNL     1     -10.206  10.288  68.396  1.00  0.00    -0.189 C  
BRANCH  12  13
HETATM   13  C   UNL     1      -9.404  10.761  67.178  1.00  0.00    -0.171 C  
HETATM   14  C   UNL     1      -9.015   9.644  66.200  1.00  0.00    -0.154 C  
HETATM   15  C   UNL     1      -8.664  10.410  64.933  1.00  0.00    -0.197 C  
HETATM   16  O   UNL     1     -10.118   8.786  65.914  1.00  0.00    -0.448 OA 
HETATM   17  C   UNL     1      -9.772  11.457  64.840  1.00  0.00    -0.247 C  
HETATM   18  H   UNL     1      -9.877   8.095  65.307  1.00  0.00     0.000 HD 
HETATM   19  C   UNL     1     -10.179  11.781  66.302  1.00  0.00    -0.255 C  
HETATM   20  O   UNL     1     -10.891  10.913  64.137  1.00  0.00    -0.428 OA 
HETATM   21  H   UNL     1     -11.580  11.565  64.079  1.00  0.00     0.000 HD 
BRANCH  19  22
HETATM   22  C   UNL     1      -9.918  13.231  66.660  1.00  0.00    -0.272 C  
HETATM   23  C   UNL     1     -10.872  14.158  66.869  1.00  0.00    -0.296 C  
BRANCH  23  24
HETATM   24  C   UNL     1     -10.618  15.567  67.346  1.00  0.00    -0.292 C  
HETATM   25  F   UNL     1     -10.844  16.447  66.332  1.00  0.00    -0.295 F  
HETATM   26  F   UNL     1      -9.307  15.698  67.687  1.00  0.00    -0.200 F  
BRANCH  24  27
HETATM   27  C   UNL     1     -11.502  15.935  68.550  1.00  0.00    -0.377 C  
BRANCH  27  28
HETATM   28  O   UNL     1     -11.947  14.756  69.235  1.00  0.00    -0.303 OA 
BRANCH  28  29
HETATM   29  C   UNL     1     -12.361  14.949  70.526  1.00  0.00    -0.342 A  
HETATM   30  C   UNL     1     -11.654  15.913  71.246  1.00  0.00    -0.509 A  
HETATM   31  C   UNL     1     -11.991  16.195  72.571  1.00  0.00    -0.660 A  
HETATM   32  C   UNL     1     -13.050  15.523  73.178  1.00  0.00    -0.656 A  
HETATM   33  C   UNL     1     -13.774  14.574  72.457  1.00  0.00    -0.580 A  
HETATM   34  C   UNL     1     -13.433  14.287  71.132  1.00  0.00    -0.335 A  
ENDBRANCH  28  29
ENDBRANCH  27  28
ENDBRANCH  24  27
ENDBRANCH  23  24
ENDBRANCH  19  22
ENDBRANCH  12  13
ENDBRANCH  11  12
ENDBRANCH   9  10
ENDBRANCH   8   9
ENDBRANCH   7   8
ENDBRANCH   5   7
ENDBRANCH   4   5
ENDBRANCH   2   4
TORSDOF 13
ENDMDL
MODEL       21
REMARK 921   NORMALIZED FREE ENERGY PREDICTED BY IDOCK:   -6.17 KCAL/MOL
REMARK 922        TOTAL FREE ENERGY PREDICTED BY IDOCK:  -13.69 KCAL/MOL
REMARK 923 INTER-LIGAND FREE ENERGY PREDICTED BY IDOCK:  -10.83 KCAL/MOL
REMARK 924 INTRA-LIGAND FREE ENERGY PREDICTED BY IDOCK:   -2.86 KCAL/MOL
REMARK 927      BINDING AFFINITY PREDICTED BY RF-SCORE:    0.00 PKD
ROOT
HETATM    1  C   UNL     1      -8.477   7.293  66.636  1.00  0.00    -0.124 C  
HETATM    2  C   UNL     1      -9.989   7.396  66.459  1.00  0.00    -0.124 C  
HETATM    3  C   UNL     1     -10.700   6.300  67.243  1.00  0.00    -0.424 C  
ENDROOT
BRANCH   2   4
HETATM    4  O   UNL     1     -10.445   8.661  66.970  1.00  0.00    -0.295 OA 
BRANCH   4   5
HETATM    5  C   UNL     1      -9.962   9.760  66.327  1.00  0.00    -0.262 C  
HETATM    6  O   UNL     1      -9.979   9.939  65.117  1.00  0.00    -0.318 OA 
BRANCH   5   7
HETATM    7  C   UNL     1      -9.352  10.714  67.320  1.00  0.00    -0.166 C  
BRANCH   7   8
HETATM    8  C   UNL     1      -9.839  10.405  68.735  1.00  0.00    -0.190 C  
BRANCH   8   9
HETATM    9  C   UNL     1      -8.658  10.087  69.649  1.00  0.00    -0.198 C  
BRANCH   9  10
HETATM   10  C   UNL     1      -8.561   8.620  69.952  1.00  0.00    -0.131 C  
HETATM   11  C   UNL     1      -9.237   7.968  70.911  1.00  0.00    -0.163 C  
BRANCH  11  12
HETATM   12  C   UNL     1     -10.224   8.573  71.874  1.00  0.00    -0.369 C  
BRANCH  12  13
HETATM   13  C   UNL     1     -11.636   8.586  71.277  1.00  0.00    -0.332 C  
HETATM   14  C   UNL     1     -12.415   7.277  71.460  1.00  0.00    -0.373 C  
HETATM   15  C   UNL     1     -13.854   7.701  71.210  1.00  0.00    -0.338 C  
HETATM   16  O   UNL     1     -12.317   6.785  72.795  1.00  0.00    -0.380 OA 
HETATM   17  C   UNL     1     -13.964   9.024  71.967  1.00  0.00    -0.410 C  
HETATM   18  H   UNL     1     -12.800   5.975  72.907  1.00  0.00     0.000 HD 
HETATM   19  C   UNL     1     -12.552   9.665  71.913  1.00  0.00    -0.481 C  
HETATM   20  O   UNL     1     -14.329   8.773  73.325  1.00  0.00    -1.125 OA 
HETATM   21  H   UNL     1     -14.398   9.595  73.795  1.00  0.00     0.000 HD 
BRANCH  19  22
HETATM   22  C   UNL     1     -12.554  10.991  71.177  1.00  0.00    -0.522 C  
HETATM   23  C   UNL     1     -12.827  12.184  71.738  1.00  0.00    -0.367 C  
BRANCH  23  24
HETATM   24  C   UNL     1     -12.706  13.515  71.036  1.00  0.00    -0.322 C  
HETATM   25  F   UNL     1     -11.831  14.314  71.707  1.00  0.00    -0.355 F  
HETATM   26  F   UNL     1     -13.909  14.151  71.065  1.00  0.00    -0.341 F  
BRANCH  24  27
HETATM   27  C   UNL     1     -12.243  13.358  69.579  1.00  0.00    -0.205 C  
BRANCH  27  28
HETATM   28  O   UNL     1     -11.798  14.615  69.047  1.00  0.00    -0.299 OA 
BRANCH  28  29
HETATM   29  C   UNL     1     -11.485  14.609  67.714  1.00  0.00    -0.340 A  
HETATM   30  C   UNL     1     -11.893  13.477  67.005  1.00  0.00    -0.447 A  
HETATM   31  C   UNL     1     -11.629  13.365  65.639  1.00  0.00    -0.350 A  
HETATM   32  C   UNL     1     -10.968  14.394  64.971  1.00  0.00    -0.398 A  
HETATM   33  C   UNL     1     -10.576  15.536  65.669  1.00  0.00    -0.389 A  
HETATM   34  C   UNL     1     -10.835  15.646  67.038  1.00  0.00    -0.294 A  
ENDBRANCH  28  29
ENDBRANCH  27  28
ENDBRANCH  24  27
ENDBRANCH  23  24
ENDBRANCH  19  22
ENDBRANCH  12  13
ENDBRANCH  11  12
ENDBRANCH   9  10
ENDBRANCH   8   9
ENDBRANCH   7   8
ENDBRANCH   5   7
ENDBRANCH   4   5
ENDBRANCH   2   4
TORSDOF 13
ENDMDL
MODEL       22
REMARK 921   NORMALIZED FREE ENERGY PREDICTED BY IDOCK:   -6.14 KCAL/MOL
REMARK 922        TOTAL FREE ENERGY PREDICTED BY IDOCK:  -13.65 KCAL/MOL
REMARK 923 INTER-LIGAND FREE ENERGY PREDICTED BY IDOCK:  -11.03 KCAL/MOL
REMARK 924 INTRA-LIGAND FREE ENERGY PREDICTED BY IDOCK:   -2.62 KCAL/MOL
REMARK 927      BINDING AFFINITY PREDICTED BY RF-SCORE:    0.00 PKD
ROOT
HETATM    1  C   UNL     1      -9.317  15.219  66.239  1.00  0.00    -0.345 C  
HETATM    2  C   UNL     1     -10.684  15.393  65.585  1.00  0.00    -0.369 C  
HETATM    3  C   UNL     1     -10.889  16.834  65.137  1.00  0.00    -0.150 C  
ENDROOT
BRANCH   2   4
HETATM    4  O   UNL     1     -10.764  14.559  64.416  1.00  0.00    -0.270 OA 
BRANCH   4   5
HETATM    5  C   UNL     1     -11.837  13.719  64.368  1.00  0.00    -0.427 C  
HETATM    6  O   UNL     1     -12.911  13.910  64.921  1.00  0.00    -0.687 OA 
BRANCH   5   7
HETATM    7  C   UNL     1     -11.493  12.488  63.573  1.00  0.00    -0.570 C  
BRANCH   7   8
HETATM    8  C   UNL     1     -11.250  11.297  64.499  1.00  0.00    -0.176 C  
BRANCH   8   9
HETATM    9  C   UNL     1     -10.215  11.652  65.564  1.00  0.00    -0.302 C  
BRANCH   9  10
HETATM   10  C   UNL     1     -10.427  10.881  66.834  1.00  0.00    -0.299 C  
HETATM   11  C   UNL     1     -11.121  11.302  67.904  1.00  0.00    -0.325 C  
BRANCH  11  12
HETATM   12  C   UNL     1     -11.821  12.628  68.046  1.00  0.00    -0.376 C  
BRANCH  12  13
HETATM   13  C   UNL     1     -11.573  13.233  69.432  1.00  0.00    -0.364 C  
HETATM   14  C   UNL     1     -11.325  14.748  69.430  1.00  0.00    -0.285 C  
HETATM   15  C   UNL     1     -11.565  15.133  70.882  1.00  0.00    -0.380 C  
HETATM   16  O   UNL     1     -12.274  15.437  68.619  1.00  0.00    -0.569 OA 
HETATM   17  C   UNL     1     -12.821  14.343  71.248  1.00  0.00    -0.342 C  
HETATM   18  H   UNL     1     -12.120  16.375  68.618  1.00  0.00     0.000 HD 
HETATM   19  C   UNL     1     -12.774  13.047  70.397  1.00  0.00    -0.046 C  
HETATM   20  O   UNL     1     -13.983  15.102  70.910  1.00  0.00    -0.694 OA 
HETATM   21  H   UNL     1     -14.764  14.611  71.138  1.00  0.00     0.000 HD 
BRANCH  19  22
HETATM   22  C   UNL     1     -12.693  11.801  71.257  1.00  0.00    -0.420 C  
HETATM   23  C   UNL     1     -13.151  10.586  70.901  1.00  0.00    -0.390 C  
BRANCH  23  24
HETATM   24  C   UNL     1     -12.959   9.321  71.703  1.00  0.00    -0.374 C  
HETATM   25  F   UNL     1     -13.633   8.295  71.114  1.00  0.00    -0.283 F  
HETATM   26  F   UNL     1     -13.503   9.484  72.939  1.00  0.00    -0.400 F  
BRANCH  24  27
HETATM   27  C   UNL     1     -11.474   8.947  71.840  1.00  0.00    -0.372 C  
BRANCH  27  28
HETATM   28  O   UNL     1     -11.270   7.556  71.555  1.00  0.00    -0.239 OA 
BRANCH  28  29
HETATM   29  C   UNL     1     -10.877   7.271  70.275  1.00  0.00    -0.245 A  
HETATM   30  C   UNL     1      -9.849   8.070  69.770  1.00  0.00    -0.183 A  
HETATM   31  C   UNL     1      -9.366   7.867  68.475  1.00  0.00    -0.141 A  
HETATM   32  C   UNL     1      -9.899   6.852  67.685  1.00  0.00    -0.164 A  
HETATM   33  C   UNL     1     -10.911   6.036  68.191  1.00  0.00    -0.365 A  
HETATM   34  C   UNL     1     -11.399   6.243  69.484  1.00  0.00    -0.475 A  
ENDBRANCH  28  29
ENDBRANCH  27  28
ENDBRANCH  24  27
ENDBRANCH  23  24
ENDBRANCH  19  22
ENDBRANCH  12  13
ENDBRANCH  11  12
ENDBRANCH   9  10
ENDBRANCH   8   9
ENDBRANCH   7   8
ENDBRANCH   5   7
ENDBRANCH   4   5
ENDBRANCH   2   4
TORSDOF 13
ENDMDL
MODEL       23
REMARK 921   NORMALIZED FREE ENERGY PREDICTED BY IDOCK:   -6.14 KCAL/MOL
REMARK 922        TOTAL FREE ENERGY PREDICTED BY IDOCK:  -13.64 KCAL/MOL
REMARK 923 INTER-LIGAND FREE ENERGY PREDICTED BY IDOCK:  -11.11 KCAL/MOL
REMARK 924 INTRA-LIGAND FREE ENERGY PREDICTED BY IDOCK:   -2.53 KCAL/MOL
REMARK 927      BINDING AFFINITY PREDICTED BY RF-SCORE:    0.00 PKD
ROOT
HETATM    1  C   UNL     1     -12.617  13.590  65.216  1.00  0.00    -0.517 C  
HETATM    2  C   UNL     1     -12.030  12.344  64.562  1.00  0.00    -0.402 C  
HETATM    3  C   UNL     1     -12.886  11.897  63.384  1.00  0.00    -0.393 C  
ENDROOT
BRANCH   2   4
HETATM    4  O   UNL     1     -10.717  12.643  64.057  1.00  0.00    -0.370 OA 
BRANCH   4   5
HETATM    5  C   UNL     1      -9.958  11.562  63.722  1.00  0.00    -0.349 C  
HETATM    6  O   UNL     1      -9.284  11.456  62.707  1.00  0.00    -0.358 OA 
BRANCH   5   7
HETATM    7  C   UNL     1     -10.107  10.484  64.763  1.00  0.00    -0.406 C  
BRANCH   7   8
HETATM    8  C   UNL     1      -8.775  10.222  65.463  1.00  0.00    -0.176 C  
BRANCH   8   9
HETATM    9  C   UNL     1      -8.361  11.432  66.296  1.00  0.00    -0.111 C  
BRANCH   9  10
HETATM   10  C   UNL     1      -9.362  11.746  67.369  1.00  0.00    -0.174 C  
HETATM   11  C   UNL     1      -9.933  12.941  67.589  1.00  0.00    -0.218 C  
BRANCH  11  12
HETATM   12  C   UNL     1      -9.683  14.204  66.808  1.00  0.00    -0.283 C  
BRANCH  12  13
HETATM   13  C   UNL     1      -9.557  15.412  67.743  1.00  0.00    -0.210 C  
HETATM   14  C   UNL     1      -8.523  16.455  67.298  1.00  0.00    -0.175 C  
HETATM   15  C   UNL     1      -8.918  17.687  68.099  1.00  0.00    -0.269 C  
HETATM   16  O   UNL     1      -8.647  16.763  65.911  1.00  0.00    -0.500 OA 
HETATM   17  C   UNL     1     -10.442  17.702  67.986  1.00  0.00    -0.394 C  
HETATM   18  H   UNL     1      -8.007  17.410  65.636  1.00  0.00     0.000 HD 
HETATM   19  C   UNL     1     -10.877  16.217  67.874  1.00  0.00    -0.332 C  
HETATM   20  O   UNL     1     -10.831  18.409  66.807  1.00  0.00    -0.297 OA 
HETATM   21  H   UNL     1     -11.779  18.419  66.737  1.00  0.00     0.000 HD 
BRANCH  19  22
HETATM   22  C   UNL     1     -11.753  15.788  69.036  1.00  0.00    -0.405 C  
HETATM   23  C   UNL     1     -11.305  15.218  70.170  1.00  0.00    -0.313 C  
BRANCH  23  24
HETATM   24  C   UNL     1     -12.159  14.906  71.375  1.00  0.00    -0.337 C  
HETATM   25  F   UNL     1     -13.070  15.900  71.566  1.00  0.00    -0.492 F  
HETATM   26  F   UNL     1     -11.377  14.880  72.488  1.00  0.00    -0.435 F  
BRANCH  24  27
HETATM   27  C   UNL     1     -12.891  13.561  71.230  1.00  0.00    -0.338 C  
BRANCH  27  28
HETATM   28  O   UNL     1     -12.146  12.663  70.395  1.00  0.00    -0.364 OA 
BRANCH  28  29
HETATM   29  C   UNL     1     -12.201  11.344  70.757  1.00  0.00    -0.376 A  
HETATM   30  C   UNL     1     -11.225  10.524  70.188  1.00  0.00    -0.389 A  
HETATM   31  C   UNL     1     -11.184   9.161  70.488  1.00  0.00    -0.309 A  
HETATM   32  C   UNL     1     -12.111   8.614  71.372  1.00  0.00    -0.351 A  
HETATM   33  C   UNL     1     -13.076   9.432  71.960  1.00  0.00    -0.516 A  
HETATM   34  C   UNL     1     -13.121  10.796  71.655  1.00  0.00    -0.551 A  
ENDBRANCH  28  29
ENDBRANCH  27  28
ENDBRANCH  24  27
ENDBRANCH  23  24
ENDBRANCH  19  22
ENDBRANCH  12  13
ENDBRANCH  11  12
ENDBRANCH   9  10
ENDBRANCH   8   9
ENDBRANCH   7   8
ENDBRANCH   5   7
ENDBRANCH   4   5
ENDBRANCH   2   4
TORSDOF 13
ENDMDL
MODEL       24
REMARK 921   NORMALIZED FREE ENERGY PREDICTED BY IDOCK:   -6.13 KCAL/MOL
REMARK 922        TOTAL FREE ENERGY PREDICTED BY IDOCK:  -13.63 KCAL/MOL
REMARK 923 INTER-LIGAND FREE ENERGY PREDICTED BY IDOCK:  -11.15 KCAL/MOL
REMARK 924 INTRA-LIGAND FREE ENERGY PREDICTED BY IDOCK:   -2.47 KCAL/MOL
REMARK 927      BINDING AFFINITY PREDICTED BY RF-SCORE:    0.00 PKD
ROOT
HETATM    1  C   UNL     1      -7.322  18.921  68.792  1.00  0.00    -0.356 C  
HETATM    2  C   UNL     1      -8.525  19.160  67.885  1.00  0.00    -0.300 C  
HETATM    3  C   UNL     1      -8.285  20.357  66.974  1.00  0.00    -0.349 C  
ENDROOT
BRANCH   2   4
HETATM    4  O   UNL     1      -8.727  18.009  67.046  1.00  0.00    -0.236 OA 
BRANCH   4   5
HETATM    5  C   UNL     1      -9.278  16.925  67.661  1.00  0.00    -0.228 C  
HETATM    6  O   UNL     1      -8.832  15.787  67.627  1.00  0.00    -0.173 OA 
BRANCH   5   7
HETATM    7  C   UNL     1     -10.556  17.319  68.354  1.00  0.00    -0.368 C  
BRANCH   7   8
HETATM    8  C   UNL     1     -10.776  16.472  69.605  1.00  0.00    -0.323 C  
BRANCH   8   9
HETATM    9  C   UNL     1     -12.130  15.770  69.544  1.00  0.00    -0.261 C  
BRANCH   9  10
HETATM   10  C   UNL     1     -11.988  14.277  69.490  1.00  0.00    -0.384 C  
HETATM   11  C   UNL     1     -11.891  13.534  68.376  1.00  0.00    -0.408 C  
BRANCH  11  12
HETATM   12  C   UNL     1     -11.907  14.047  66.960  1.00  0.00    -0.458 C  
BRANCH  12  13
HETATM   13  C   UNL     1     -12.025  12.892  65.959  1.00  0.00    -0.505 C  
HETATM   14  C   UNL     1     -12.605  13.289  64.595  1.00  0.00    -0.293 C  
HETATM   15  C   UNL     1     -12.195  12.128  63.701  1.00  0.00    -0.663 C  
HETATM   16  O   UNL     1     -12.002  14.479  64.091  1.00  0.00    -0.627 OA 
HETATM   17  C   UNL     1     -10.747  11.865  64.115  1.00  0.00    -0.351 C  
HETATM   18  H   UNL     1     -12.361  14.724  63.246  1.00  0.00     0.000 HD 
HETATM   19  C   UNL     1     -10.656  12.246  65.616  1.00  0.00    -0.295 C  
HETATM   20  O   UNL     1      -9.869  12.694  63.352  1.00  0.00    -0.641 OA 
HETATM   21  H   UNL     1      -8.970  12.529  63.609  1.00  0.00     0.000 HD 
BRANCH  19  22
HETATM   22  C   UNL     1     -10.294  11.058  66.487  1.00  0.00    -0.295 C  
HETATM   23  C   UNL     1     -10.283   9.776  66.077  1.00  0.00    -0.263 C  
BRANCH  23  24
HETATM   24  C   UNL     1      -9.803   8.608  66.905  1.00  0.00    -0.238 C  
HETATM   25  F   UNL     1      -8.689   8.067  66.340  1.00  0.00    -0.122 F  
HETATM   26  F   UNL     1     -10.752   7.633  66.902  1.00  0.00    -0.381 F  
BRANCH  24  27
HETATM   27  C   UNL     1      -9.494   9.019  68.354  1.00  0.00    -0.146 C  
BRANCH  27  28
HETATM   28  O   UNL     1     -10.137   8.135  69.284  1.00  0.00    -0.191 OA 
BRANCH  28  29
HETATM   29  C   UNL     1     -11.045   8.723  70.121  1.00  0.00    -0.202 A  
HETATM   30  C   UNL     1     -11.257  10.088  69.915  1.00  0.00    -0.327 A  
HETATM   31  C   UNL     1     -12.164  10.792  70.710  1.00  0.00    -0.480 A  
HETATM   32  C   UNL     1     -12.876  10.128  71.706  1.00  0.00    -0.554 A  
HETATM   33  C   UNL     1     -12.685   8.761  71.904  1.00  0.00    -0.427 A  
HETATM   34  C   UNL     1     -11.773   8.058  71.112  1.00  0.00    -0.307 A  
ENDBRANCH  28  29
ENDBRANCH  27  28
ENDBRANCH  24  27
ENDBRANCH  23  24
ENDBRANCH  19  22
ENDBRANCH  12  13
ENDBRANCH  11  12
ENDBRANCH   9  10
ENDBRANCH   8   9
ENDBRANCH   7   8
ENDBRANCH   5   7
ENDBRANCH   4   5
ENDBRANCH   2   4
TORSDOF 13
ENDMDL
MODEL       25
REMARK 921   NORMALIZED FREE ENERGY PREDICTED BY IDOCK:   -6.10 KCAL/MOL
REMARK 922        TOTAL FREE ENERGY PREDICTED BY IDOCK:  -13.58 KCAL/MOL
REMARK 923 INTER-LIGAND FREE ENERGY PREDICTED BY IDOCK:   -9.58 KCAL/MOL
REMARK 924 INTRA-LIGAND FREE ENERGY PREDICTED BY IDOCK:   -4.00 KCAL/MOL
REMARK 927      BINDING AFFINITY PREDICTED BY RF-SCORE:    0.00 PKD
ROOT
HETATM    1  C   UNL     1     -10.261  10.488  64.707  1.00  0.00    -0.373 C  
HETATM    2  C   UNL     1     -10.157  11.621  63.692  1.00  0.00    -0.402 C  
HETATM    3  C   UNL     1      -9.249  11.227  62.534  1.00  0.00    -0.265 C  
ENDROOT
BRANCH   2   4
HETATM    4  O   UNL     1     -11.460  11.895  63.148  1.00  0.00    -0.300 OA 
BRANCH   4   5
HETATM    5  C   UNL     1     -12.354  12.443  64.018  1.00  0.00    -0.488 C  
HETATM    6  O   UNL     1     -13.461  11.992  64.276  1.00  0.00    -0.654 OA 
BRANCH   5   7
HETATM    7  C   UNL     1     -11.803  13.724  64.587  1.00  0.00    -0.427 C  
BRANCH   7   8
HETATM    8  C   UNL     1     -12.293  13.936  66.017  1.00  0.00    -0.511 C  
BRANCH   8   9
HETATM    9  C   UNL     1     -11.365  13.240  67.009  1.00  0.00    -0.346 C  
BRANCH   9  10
HETATM   10  C   UNL     1     -11.512  13.789  68.398  1.00  0.00    -0.351 C  
HETATM   11  C   UNL     1     -11.953  13.111  69.470  1.00  0.00    -0.354 C  
BRANCH  11  12
HETATM   12  C   UNL     1     -12.388  11.669  69.494  1.00  0.00    -0.152 C  
BRANCH  12  13
HETATM   13  C   UNL     1     -11.295  10.776  70.092  1.00  0.00    -0.390 C  
HETATM   14  C   UNL     1     -11.741   9.947  71.304  1.00  0.00    -0.392 C  
HETATM   15  C   UNL     1     -10.669   8.872  71.394  1.00  0.00    -0.382 C  
HETATM   16  O   UNL     1     -12.997   9.311  71.075  1.00  0.00    -0.496 OA 
HETATM   17  C   UNL     1     -10.470   8.456  69.937  1.00  0.00    -0.222 C  
HETATM   18  H   UNL     1     -13.273   8.797  71.825  1.00  0.00     0.000 HD 
HETATM   19  C   UNL     1     -10.759   9.721  69.087  1.00  0.00    -0.242 C  
HETATM   20  O   UNL     1     -11.401   7.424  69.600  1.00  0.00    -0.455 OA 
HETATM   21  H   UNL     1     -11.277   7.165  68.694  1.00  0.00     0.000 HD 
BRANCH  19  22
HETATM   22  C   UNL     1      -9.543  10.172  68.302  1.00  0.00    -0.150 C  
HETATM   23  C   UNL     1      -8.823  11.279  68.564  1.00  0.00    -0.159 C  
BRANCH  23  24
HETATM   24  C   UNL     1      -7.542  11.662  67.863  1.00  0.00    -0.115 C  
HETATM   25  F   UNL     1      -7.753  11.732  66.519  1.00  0.00    -0.145 F  
HETATM   26  F   UNL     1      -6.612  10.688  68.058  1.00  0.00    -0.061 F  
BRANCH  24  27
HETATM   27  C   UNL     1      -6.990  13.006  68.364  1.00  0.00    -0.100 C  
BRANCH  27  28
HETATM   28  O   UNL     1      -7.064  14.004  67.336  1.00  0.00    -0.180 OA 
BRANCH  28  29
HETATM   29  C   UNL     1      -7.955  15.018  67.564  1.00  0.00    -0.178 A  
HETATM   30  C   UNL     1      -8.603  15.515  66.432  1.00  0.00    -0.292 A  
HETATM   31  C   UNL     1      -9.535  16.548  66.547  1.00  0.00    -0.296 A  
HETATM   32  C   UNL     1      -9.835  17.079  67.799  1.00  0.00    -0.271 A  
HETATM   33  C   UNL     1      -9.208  16.572  68.936  1.00  0.00    -0.258 A  
HETATM   34  C   UNL     1      -8.270  15.542  68.821  1.00  0.00    -0.177 A  
ENDBRANCH  28  29
ENDBRANCH  27  28
ENDBRANCH  24  27
ENDBRANCH  23  24
ENDBRANCH  19  22
ENDBRANCH  12  13
ENDBRANCH  11  12
ENDBRANCH   9  10
ENDBRANCH   8   9
ENDBRANCH   7   8
ENDBRANCH   5   7
ENDBRANCH   4   5
ENDBRANCH   2   4
TORSDOF 13
ENDMDL
MODEL       26
REMARK 921   NORMALIZED FREE ENERGY PREDICTED BY IDOCK:   -6.07 KCAL/MOL
REMARK 922        TOTAL FREE ENERGY PREDICTED BY IDOCK:  -13.51 KCAL/MOL
REMARK 923 INTER-LIGAND FREE ENERGY PREDICTED BY IDOCK:  -11.22 KCAL/MOL
REMARK 924 INTRA-LIGAND FREE ENERGY PREDICTED BY IDOCK:   -2.29 KCAL/MOL
REMARK 927      BINDING AFFINITY PREDICTED BY RF-SCORE:    0.00 PKD
ROOT
HETATM    1  C   UNL     1     -11.161  15.813  64.932  1.00  0.00    -0.358 C  
HETATM    2  C   UNL     1     -11.550  14.346  65.082  1.00  0.00    -0.361 C  
HETATM    3  C   UNL     1     -12.452  14.147  66.294  1.00  0.00    -0.395 C  
ENDROOT
BRANCH   2   4
HETATM    4  O   UNL     1     -12.286  13.926  63.919  1.00  0.00    -0.662 OA 
BRANCH   4   5
HETATM    5  C   UNL     1     -12.048  12.650  63.505  1.00  0.00    -0.561 C  
HETATM    6  O   UNL     1     -12.900  11.852  63.142  1.00  0.00    -0.636 OA 
BRANCH   5   7
HETATM    7  C   UNL     1     -10.578  12.341  63.605  1.00  0.00    -0.501 C  
BRANCH   7   8
HETATM    8  C   UNL     1     -10.272  10.969  63.008  1.00  0.00    -0.232 C  
BRANCH   8   9
HETATM    9  C   UNL     1      -8.792  10.632  63.171  1.00  0.00    -0.216 C  
BRANCH   9  10
HETATM   10  C   UNL     1      -8.584   9.388  63.984  1.00  0.00    -0.222 C  
HETATM   11  C   UNL     1      -8.252   9.343  65.284  1.00  0.00    -0.133 C  
BRANCH  11  12
HETATM   12  C   UNL     1      -8.021  10.527  66.186  1.00  0.00    -0.147 C  
BRANCH  12  13
HETATM   13  C   UNL     1      -9.343  11.039  66.769  1.00  0.00    -0.199 C  
HETATM   14  C   UNL     1     -10.394   9.949  67.016  1.00  0.00    -0.239 C  
HETATM   15  C   UNL     1     -11.365  10.623  67.974  1.00  0.00    -0.350 C  
HETATM   16  O   UNL     1      -9.833   8.813  67.671  1.00  0.00    -0.162 OA 
HETATM   17  C   UNL     1     -10.441  11.340  68.958  1.00  0.00    -0.194 C  
HETATM   18  H   UNL     1     -10.484   8.138  67.825  1.00  0.00     0.000 HD 
HETATM   19  C   UNL     1      -9.171  11.721  68.152  1.00  0.00    -0.186 C  
HETATM   20  O   UNL     1     -10.090  10.453  70.022  1.00  0.00    -0.419 OA 
HETATM   21  H   UNL     1      -9.517  10.899  70.634  1.00  0.00     0.000 HD 
BRANCH  19  22
HETATM   22  C   UNL     1      -8.967  13.222  68.084  1.00  0.00    -0.195 C  
HETATM   23  C   UNL     1      -9.850  14.142  68.517  1.00  0.00    -0.230 C  
BRANCH  23  24
HETATM   24  C   UNL     1      -9.595  15.629  68.564  1.00  0.00    -0.199 C  
HETATM   25  F   UNL     1      -9.207  16.070  67.335  1.00  0.00    -0.201 F  
HETATM   26  F   UNL     1      -8.561  15.883  69.411  1.00  0.00    -0.230 F  
BRANCH  24  27
HETATM   27  C   UNL     1     -10.837  16.412  69.020  1.00  0.00    -0.331 C  
BRANCH  27  28
HETATM   28  O   UNL     1     -11.926  15.521  69.302  1.00  0.00    -0.342 OA 
BRANCH  28  29
HETATM   29  C   UNL     1     -12.406  15.570  70.583  1.00  0.00    -0.416 A  
HETATM   30  C   UNL     1     -11.551  16.146  71.524  1.00  0.00    -0.502 A  
HETATM   31  C   UNL     1     -11.938  16.251  72.862  1.00  0.00    -0.615 A  
HETATM   32  C   UNL     1     -13.192  15.793  73.261  1.00  0.00    -0.687 A  
HETATM   33  C   UNL     1     -14.059  15.235  72.322  1.00  0.00    -0.651 A  
HETATM   34  C   UNL     1     -13.669  15.125  70.984  1.00  0.00    -0.450 A  
ENDBRANCH  28  29
ENDBRANCH  27  28
ENDBRANCH  24  27
ENDBRANCH  23  24
ENDBRANCH  19  22
ENDBRANCH  12  13
ENDBRANCH  11  12
ENDBRANCH   9  10
ENDBRANCH   8   9
ENDBRANCH   7   8
ENDBRANCH   5   7
ENDBRANCH   4   5
ENDBRANCH   2   4
TORSDOF 13
ENDMDL
MODEL       27
REMARK 921   NORMALIZED FREE ENERGY PREDICTED BY IDOCK:   -6.05 KCAL/MOL
REMARK 922        TOTAL FREE ENERGY PREDICTED BY IDOCK:  -13.48 KCAL/MOL
REMARK 923 INTER-LIGAND FREE ENERGY PREDICTED BY IDOCK:  -10.04 KCAL/MOL
REMARK 924 INTRA-LIGAND FREE ENERGY PREDICTED BY IDOCK:   -3.44 KCAL/MOL
REMARK 927      BINDING AFFINITY PREDICTED BY RF-SCORE:    0.00 PKD
ROOT
HETATM    1  C   UNL     1     -10.534   7.665  68.547  1.00  0.00    -0.206 C  
HETATM    2  C   UNL     1     -10.498   9.142  68.924  1.00  0.00    -0.218 C  
HETATM    3  C   UNL     1     -10.851   9.334  70.394  1.00  0.00    -0.302 C  
ENDROOT
BRANCH   2   4
HETATM    4  O   UNL     1      -9.168   9.653  68.726  1.00  0.00    -0.136 OA 
BRANCH   4   5
HETATM    5  C   UNL     1      -9.059  10.673  67.829  1.00  0.00    -0.143 C  
HETATM    6  O   UNL     1      -9.516  10.670  66.694  1.00  0.00    -0.163 OA 
BRANCH   5   7
HETATM    7  C   UNL     1      -8.247  11.796  68.419  1.00  0.00    -0.154 C  
BRANCH   7   8
HETATM    8  C   UNL     1      -7.358  12.436  67.355  1.00  0.00    -0.149 C  
BRANCH   8   9
HETATM    9  C   UNL     1      -7.469  13.958  67.412  1.00  0.00    -0.147 C  
BRANCH   9  10
HETATM   10  C   UNL     1      -8.027  14.433  68.722  1.00  0.00    -0.133 C  
HETATM   11  C   UNL     1      -8.288  15.708  69.050  1.00  0.00    -0.235 C  
BRANCH  11  12
HETATM   12  C   UNL     1      -8.073  16.915  68.176  1.00  0.00    -0.201 C  
BRANCH  12  13
HETATM   13  C   UNL     1      -9.365  17.728  68.035  1.00  0.00    -0.276 C  
HETATM   14  C   UNL     1      -9.335  19.095  68.731  1.00  0.00    -0.372 C  
HETATM   15  C   UNL     1     -10.490  19.836  68.073  1.00  0.00    -0.523 C  
HETATM   16  O   UNL     1      -8.130  19.805  68.451  1.00  0.00    -0.324 OA 
HETATM   17  C   UNL     1     -10.334  19.481  66.595  1.00  0.00    -0.465 C  
HETATM   18  H   UNL     1      -8.113  20.652  68.882  1.00  0.00     0.000 HD 
HETATM   19  C   UNL     1      -9.712  18.061  66.559  1.00  0.00    -0.338 C  
HETATM   20  O   UNL     1      -9.450  20.412  65.967  1.00  0.00    -0.638 OA 
HETATM   21  H   UNL     1      -9.353  20.192  65.048  1.00  0.00     0.000 HD 
BRANCH  19  22
HETATM   22  C   UNL     1     -10.629  17.052  65.895  1.00  0.00    -0.221 C  
HETATM   23  C   UNL     1     -10.262  15.818  65.501  1.00  0.00    -0.407 C  
BRANCH  23  24
HETATM   24  C   UNL     1     -11.201  14.770  64.955  1.00  0.00    -0.406 C  
HETATM   25  F   UNL     1     -10.501  13.851  64.235  1.00  0.00    -0.428 F  
HETATM   26  F   UNL     1     -12.075  15.354  64.090  1.00  0.00    -0.466 F  
BRANCH  24  27
HETATM   27  C   UNL     1     -11.982  14.058  66.072  1.00  0.00    -0.416 C  
BRANCH  27  28
HETATM   28  O   UNL     1     -11.105  13.670  67.139  1.00  0.00    -0.287 OA 
BRANCH  28  29
HETATM   29  C   UNL     1     -11.574  13.916  68.402  1.00  0.00    -0.332 A  
HETATM   30  C   UNL     1     -11.771  12.788  69.200  1.00  0.00    -0.375 A  
HETATM   31  C   UNL     1     -12.244  12.920  70.507  1.00  0.00    -0.395 A  
HETATM   32  C   UNL     1     -12.508  14.185  71.027  1.00  0.00    -0.438 A  
HETATM   33  C   UNL     1     -12.292  15.317  70.243  1.00  0.00    -0.407 A  
HETATM   34  C   UNL     1     -11.824  15.185  68.932  1.00  0.00    -0.337 A  
ENDBRANCH  28  29
ENDBRANCH  27  28
ENDBRANCH  24  27
ENDBRANCH  23  24
ENDBRANCH  19  22
ENDBRANCH  12  13
ENDBRANCH  11  12
ENDBRANCH   9  10
ENDBRANCH   8   9
ENDBRANCH   7   8
ENDBRANCH   5   7
ENDBRANCH   4   5
ENDBRANCH   2   4
TORSDOF 13
ENDMDL
MODEL       28
REMARK 921   NORMALIZED FREE ENERGY PREDICTED BY IDOCK:   -6.04 KCAL/MOL
REMARK 922        TOTAL FREE ENERGY PREDICTED BY IDOCK:  -13.47 KCAL/MOL
REMARK 923 INTER-LIGAND FREE ENERGY PREDICTED BY IDOCK:  -10.79 KCAL/MOL
REMARK 924 INTRA-LIGAND FREE ENERGY PREDICTED BY IDOCK:   -2.68 KCAL/MOL
REMARK 927      BINDING AFFINITY PREDICTED BY RF-SCORE:    0.00 PKD
ROOT
HETATM    1  C   UNL     1     -10.587  19.751  66.047  1.00  0.00    -0.573 C  
HETATM    2  C   UNL     1      -9.914  19.121  67.262  1.00  0.00    -0.356 C  
HETATM    3  C   UNL     1     -10.656  17.864  67.700  1.00  0.00    -0.398 C  
ENDROOT
BRANCH   2   4
HETATM    4  O   UNL     1      -8.571  18.736  66.919  1.00  0.00    -0.268 OA 
BRANCH   4   5
HETATM    5  C   UNL     1      -7.584  19.414  67.567  1.00  0.00    -0.250 C  
HETATM    6  O   UNL     1      -7.046  20.437  67.167  1.00  0.00    -0.252 OA 
BRANCH   5   7
HETATM    7  C   UNL     1      -7.207  18.693  68.834  1.00  0.00    -0.311 C  
BRANCH   7   8
HETATM    8  C   UNL     1      -6.034  17.747  68.589  1.00  0.00    -0.189 C  
BRANCH   8   9
HETATM    9  C   UNL     1      -6.534  16.324  68.355  1.00  0.00    -0.130 C  
BRANCH   9  10
HETATM   10  C   UNL     1      -7.718  15.994  69.216  1.00  0.00    -0.223 C  
HETATM   11  C   UNL     1      -8.739  15.192  68.877  1.00  0.00    -0.205 C  
BRANCH  11  12
HETATM   12  C   UNL     1      -8.905  14.464  67.569  1.00  0.00    -0.197 C  
BRANCH  12  13
HETATM   13  C   UNL     1     -10.340  13.954  67.402  1.00  0.00    -0.252 C  
HETATM   14  C   UNL     1     -10.982  14.290  66.049  1.00  0.00    -0.312 C  
HETATM   15  C   UNL     1     -12.152  13.320  65.979  1.00  0.00    -0.491 C  
HETATM   16  O   UNL     1     -10.101  14.010  64.963  1.00  0.00    -0.513 OA 
HETATM   17  C   UNL     1     -11.549  12.010  66.483  1.00  0.00    -0.314 C  
HETATM   18  H   UNL     1     -10.499  14.218  64.126  1.00  0.00     0.000 HD 
HETATM   19  C   UNL     1     -10.449  12.409  67.501  1.00  0.00    -0.229 C  
HETATM   20  O   UNL     1     -10.962  11.298  65.391  1.00  0.00    -0.230 OA 
HETATM   21  H   UNL     1     -10.588  10.483  65.705  1.00  0.00     0.000 HD 
BRANCH  19  22
HETATM   22  C   UNL     1     -10.747  11.895  68.896  1.00  0.00    -0.236 C  
HETATM   23  C   UNL     1     -11.886  11.278  69.264  1.00  0.00    -0.423 C  
BRANCH  23  24
HETATM   24  C   UNL     1     -12.133  10.656  70.618  1.00  0.00    -0.365 C  
HETATM   25  F   UNL     1     -10.947  10.321  71.196  1.00  0.00    -0.373 F  
HETATM   26  F   UNL     1     -12.828   9.497  70.461  1.00  0.00    -0.189 F  
BRANCH  24  27
HETATM   27  C   UNL     1     -12.909  11.600  71.551  1.00  0.00    -0.364 C  
BRANCH  27  28
HETATM   28  O   UNL     1     -13.274  12.807  70.868  1.00  0.00     0.024 OA 
BRANCH  28  29
HETATM   29  C   UNL     1     -12.840  13.966  71.452  1.00  0.00    -0.361 A  
HETATM   30  C   UNL     1     -13.232  14.153  72.780  1.00  0.00    -0.604 A  
HETATM   31  C   UNL     1     -12.844  15.299  73.477  1.00  0.00    -0.681 A  
HETATM   32  C   UNL     1     -12.049  16.258  72.852  1.00  0.00    -0.625 A  
HETATM   33  C   UNL     1     -11.637  16.067  71.534  1.00  0.00    -0.529 A  
HETATM   34  C   UNL     1     -12.030  14.923  70.834  1.00  0.00    -0.374 A  
ENDBRANCH  28  29
ENDBRANCH  27  28
ENDBRANCH  24  27
ENDBRANCH  23  24
ENDBRANCH  19  22
ENDBRANCH  12  13
ENDBRANCH  11  12
ENDBRANCH   9  10
ENDBRANCH   8   9
ENDBRANCH   7   8
ENDBRANCH   5   7
ENDBRANCH   4   5
ENDBRANCH   2   4
TORSDOF 13
ENDMDL
MODEL       29
REMARK 921   NORMALIZED FREE ENERGY PREDICTED BY IDOCK:   -6.04 KCAL/MOL
REMARK 922        TOTAL FREE ENERGY PREDICTED BY IDOCK:  -13.46 KCAL/MOL
REMARK 923 INTER-LIGAND FREE ENERGY PREDICTED BY IDOCK:  -10.32 KCAL/MOL
REMARK 924 INTRA-LIGAND FREE ENERGY PREDICTED BY IDOCK:   -3.14 KCAL/MOL
REMARK 927      BINDING AFFINITY PREDICTED BY RF-SCORE:    0.00 PKD
ROOT
HETATM    1  C   UNL     1      -9.627  10.076  64.611  1.00  0.00    -0.363 C  
HETATM    2  C   UNL     1      -9.702  11.283  63.682  1.00  0.00    -0.321 C  
HETATM    3  C   UNL     1      -8.854  11.059  62.436  1.00  0.00    -0.358 C  
ENDROOT
BRANCH   2   4
HETATM    4  O   UNL     1     -11.063  11.472  63.253  1.00  0.00    -0.341 OA 
BRANCH   4   5
HETATM    5  C   UNL     1     -11.617  12.674  63.577  1.00  0.00    -0.514 C  
HETATM    6  O   UNL     1     -12.633  13.141  63.084  1.00  0.00    -0.654 OA 
BRANCH   5   7
HETATM    7  C   UNL     1     -10.765  13.376  64.601  1.00  0.00    -0.425 C  
BRANCH   7   8
HETATM    8  C   UNL     1     -11.528  13.547  65.913  1.00  0.00    -0.338 C  
BRANCH   8   9
HETATM    9  C   UNL     1     -11.906  12.186  66.492  1.00  0.00    -0.322 C  
BRANCH   9  10
HETATM   10  C   UNL     1     -11.835  12.173  67.991  1.00  0.00    -0.351 C  
HETATM   11  C   UNL     1     -10.870  11.604  68.729  1.00  0.00    -0.262 C  
BRANCH  11  12
HETATM   12  C   UNL     1      -9.667  10.864  68.205  1.00  0.00    -0.174 C  
BRANCH  12  13
HETATM   13  C   UNL     1      -8.377  11.643  68.486  1.00  0.00    -0.140 C  
HETATM   14  C   UNL     1      -7.156  10.765  68.790  1.00  0.00    -0.079 C  
HETATM   15  C   UNL     1      -5.991  11.719  68.576  1.00  0.00    -0.049 C  
HETATM   16  O   UNL     1      -7.034   9.691  67.859  1.00  0.00    -0.077 OA 
HETATM   17  C   UNL     1      -6.376  12.458  67.295  1.00  0.00    -0.142 C  
HETATM   18  H   UNL     1      -6.277   9.147  68.047  1.00  0.00     0.000 HD 
HETATM   19  C   UNL     1      -7.926  12.520  67.287  1.00  0.00    -0.173 C  
HETATM   20  O   UNL     1      -5.916  11.725  66.158  1.00  0.00    -0.491 OA 
HETATM   21  H   UNL     1      -6.155  12.185  65.362  1.00  0.00     0.000 HD 
BRANCH  19  22
HETATM   22  C   UNL     1      -8.442  13.945  67.331  1.00  0.00    -0.208 C  
HETATM   23  C   UNL     1      -9.037  14.518  68.394  1.00  0.00    -0.191 C  
BRANCH  23  24
HETATM   24  C   UNL     1      -9.437  15.971  68.481  1.00  0.00    -0.216 C  
HETATM   25  F   UNL     1      -9.233  16.579  67.279  1.00  0.00    -0.208 F  
HETATM   26  F   UNL     1      -8.635  16.607  69.377  1.00  0.00    -0.209 F  
BRANCH  24  27
HETATM   27  C   UNL     1     -10.907  16.139  68.897  1.00  0.00    -0.305 C  
BRANCH  27  28
HETATM   28  O   UNL     1     -11.008  16.483  70.286  1.00  0.00    -0.332 OA 
BRANCH  28  29
HETATM   29  C   UNL     1     -11.794  15.655  71.040  1.00  0.00    -0.400 A  
HETATM   30  C   UNL     1     -11.990  16.052  72.365  1.00  0.00    -0.644 A  
HETATM   31  C   UNL     1     -12.777  15.284  73.225  1.00  0.00    -0.628 A  
HETATM   32  C   UNL     1     -13.385  14.120  72.759  1.00  0.00    -0.618 A  
HETATM   33  C   UNL     1     -13.211  13.729  71.432  1.00  0.00    -0.378 A  
HETATM   34  C   UNL     1     -12.418  14.495  70.572  1.00  0.00    -0.408 A  
ENDBRANCH  28  29
ENDBRANCH  27  28
ENDBRANCH  24  27
ENDBRANCH  23  24
ENDBRANCH  19  22
ENDBRANCH  12  13
ENDBRANCH  11  12
ENDBRANCH   9  10
ENDBRANCH   8   9
ENDBRANCH   7   8
ENDBRANCH   5   7
ENDBRANCH   4   5
ENDBRANCH   2   4
TORSDOF 13
ENDMDL
MODEL       30
REMARK 921   NORMALIZED FREE ENERGY PREDICTED BY IDOCK:   -6.04 KCAL/MOL
REMARK 922        TOTAL FREE ENERGY PREDICTED BY IDOCK:  -13.46 KCAL/MOL
REMARK 923 INTER-LIGAND FREE ENERGY PREDICTED BY IDOCK:  -11.07 KCAL/MOL
REMARK 924 INTRA-LIGAND FREE ENERGY PREDICTED BY IDOCK:   -2.39 KCAL/MOL
REMARK 927      BINDING AFFINITY PREDICTED BY RF-SCORE:    0.00 PKD
ROOT
HETATM    1  C   UNL     1      -6.277  19.234  65.061  1.00  0.00    -0.317 C  
HETATM    2  C   UNL     1      -7.158  18.409  65.994  1.00  0.00    -0.272 C  
HETATM    3  C   UNL     1      -6.425  17.158  66.463  1.00  0.00    -0.268 C  
ENDROOT
BRANCH   2   4
HETATM    4  O   UNL     1      -7.479  19.188  67.160  1.00  0.00    -0.219 OA 
BRANCH   4   5
HETATM    5  C   UNL     1      -8.808  19.346  67.411  1.00  0.00    -0.301 C  
HETATM    6  O   UNL     1      -9.543  20.154  66.860  1.00  0.00    -0.379 OA 
BRANCH   5   7
HETATM    7  C   UNL     1      -9.241  18.411  68.509  1.00  0.00    -0.348 C  
BRANCH   7   8
HETATM    8  C   UNL     1     -10.522  17.675  68.119  1.00  0.00    -0.386 C  
BRANCH   8   9
HETATM    9  C   UNL     1     -10.294  16.834  66.866  1.00  0.00    -0.294 C  
BRANCH   9  10
HETATM   10  C   UNL     1      -9.697  15.495  67.188  1.00  0.00    -0.226 C  
HETATM   11  C   UNL     1     -10.364  14.332  67.256  1.00  0.00    -0.260 C  
BRANCH  11  12
HETATM   12  C   UNL     1     -11.839  14.136  67.024  1.00  0.00    -0.458 C  
BRANCH  12  13
HETATM   13  C   UNL     1     -12.089  13.182  65.851  1.00  0.00    -0.501 C  
HETATM   14  C   UNL     1     -12.377  13.879  64.514  1.00  0.00    -0.372 C  
HETATM   15  C   UNL     1     -12.132  12.775  63.496  1.00  0.00    -0.642 C  
HETATM   16  O   UNL     1     -11.454  14.936  64.260  1.00  0.00    -0.621 OA 
HETATM   17  C   UNL     1     -10.852  12.112  64.003  1.00  0.00    -0.383 C  
HETATM   18  H   UNL     1     -11.633  15.368  63.432  1.00  0.00     0.000 HD 
HETATM   19  C   UNL     1     -10.873  12.266  65.547  1.00  0.00    -0.319 C  
HETATM   20  O   UNL     1      -9.713  12.787  63.466  1.00  0.00    -0.654 OA 
HETATM   21  H   UNL     1      -8.918  12.374  63.780  1.00  0.00     0.000 HD 
BRANCH  19  22
HETATM   22  C   UNL     1     -10.914  10.925  66.255  1.00  0.00    -0.130 C  
HETATM   23  C   UNL     1      -9.839  10.158  66.515  1.00  0.00    -0.268 C  
BRANCH  23  24
HETATM   24  C   UNL     1      -9.862   8.886  67.329  1.00  0.00    -0.199 C  
HETATM   25  F   UNL     1      -9.169   7.910  66.680  1.00  0.00    -0.156 F  
HETATM   26  F   UNL     1     -11.144   8.444  67.437  1.00  0.00    -0.254 F  
BRANCH  24  27
HETATM   27  C   UNL     1      -9.268   9.089  68.732  1.00  0.00    -0.133 C  
BRANCH  27  28
HETATM   28  O   UNL     1      -9.667  10.355  69.276  1.00  0.00    -0.206 OA 
BRANCH  28  29
HETATM   29  C   UNL     1     -10.795  10.332  70.051  1.00  0.00    -0.307 A  
HETATM   30  C   UNL     1     -10.896   9.253  70.932  1.00  0.00    -0.365 A  
HETATM   31  C   UNL     1     -12.004   9.128  71.774  1.00  0.00    -0.449 A  
HETATM   32  C   UNL     1     -13.010  10.092  71.747  1.00  0.00    -0.560 A  
HETATM   33  C   UNL     1     -12.904  11.182  70.885  1.00  0.00    -0.374 A  
HETATM   34  C   UNL     1     -11.799  11.304  70.038  1.00  0.00    -0.448 A  
ENDBRANCH  28  29
ENDBRANCH  27  28
ENDBRANCH  24  27
ENDBRANCH  23  24
ENDBRANCH  19  22
ENDBRANCH  12  13
ENDBRANCH  11  12
ENDBRANCH   9  10
ENDBRANCH   8   9
ENDBRANCH   7   8
ENDBRANCH   5   7
ENDBRANCH   4   5
ENDBRANCH   2   4
TORSDOF 13
ENDMDL
MODEL       31
REMARK 921   NORMALIZED FREE ENERGY PREDICTED BY IDOCK:   -6.01 KCAL/MOL
REMARK 922        TOTAL FREE ENERGY PREDICTED BY IDOCK:  -13.41 KCAL/MOL
REMARK 923 INTER-LIGAND FREE ENERGY PREDICTED BY IDOCK:  -11.13 KCAL/MOL
REMARK 924 INTRA-LIGAND FREE ENERGY PREDICTED BY IDOCK:   -2.28 KCAL/MOL
REMARK 927      BINDING AFFINITY PREDICTED BY RF-SCORE:    0.00 PKD
ROOT
HETATM    1  C   UNL     1      -6.287  17.868  66.101  1.00  0.00    -0.279 C  
HETATM    2  C   UNL     1      -7.191  19.095  66.132  1.00  0.00    -0.262 C  
HETATM    3  C   UNL     1      -6.701  20.153  65.152  1.00  0.00    -0.333 C  
ENDROOT
BRANCH   2   4
HETATM    4  O   UNL     1      -8.522  18.718  65.735  1.00  0.00    -0.436 OA 
BRANCH   4   5
HETATM    5  C   UNL     1      -9.531  19.363  66.384  1.00  0.00    -0.373 C  
HETATM    6  O   UNL     1     -10.579  19.734  65.874  1.00  0.00    -0.510 OA 
BRANCH   5   7
HETATM    7  C   UNL     1      -9.152  19.602  67.822  1.00  0.00    -0.397 C  
BRANCH   7   8
HETATM    8  C   UNL     1     -10.101  18.862  68.762  1.00  0.00    -0.415 C  
BRANCH   8   9
HETATM    9  C   UNL     1      -9.820  17.362  68.734  1.00  0.00    -0.311 C  
BRANCH   9  10
HETATM   10  C   UNL     1     -11.060  16.553  68.977  1.00  0.00    -0.284 C  
HETATM   11  C   UNL     1     -11.572  15.629  68.149  1.00  0.00    -0.290 C  
BRANCH  11  12
HETATM   12  C   UNL     1     -11.010  15.220  66.813  1.00  0.00    -0.306 C  
BRANCH  12  13
HETATM   13  C   UNL     1     -11.709  13.963  66.285  1.00  0.00    -0.402 C  
HETATM   14  C   UNL     1     -12.188  14.065  64.830  1.00  0.00    -0.437 C  
HETATM   15  C   UNL     1     -12.405  12.610  64.441  1.00  0.00    -0.523 C  
HETATM   16  O   UNL     1     -11.181  14.611  63.980  1.00  0.00    -0.553 OA 
HETATM   17  C   UNL     1     -11.181  11.907  65.027  1.00  0.00    -0.293 C  
HETATM   18  H   UNL     1     -11.478  14.673  63.079  1.00  0.00     0.000 HD 
HETATM   19  C   UNL     1     -10.793  12.710  66.296  1.00  0.00    -0.300 C  
HETATM   20  O   UNL     1     -10.108  11.943  64.084  1.00  0.00    -0.285 OA 
HETATM   21  H   UNL     1      -9.348  11.505  64.448  1.00  0.00     0.000 HD 
BRANCH  19  22
HETATM   22  C   UNL     1     -10.898  11.875  67.556  1.00  0.00    -0.283 C  
HETATM   23  C   UNL     1     -11.682  12.166  68.612  1.00  0.00    -0.382 C  
BRANCH  23  24
HETATM   24  C   UNL     1     -11.882  11.272  69.812  1.00  0.00    -0.364 C  
HETATM   25  F   UNL     1     -10.688  10.744  70.200  1.00  0.00    -0.300 F  
HETATM   26  F   UNL     1     -12.675  10.222  69.465  1.00  0.00    -0.135 F  
BRANCH  24  27
HETATM   27  C   UNL     1     -12.515  12.026  70.992  1.00  0.00    -0.276 C  
BRANCH  27  28
HETATM   28  O   UNL     1     -12.976  13.322  70.582  1.00  0.00    -0.105 OA 
BRANCH  28  29
HETATM   29  C   UNL     1     -12.896  14.302  71.534  1.00  0.00    -0.346 A  
HETATM   30  C   UNL     1     -14.109  14.895  71.890  1.00  0.00    -0.613 A  
HETATM   31  C   UNL     1     -14.147  15.904  72.854  1.00  0.00    -0.276 A  
HETATM   32  C   UNL     1     -12.971  16.316  73.478  1.00  0.00    -0.521 A  
HETATM   33  C   UNL     1     -11.760  15.713  73.142  1.00  0.00    -0.441 A  
HETATM   34  C   UNL     1     -11.720  14.706  72.173  1.00  0.00    -0.098 A  
ENDBRANCH  28  29
ENDBRANCH  27  28
ENDBRANCH  24  27
ENDBRANCH  23  24
ENDBRANCH  19  22
ENDBRANCH  12  13
ENDBRANCH  11  12
ENDBRANCH   9  10
ENDBRANCH   8   9
ENDBRANCH   7   8
ENDBRANCH   5   7
ENDBRANCH   4   5
ENDBRANCH   2   4
TORSDOF 13
ENDMDL
MODEL       32
REMARK 921   NORMALIZED FREE ENERGY PREDICTED BY IDOCK:   -6.01 KCAL/MOL
REMARK 922        TOTAL FREE ENERGY PREDICTED BY IDOCK:  -13.41 KCAL/MOL
REMARK 923 INTER-LIGAND FREE ENERGY PREDICTED BY IDOCK:  -10.47 KCAL/MOL
REMARK 924 INTRA-LIGAND FREE ENERGY PREDICTED BY IDOCK:   -2.93 KCAL/MOL
REMARK 927      BINDING AFFINITY PREDICTED BY RF-SCORE:    0.00 PKD
ROOT
HETATM    1  C   UNL     1      -9.347  11.334  62.582  1.00  0.00    -0.313 C  
HETATM    2  C   UNL     1     -10.099  11.476  63.901  1.00  0.00    -0.345 C  
HETATM    3  C   UNL     1     -11.525  11.956  63.660  1.00  0.00    -0.551 C  
ENDROOT
BRANCH   2   4
HETATM    4  O   UNL     1     -10.176  10.194  64.548  1.00  0.00    -0.256 OA 
BRANCH   4   5
HETATM    5  C   UNL     1      -9.343  10.025  65.613  1.00  0.00    -0.204 C  
HETATM    6  O   UNL     1      -8.138  10.232  65.610  1.00  0.00    -0.142 OA 
BRANCH   5   7
HETATM    7  C   UNL     1     -10.113   9.493  66.792  1.00  0.00    -0.312 C  
BRANCH   7   8
HETATM    8  C   UNL     1     -10.417  10.610  67.788  1.00  0.00    -0.258 C  
BRANCH   8   9
HETATM    9  C   UNL     1      -9.385  10.619  68.913  1.00  0.00    -0.191 C  
BRANCH   9  10
HETATM   10  C   UNL     1      -8.876   9.241  69.220  1.00  0.00    -0.146 C  
HETATM   11  C   UNL     1      -9.167   8.519  70.314  1.00  0.00    -0.164 C  
BRANCH  11  12
HETATM   12  C   UNL     1     -10.060   8.946  71.450  1.00  0.00    -0.379 C  
BRANCH  12  13
HETATM   13  C   UNL     1     -11.538   8.774  71.082  1.00  0.00    -0.344 C  
HETATM   14  C   UNL     1     -12.178   7.482  71.604  1.00  0.00    -0.322 C  
HETATM   15  C   UNL     1     -13.667   7.777  71.506  1.00  0.00    -0.416 C  
HETATM   16  O   UNL     1     -11.856   7.249  72.974  1.00  0.00    -0.548 OA 
HETATM   17  C   UNL     1     -13.773   9.209  72.030  1.00  0.00    -0.448 C  
HETATM   18  H   UNL     1     -12.253   6.448  73.298  1.00  0.00     0.000 HD 
HETATM   19  C   UNL     1     -12.438   9.902  71.652  1.00  0.00    -0.507 C  
HETATM   20  O   UNL     1     -13.925   9.192  73.451  1.00  0.00    -1.094 OA 
HETATM   21  H   UNL     1     -13.991  10.082  73.776  1.00  0.00     0.000 HD 
BRANCH  19  22
HETATM   22  C   UNL     1     -12.647  11.068  70.706  1.00  0.00    -0.463 C  
HETATM   23  C   UNL     1     -12.072  12.279  70.835  1.00  0.00    -0.162 C  
BRANCH  23  24
HETATM   24  C   UNL     1     -12.181  13.398  69.828  1.00  0.00    -0.245 C  
HETATM   25  F   UNL     1     -13.266  14.171  70.110  1.00  0.00    -0.255 F  
HETATM   26  F   UNL     1     -12.391  12.873  68.591  1.00  0.00    -0.289 F  
BRANCH  24  27
HETATM   27  C   UNL     1     -10.919  14.277  69.806  1.00  0.00    -0.069 C  
BRANCH  27  28
HETATM   28  O   UNL     1     -10.112  13.983  68.656  1.00  0.00    -0.230 OA 
BRANCH  28  29
HETATM   29  C   UNL     1     -10.261  14.841  67.600  1.00  0.00    -0.232 A  
HETATM   30  C   UNL     1     -10.106  16.196  67.901  1.00  0.00    -0.244 A  
HETATM   31  C   UNL     1     -10.232  17.161  66.899  1.00  0.00    -0.315 A  
HETATM   32  C   UNL     1     -10.500  16.773  65.589  1.00  0.00    -0.284 A  
HETATM   33  C   UNL     1     -10.635  15.420  65.278  1.00  0.00    -0.450 A  
HETATM   34  C   UNL     1     -10.514  14.454  66.281  1.00  0.00    -0.292 A  
ENDBRANCH  28  29
ENDBRANCH  27  28
ENDBRANCH  24  27
ENDBRANCH  23  24
ENDBRANCH  19  22
ENDBRANCH  12  13
ENDBRANCH  11  12
ENDBRANCH   9  10
ENDBRANCH   8   9
ENDBRANCH   7   8
ENDBRANCH   5   7
ENDBRANCH   4   5
ENDBRANCH   2   4
TORSDOF 13
ENDMDL
MODEL       33
REMARK 921   NORMALIZED FREE ENERGY PREDICTED BY IDOCK:   -6.00 KCAL/MOL
REMARK 922        TOTAL FREE ENERGY PREDICTED BY IDOCK:  -13.40 KCAL/MOL
REMARK 923 INTER-LIGAND FREE ENERGY PREDICTED BY IDOCK:  -10.00 KCAL/MOL
REMARK 924 INTRA-LIGAND FREE ENERGY PREDICTED BY IDOCK:   -3.40 KCAL/MOL
REMARK 927      BINDING AFFINITY PREDICTED BY RF-SCORE:    0.00 PKD
ROOT
HETATM    1  C   UNL     1     -10.524  19.828  68.062  1.00  0.00    -0.523 C  
HETATM    2  C   UNL     1     -10.602  18.341  67.730  1.00  0.00    -0.393 C  
HETATM    3  C   UNL     1     -10.329  18.103  66.250  1.00  0.00    -0.407 C  
ENDROOT
BRANCH   2   4
HETATM    4  O   UNL     1      -9.597  17.632  68.476  1.00  0.00    -0.291 OA 
BRANCH   4   5
HETATM    5  C   UNL     1      -9.764  16.281  68.546  1.00  0.00    -0.224 C  
HETATM    6  O   UNL     1      -8.999  15.448  68.082  1.00  0.00    -0.172 OA 
BRANCH   5   7
HETATM    7  C   UNL     1     -11.062  15.956  69.236  1.00  0.00    -0.312 C  
BRANCH   7   8
HETATM    8  C   UNL     1     -11.839  14.898  68.456  1.00  0.00    -0.325 C  
BRANCH   8   9
HETATM    9  C   UNL     1     -11.777  13.552  69.175  1.00  0.00    -0.374 C  
BRANCH   9  10
HETATM   10  C   UNL     1     -12.195  13.662  70.612  1.00  0.00    -0.434 C  
HETATM   11  C   UNL     1     -12.778  12.696  71.339  1.00  0.00    -0.347 C  
BRANCH  11  12
HETATM   12  C   UNL     1     -13.132  11.312  70.860  1.00  0.00    -0.095 C  
BRANCH  12  13
HETATM   13  C   UNL     1     -12.122  10.279  71.373  1.00  0.00    -0.457 C  
HETATM   14  C   UNL     1     -12.688   9.295  72.405  1.00  0.00    -0.313 C  
HETATM   15  C   UNL     1     -11.671   8.163  72.387  1.00  0.00    -0.461 C  
HETATM   16  O   UNL     1     -13.950   8.770  71.998  1.00  0.00    -0.410 OA 
HETATM   17  C   UNL     1     -11.389   7.972  70.898  1.00  0.00    -0.276 C  
HETATM   18  H   UNL     1     -14.300   8.160  72.638  1.00  0.00     0.000 HD 
HETATM   19  C   UNL     1     -11.563   9.369  70.247  1.00  0.00    -0.181 C  
HETATM   20  O   UNL     1     -12.336   7.058  70.341  1.00  0.00    -0.615 OA 
HETATM   21  H   UNL     1     -12.160   6.939  69.416  1.00  0.00     0.000 HD 
BRANCH  19  22
HETATM   22  C   UNL     1     -10.277   9.874  69.622  1.00  0.00    -0.261 C  
HETATM   23  C   UNL     1     -10.188  10.490  68.428  1.00  0.00    -0.192 C  
BRANCH  23  24
HETATM   24  C   UNL     1      -8.929  11.102  67.864  1.00  0.00    -0.143 C  
HETATM   25  F   UNL     1      -7.852  10.344  68.206  1.00  0.00    -0.096 F  
HETATM   26  F   UNL     1      -8.734  12.327  68.423  1.00  0.00    -0.172 F  
BRANCH  24  27
HETATM   27  C   UNL     1      -8.992  11.240  66.334  1.00  0.00    -0.188 C  
BRANCH  27  28
HETATM   28  O   UNL     1     -10.353  11.258  65.879  1.00  0.00    -0.239 OA 
BRANCH  28  29
HETATM   29  C   UNL     1     -10.825  12.482  65.489  1.00  0.00    -0.278 A  
HETATM   30  C   UNL     1     -12.215  12.588  65.395  1.00  0.00    -0.475 A  
HETATM   31  C   UNL     1     -12.807  13.792  65.009  1.00  0.00    -0.319 A  
HETATM   32  C   UNL     1     -12.012  14.901  64.729  1.00  0.00    -0.364 A  
HETATM   33  C   UNL     1     -10.625  14.808  64.842  1.00  0.00    -0.431 A  
HETATM   34  C   UNL     1     -10.031  13.601  65.223  1.00  0.00    -0.229 A  
ENDBRANCH  28  29
ENDBRANCH  27  28
ENDBRANCH  24  27
ENDBRANCH  23  24
ENDBRANCH  19  22
ENDBRANCH  12  13
ENDBRANCH  11  12
ENDBRANCH   9  10
ENDBRANCH   8   9
ENDBRANCH   7   8
ENDBRANCH   5   7
ENDBRANCH   4   5
ENDBRANCH   2   4
TORSDOF 13
ENDMDL
MODEL       34
REMARK 921   NORMALIZED FREE ENERGY PREDICTED BY IDOCK:   -6.00 KCAL/MOL
REMARK 922        TOTAL FREE ENERGY PREDICTED BY IDOCK:  -13.39 KCAL/MOL
REMARK 923 INTER-LIGAND FREE ENERGY PREDICTED BY IDOCK:  -10.00 KCAL/MOL
REMARK 924 INTRA-LIGAND FREE ENERGY PREDICTED BY IDOCK:   -3.39 KCAL/MOL
REMARK 927      BINDING AFFINITY PREDICTED BY RF-SCORE:    0.00 PKD
ROOT
HETATM    1  C   UNL     1     -11.022   6.248  68.330  1.00  0.00    -0.409 C  
HETATM    2  C   UNL     1     -10.809   5.677  69.728  1.00  0.00    -0.300 C  
HETATM    3  C   UNL     1      -9.441   5.015  69.840  1.00  0.00    -0.225 C  
ENDROOT
BRANCH   2   4
HETATM    4  O   UNL     1     -10.857   6.743  70.693  1.00  0.00    -0.230 OA 
BRANCH   4   5
HETATM    5  C   UNL     1     -11.779   6.595  71.685  1.00  0.00    -0.316 C  
HETATM    6  O   UNL     1     -11.750   5.739  72.558  1.00  0.00    -0.309 OA 
BRANCH   5   7
HETATM    7  C   UNL     1     -12.878   7.612  71.524  1.00  0.00    -0.376 C  
BRANCH   7   8
HETATM    8  C   UNL     1     -12.361   9.018  71.823  1.00  0.00    -0.438 C  
BRANCH   8   9
HETATM    9  C   UNL     1     -13.282  10.068  71.207  1.00  0.00    -0.469 C  
BRANCH   9  10
HETATM   10  C   UNL     1     -12.575  11.370  70.974  1.00  0.00    -0.487 C  
HETATM   11  C   UNL     1     -11.887  11.706  69.871  1.00  0.00    -0.434 C  
BRANCH  11  12
HETATM   12  C   UNL     1     -11.686  10.848  68.650  1.00  0.00    -0.334 C  
BRANCH  12  13
HETATM   13  C   UNL     1     -10.273  11.023  68.082  1.00  0.00    -0.201 C  
HETATM   14  C   UNL     1      -9.151  10.528  69.004  1.00  0.00    -0.181 C  
HETATM   15  C   UNL     1      -7.967  10.396  68.057  1.00  0.00    -0.105 C  
HETATM   16  O   UNL     1      -9.440   9.240  69.543  1.00  0.00    -0.160 OA 
HETATM   17  C   UNL     1      -8.583   9.744  66.819  1.00  0.00    -0.128 C  
HETATM   18  H   UNL     1      -8.744   8.933  70.114  1.00  0.00     0.000 HD 
HETATM   19  C   UNL     1     -10.051  10.242  66.760  1.00  0.00    -0.272 C  
HETATM   20  O   UNL     1      -8.560   8.323  66.962  1.00  0.00    -0.120 OA 
HETATM   21  H   UNL     1      -8.942   7.918  66.192  1.00  0.00     0.000 HD 
BRANCH  19  22
HETATM   22  C   UNL     1     -10.331  11.049  65.507  1.00  0.00    -0.321 C  
HETATM   23  C   UNL     1     -11.519  11.599  65.192  1.00  0.00    -0.180 C  
BRANCH  23  24
HETATM   24  C   UNL     1     -11.766  12.505  64.011  1.00  0.00    -0.423 C  
HETATM   25  F   UNL     1     -12.830  12.051  63.294  1.00  0.00    -0.657 F  
HETATM   26  F   UNL     1     -10.691  12.462  63.177  1.00  0.00    -0.460 F  
BRANCH  24  27
HETATM   27  C   UNL     1     -12.022  13.958  64.443  1.00  0.00    -0.450 C  
BRANCH  27  28
HETATM   28  O   UNL     1     -10.790  14.622  64.757  1.00  0.00    -0.399 OA 
BRANCH  28  29
HETATM   29  C   UNL     1     -10.441  14.616  66.081  1.00  0.00    -0.302 A  
HETATM   30  C   UNL     1     -11.477  14.889  66.977  1.00  0.00    -0.333 A  
HETATM   31  C   UNL     1     -11.236  14.906  68.352  1.00  0.00    -0.304 A  
HETATM   32  C   UNL     1      -9.959  14.635  68.839  1.00  0.00    -0.228 A  
HETATM   33  C   UNL     1      -8.926  14.341  67.951  1.00  0.00    -0.186 A  
HETATM   34  C   UNL     1      -9.165  14.330  66.574  1.00  0.00    -0.259 A  
ENDBRANCH  28  29
ENDBRANCH  27  28
ENDBRANCH  24  27
ENDBRANCH  23  24
ENDBRANCH  19  22
ENDBRANCH  12  13
ENDBRANCH  11  12
ENDBRANCH   9  10
ENDBRANCH   8   9
ENDBRANCH   7   8
ENDBRANCH   5   7
ENDBRANCH   4   5
ENDBRANCH   2   4
TORSDOF 13
ENDMDL
MODEL       35
REMARK 921   NORMALIZED FREE ENERGY PREDICTED BY IDOCK:   -5.99 KCAL/MOL
REMARK 922        TOTAL FREE ENERGY PREDICTED BY IDOCK:  -13.38 KCAL/MOL
REMARK 923 INTER-LIGAND FREE ENERGY PREDICTED BY IDOCK:  -11.25 KCAL/MOL
REMARK 924 INTRA-LIGAND FREE ENERGY PREDICTED BY IDOCK:   -2.13 KCAL/MOL
REMARK 927      BINDING AFFINITY PREDICTED BY RF-SCORE:    0.00 PKD
ROOT
HETATM    1  C   UNL     1     -13.361  13.568  72.071  1.00  0.00    -0.563 C  
HETATM    2  C   UNL     1     -13.815  15.023  72.106  1.00  0.00    -0.479 C  
HETATM    3  C   UNL     1     -13.219  15.746  73.308  1.00  0.00    -0.687 C  
ENDROOT
BRANCH   2   4
HETATM    4  O   UNL     1     -13.353  15.696  70.922  1.00  0.00    -0.556 OA 
BRANCH   4   5
HETATM    5  C   UNL     1     -12.094  15.371  70.516  1.00  0.00    -0.371 C  
HETATM    6  O   UNL     1     -11.073  15.543  71.167  1.00  0.00    -0.351 OA 
BRANCH   5   7
HETATM    7  C   UNL     1     -12.130  14.810  69.120  1.00  0.00    -0.278 C  
BRANCH   7   8
HETATM    8  C   UNL     1     -10.792  15.025  68.416  1.00  0.00    -0.256 C  
BRANCH   8   9
HETATM    9  C   UNL     1     -11.000  15.206  66.914  1.00  0.00    -0.323 C  
BRANCH   9  10
HETATM   10  C   UNL     1     -12.207  14.464  66.420  1.00  0.00    -0.363 C  
HETATM   11  C   UNL     1     -12.234  13.598  65.395  1.00  0.00    -0.474 C  
BRANCH  11  12
HETATM   12  C   UNL     1     -11.063  13.199  64.535  1.00  0.00    -0.380 C  
BRANCH  12  13
HETATM   13  C   UNL     1     -10.597  11.778  64.869  1.00  0.00    -0.344 C  
HETATM   14  C   UNL     1     -10.084  10.978  63.664  1.00  0.00    -0.371 C  
HETATM   15  C   UNL     1      -9.296   9.851  64.315  1.00  0.00    -0.313 C  
HETATM   16  O   UNL     1      -9.189  11.746  62.862  1.00  0.00    -0.604 OA 
HETATM   17  C   UNL     1      -8.522  10.563  65.424  1.00  0.00    -0.170 C  
HETATM   18  H   UNL     1      -8.871  11.249  62.116  1.00  0.00     0.000 HD 
HETATM   19  C   UNL     1      -9.415  11.750  65.874  1.00  0.00    -0.239 C  
HETATM   20  O   UNL     1      -7.285  11.058  64.908  1.00  0.00    -0.293 OA 
HETATM   21  H   UNL     1      -6.804  11.500  65.597  1.00  0.00     0.000 HD 
BRANCH  19  22
HETATM   22  C   UNL     1      -9.837  11.629  67.325  1.00  0.00    -0.203 C  
HETATM   23  C   UNL     1     -11.012  11.126  67.748  1.00  0.00    -0.315 C  
BRANCH  23  24
HETATM   24  C   UNL     1     -11.382  10.891  69.193  1.00  0.00    -0.283 C  
HETATM   25  F   UNL     1     -12.712  10.618  69.291  1.00  0.00    -0.254 F  
HETATM   26  F   UNL     1     -11.168  12.031  69.904  1.00  0.00    -0.272 F  
BRANCH  24  27
HETATM   27  C   UNL     1     -10.575   9.738  69.813  1.00  0.00    -0.257 C  
BRANCH  27  28
HETATM   28  O   UNL     1     -10.759   9.695  71.235  1.00  0.00    -0.335 OA 
BRANCH  28  29
HETATM   29  C   UNL     1     -10.913   8.443  71.769  1.00  0.00    -0.291 A  
HETATM   30  C   UNL     1     -11.886   7.647  71.163  1.00  0.00    -0.314 A  
HETATM   31  C   UNL     1     -12.127   6.351  71.623  1.00  0.00    -0.319 A  
HETATM   32  C   UNL     1     -11.382   5.839  72.683  1.00  0.00    -0.349 A  
HETATM   33  C   UNL     1     -10.394   6.622  73.279  1.00  0.00    -0.275 A  
HETATM   34  C   UNL     1     -10.157   7.922  72.823  1.00  0.00    -0.365 A  
ENDBRANCH  28  29
ENDBRANCH  27  28
ENDBRANCH  24  27
ENDBRANCH  23  24
ENDBRANCH  19  22
ENDBRANCH  12  13
ENDBRANCH  11  12
ENDBRANCH   9  10
ENDBRANCH   8   9
ENDBRANCH   7   8
ENDBRANCH   5   7
ENDBRANCH   4   5
ENDBRANCH   2   4
TORSDOF 13
ENDMDL
MODEL       36
REMARK 921   NORMALIZED FREE ENERGY PREDICTED BY IDOCK:   -5.98 KCAL/MOL
REMARK 922        TOTAL FREE ENERGY PREDICTED BY IDOCK:  -13.35 KCAL/MOL
REMARK 923 INTER-LIGAND FREE ENERGY PREDICTED BY IDOCK:  -10.94 KCAL/MOL
REMARK 924 INTRA-LIGAND FREE ENERGY PREDICTED BY IDOCK:   -2.41 KCAL/MOL
REMARK 927      BINDING AFFINITY PREDICTED BY RF-SCORE:    0.00 PKD
ROOT
HETATM    1  C   UNL     1      -7.533   4.750  67.222  1.00  0.00    -0.082 C  
HETATM    2  C   UNL     1      -8.794   3.894  67.170  1.00  0.00    -0.122 C  
HETATM    3  C   UNL     1      -8.603   2.602  67.956  1.00  0.00    -0.116 C  
ENDROOT
BRANCH   2   4
HETATM    4  O   UNL     1      -9.885   4.612  67.773  1.00  0.00    -0.161 OA 
BRANCH   4   5
HETATM    5  C   UNL     1     -10.635   5.363  66.918  1.00  0.00    -0.250 C  
HETATM    6  O   UNL     1     -10.925   5.054  65.771  1.00  0.00    -0.178 OA 
BRANCH   5   7
HETATM    7  C   UNL     1     -11.019   6.662  67.574  1.00  0.00    -0.416 C  
BRANCH   7   8
HETATM    8  C   UNL     1     -10.112   7.796  67.100  1.00  0.00    -0.328 C  
BRANCH   8   9
HETATM    9  C   UNL     1      -9.494   8.520  68.294  1.00  0.00    -0.143 C  
BRANCH   9  10
HETATM   10  C   UNL     1      -8.839   7.569  69.252  1.00  0.00    -0.136 C  
HETATM   11  C   UNL     1      -9.033   7.530  70.579  1.00  0.00    -0.152 C  
BRANCH  11  12
HETATM   12  C   UNL     1      -9.944   8.430  71.373  1.00  0.00    -0.275 C  
BRANCH  12  13
HETATM   13  C   UNL     1     -11.403   8.255  70.939  1.00  0.00    -0.292 C  
HETATM   14  C   UNL     1     -12.117   7.056  71.575  1.00  0.00    -0.353 C  
HETATM   15  C   UNL     1     -13.587   7.378  71.351  1.00  0.00    -0.410 C  
HETATM   16  O   UNL     1     -11.882   6.986  72.980  1.00  0.00    -0.504 OA 
HETATM   17  C   UNL     1     -13.673   8.866  71.689  1.00  0.00    -0.395 C  
HETATM   18  H   UNL     1     -12.325   6.243  73.375  1.00  0.00     0.000 HD 
HETATM   19  C   UNL     1     -12.295   9.470  71.311  1.00  0.00    -0.430 C  
HETATM   20  O   UNL     1     -13.905   9.030  73.089  1.00  0.00    -1.096 OA 
HETATM   21  H   UNL     1     -13.959   9.955  73.298  1.00  0.00     0.000 HD 
BRANCH  19  22
HETATM   22  C   UNL     1     -12.409  10.515  70.219  1.00  0.00    -0.377 C  
HETATM   23  C   UNL     1     -11.405  11.313  69.807  1.00  0.00    -0.348 C  
BRANCH  23  24
HETATM   24  C   UNL     1     -11.483  12.265  68.638  1.00  0.00    -0.307 C  
HETATM   25  F   UNL     1     -12.097  11.656  67.586  1.00  0.00    -0.314 F  
HETATM   26  F   UNL     1     -10.224  12.575  68.225  1.00  0.00    -0.207 F  
BRANCH  24  27
HETATM   27  C   UNL     1     -12.239  13.555  68.995  1.00  0.00    -0.186 C  
BRANCH  27  28
HETATM   28  O   UNL     1     -11.479  14.355  69.913  1.00  0.00    -0.262 OA 
BRANCH  28  29
HETATM   29  C   UNL     1     -12.173  14.823  70.996  1.00  0.00    -0.329 A  
HETATM   30  C   UNL     1     -11.394  15.376  72.015  1.00  0.00    -0.466 A  
HETATM   31  C   UNL     1     -11.996  15.888  73.166  1.00  0.00    -0.572 A  
HETATM   32  C   UNL     1     -13.383  15.863  73.297  1.00  0.00    -0.660 A  
HETATM   33  C   UNL     1     -14.167  15.332  72.274  1.00  0.00    -0.642 A  
HETATM   34  C   UNL     1     -13.565  14.814  71.123  1.00  0.00    -0.432 A  
ENDBRANCH  28  29
ENDBRANCH  27  28
ENDBRANCH  24  27
ENDBRANCH  23  24
ENDBRANCH  19  22
ENDBRANCH  12  13
ENDBRANCH  11  12
ENDBRANCH   9  10
ENDBRANCH   8   9
ENDBRANCH   7   8
ENDBRANCH   5   7
ENDBRANCH   4   5
ENDBRANCH   2   4
TORSDOF 13
ENDMDL
MODEL       37
REMARK 921   NORMALIZED FREE ENERGY PREDICTED BY IDOCK:   -5.97 KCAL/MOL
REMARK 922        TOTAL FREE ENERGY PREDICTED BY IDOCK:  -13.35 KCAL/MOL
REMARK 923 INTER-LIGAND FREE ENERGY PREDICTED BY IDOCK:  -11.23 KCAL/MOL
REMARK 924 INTRA-LIGAND FREE ENERGY PREDICTED BY IDOCK:   -2.12 KCAL/MOL
REMARK 927      BINDING AFFINITY PREDICTED BY RF-SCORE:    0.00 PKD
ROOT
HETATM    1  C   UNL     1      -8.523   7.905  68.686  1.00  0.00    -0.128 C  
HETATM    2  C   UNL     1      -9.744   8.381  69.467  1.00  0.00    -0.177 C  
HETATM    3  C   UNL     1      -9.981   9.870  69.243  1.00  0.00    -0.217 C  
ENDROOT
BRANCH   2   4
HETATM    4  O   UNL     1     -10.911   7.681  69.003  1.00  0.00    -0.161 OA 
BRANCH   4   5
HETATM    5  C   UNL     1     -11.212   6.534  69.675  1.00  0.00    -0.384 C  
HETATM    6  O   UNL     1     -10.767   5.425  69.418  1.00  0.00    -0.274 OA 
BRANCH   5   7
HETATM    7  C   UNL     1     -12.219   6.820  70.757  1.00  0.00    -0.353 C  
BRANCH   7   8
HETATM    8  C   UNL     1     -11.520   7.144  72.075  1.00  0.00    -0.310 C  
BRANCH   8   9
HETATM    9  C   UNL     1     -11.922   8.532  72.566  1.00  0.00    -0.401 C  
BRANCH   9  10
HETATM   10  C   UNL     1     -13.177   9.021  71.906  1.00  0.00    -0.462 C  
HETATM   11  C   UNL     1     -13.441  10.290  71.557  1.00  0.00    -0.336 C  
BRANCH  11  12
HETATM   12  C   UNL     1     -12.534  11.476  71.758  1.00  0.00    -0.072 C  
BRANCH  12  13
HETATM   13  C   UNL     1     -13.135  12.739  71.131  1.00  0.00    -0.155 C  
HETATM   14  C   UNL     1     -13.836  13.672  72.127  1.00  0.00    -0.548 C  
HETATM   15  C   UNL     1     -13.918  14.985  71.363  1.00  0.00    -0.565 C  
HETATM   16  O   UNL     1     -13.049  13.882  73.298  1.00  0.00    -0.501 OA 
HETATM   17  C   UNL     1     -12.539  15.096  70.714  1.00  0.00    -0.393 C  
HETATM   18  H   UNL     1     -13.484  14.461  73.914  1.00  0.00     0.000 HD 
HETATM   19  C   UNL     1     -12.072  13.641  70.450  1.00  0.00    -0.421 C  
HETATM   20  O   UNL     1     -11.634  15.738  71.615  1.00  0.00    -0.388 OA 
HETATM   21  H   UNL     1     -10.777  15.808  71.211  1.00  0.00     0.000 HD 
BRANCH  19  22
HETATM   22  C   UNL     1     -11.876  13.363  68.972  1.00  0.00    -0.378 C  
HETATM   23  C   UNL     1     -12.062  14.261  67.986  1.00  0.00    -0.289 C  
BRANCH  23  24
HETATM   24  C   UNL     1     -11.748  14.022  66.529  1.00  0.00    -0.394 C  
HETATM   25  F   UNL     1     -12.903  13.964  65.811  1.00  0.00    -0.502 F  
HETATM   26  F   UNL     1     -11.144  12.811  66.391  1.00  0.00    -0.277 F  
BRANCH  24  27
HETATM   27  C   UNL     1     -10.839  15.119  65.949  1.00  0.00    -0.339 C  
BRANCH  27  28
HETATM   28  O   UNL     1     -10.028  15.706  66.977  1.00  0.00    -0.234 OA 
BRANCH  28  29
HETATM   29  C   UNL     1     -10.159  17.061  67.124  1.00  0.00    -0.292 A  
HETATM   30  C   UNL     1     -10.007  17.541  68.427  1.00  0.00    -0.335 A  
HETATM   31  C   UNL     1     -10.117  18.907  68.694  1.00  0.00    -0.447 A  
HETATM   32  C   UNL     1     -10.364  19.802  67.656  1.00  0.00    -0.579 A  
HETATM   33  C   UNL     1     -10.496  19.331  66.350  1.00  0.00    -0.563 A  
HETATM   34  C   UNL     1     -10.392  17.963  66.083  1.00  0.00    -0.352 A  
ENDBRANCH  28  29
ENDBRANCH  27  28
ENDBRANCH  24  27
ENDBRANCH  23  24
ENDBRANCH  19  22
ENDBRANCH  12  13
ENDBRANCH  11  12
ENDBRANCH   9  10
ENDBRANCH   8   9
ENDBRANCH   7   8
ENDBRANCH   5   7
ENDBRANCH   4   5
ENDBRANCH   2   4
TORSDOF 13
ENDMDL
MODEL       38
REMARK 921   NORMALIZED FREE ENERGY PREDICTED BY IDOCK:   -5.95 KCAL/MOL
REMARK 922        TOTAL FREE ENERGY PREDICTED BY IDOCK:  -13.30 KCAL/MOL
REMARK 923 INTER-LIGAND FREE ENERGY PREDICTED BY IDOCK:  -10.75 KCAL/MOL
REMARK 924 INTRA-LIGAND FREE ENERGY PREDICTED BY IDOCK:   -2.56 KCAL/MOL
REMARK 927      BINDING AFFINITY PREDICTED BY RF-SCORE:    0.00 PKD
ROOT
HETATM    1  C   UNL     1      -8.080  16.675  66.174  1.00  0.00    -0.273 C  
HETATM    2  C   UNL     1      -9.100  15.554  66.344  1.00  0.00    -0.316 C  
HETATM    3  C   UNL     1      -8.976  14.915  67.722  1.00  0.00    -0.177 C  
ENDROOT
BRANCH   2   4
HETATM    4  O   UNL     1     -10.428  16.095  66.233  1.00  0.00    -0.310 OA 
BRANCH   4   5
HETATM    5  C   UNL     1     -11.030  15.925  65.023  1.00  0.00    -0.412 C  
HETATM    6  O   UNL     1     -11.348  16.824  64.257  1.00  0.00    -1.170 OA 
BRANCH   5   7
HETATM    7  C   UNL     1     -11.298  14.463  64.780  1.00  0.00    -0.388 C  
BRANCH   7   8
HETATM    8  C   UNL     1     -12.240  13.902  65.843  1.00  0.00    -0.497 C  
BRANCH   8   9
HETATM    9  C   UNL     1     -11.680  12.606  66.424  1.00  0.00    -0.466 C  
BRANCH   9  10
HETATM   10  C   UNL     1     -11.259  11.645  65.351  1.00  0.00    -0.262 C  
HETATM   11  C   UNL     1     -10.239  10.776  65.429  1.00  0.00    -0.341 C  
BRANCH  11  12
HETATM   12  C   UNL     1      -9.314  10.591  66.603  1.00  0.00    -0.186 C  
BRANCH  12  13
HETATM   13  C   UNL     1      -9.591   9.263  67.316  1.00  0.00    -0.200 C  
HETATM   14  C   UNL     1      -8.766   8.078  66.799  1.00  0.00    -0.133 C  
HETATM   15  C   UNL     1      -8.888   7.062  67.924  1.00  0.00    -0.124 C  
HETATM   16  O   UNL     1      -7.389   8.419  66.650  1.00  0.00    -0.080 OA 
HETATM   17  C   UNL     1      -8.708   7.912  69.182  1.00  0.00    -0.138 C  
HETATM   18  H   UNL     1      -6.877   7.684  66.330  1.00  0.00     0.000 HD 
HETATM   19  C   UNL     1      -9.273   9.314  68.834  1.00  0.00    -0.143 C  
HETATM   20  O   UNL     1      -7.318   8.015  69.498  1.00  0.00    -0.081 OA 
HETATM   21  H   UNL     1      -7.207   8.543  70.280  1.00  0.00     0.000 HD 
BRANCH  19  22
HETATM   22  C   UNL     1     -10.458   9.685  69.705  1.00  0.00    -0.263 C  
HETATM   23  C   UNL     1     -11.287   8.804  70.297  1.00  0.00    -0.162 C  
BRANCH  23  24
HETATM   24  C   UNL     1     -12.388   9.168  71.263  1.00  0.00    -0.315 C  
HETATM   25  F   UNL     1     -11.881   9.281  72.521  1.00  0.00    -0.330 F  
HETATM   26  F   UNL     1     -13.303   8.163  71.303  1.00  0.00    -0.315 F  
BRANCH  24  27
HETATM   27  C   UNL     1     -13.085  10.482  70.872  1.00  0.00    -0.306 C  
BRANCH  27  28
HETATM   28  O   UNL     1     -13.174  11.367  71.998  1.00  0.00    -0.503 OA 
BRANCH  28  29
HETATM   29  C   UNL     1     -13.051  12.699  71.709  1.00  0.00    -0.360 A  
HETATM   30  C   UNL     1     -12.213  13.006  70.635  1.00  0.00    -0.390 A  
HETATM   31  C   UNL     1     -12.015  14.333  70.249  1.00  0.00    -0.398 A  
HETATM   32  C   UNL     1     -12.669  15.360  70.927  1.00  0.00    -0.520 A  
HETATM   33  C   UNL     1     -13.524  15.059  71.986  1.00  0.00    -0.500 A  
HETATM   34  C   UNL     1     -13.717  13.730  72.377  1.00  0.00    -0.692 A  
ENDBRANCH  28  29
ENDBRANCH  27  28
ENDBRANCH  24  27
ENDBRANCH  23  24
ENDBRANCH  19  22
ENDBRANCH  12  13
ENDBRANCH  11  12
ENDBRANCH   9  10
ENDBRANCH   8   9
ENDBRANCH   7   8
ENDBRANCH   5   7
ENDBRANCH   4   5
ENDBRANCH   2   4
TORSDOF 13
ENDMDL
MODEL       39
REMARK 921   NORMALIZED FREE ENERGY PREDICTED BY IDOCK:   -5.93 KCAL/MOL
REMARK 922        TOTAL FREE ENERGY PREDICTED BY IDOCK:  -13.28 KCAL/MOL
REMARK 923 INTER-LIGAND FREE ENERGY PREDICTED BY IDOCK:  -11.28 KCAL/MOL
REMARK 924 INTRA-LIGAND FREE ENERGY PREDICTED BY IDOCK:   -2.00 KCAL/MOL
REMARK 927      BINDING AFFINITY PREDICTED BY RF-SCORE:    0.00 PKD
ROOT
HETATM    1  C   UNL     1     -11.450   6.097  72.423  1.00  0.00    -0.349 C  
HETATM    2  C   UNL     1     -10.928   6.969  71.286  1.00  0.00    -0.243 C  
HETATM    3  C   UNL     1     -10.783   8.417  71.739  1.00  0.00    -0.355 C  
ENDROOT
BRANCH   2   4
HETATM    4  O   UNL     1      -9.625   6.506  70.888  1.00  0.00    -0.174 OA 
BRANCH   4   5
HETATM    5  C   UNL     1      -9.398   6.481  69.545  1.00  0.00    -0.147 C  
HETATM    6  O   UNL     1      -8.298   6.419  69.014  1.00  0.00    -0.116 OA 
BRANCH   5   7
HETATM    7  C   UNL     1     -10.701   6.593  68.799  1.00  0.00    -0.302 C  
BRANCH   7   8
HETATM    8  C   UNL     1     -10.556   7.520  67.594  1.00  0.00    -0.303 C  
BRANCH   8   9
HETATM    9  C   UNL     1     -10.548   8.980  68.040  1.00  0.00    -0.242 C  
BRANCH   9  10
HETATM   10  C   UNL     1      -9.241   9.653  67.743  1.00  0.00    -0.135 C  
HETATM   11  C   UNL     1      -8.880  10.187  66.565  1.00  0.00    -0.153 C  
BRANCH  11  12
HETATM   12  C   UNL     1      -9.711  10.217  65.309  1.00  0.00    -0.354 C  
BRANCH  12  13
HETATM   13  C   UNL     1     -10.261  11.624  65.049  1.00  0.00    -0.321 C  
HETATM   14  C   UNL     1     -10.488  11.954  63.567  1.00  0.00    -0.459 C  
HETATM   15  C   UNL     1     -11.420  13.155  63.626  1.00  0.00    -0.376 C  
HETATM   16  O   UNL     1     -11.161  10.897  62.888  1.00  0.00    -0.596 OA 
HETATM   17  C   UNL     1     -12.422  12.765  64.712  1.00  0.00    -0.472 C  
HETATM   18  H   UNL     1     -11.302  11.102  61.970  1.00  0.00     0.000 HD 
HETATM   19  C   UNL     1     -11.645  11.865  65.708  1.00  0.00    -0.281 C  
HETATM   20  O   UNL     1     -13.498  12.026  64.131  1.00  0.00    -0.672 OA 
HETATM   21  H   UNL     1     -14.121  11.784  64.805  1.00  0.00     0.000 HD 
BRANCH  19  22
HETATM   22  C   UNL     1     -11.574  12.475  67.094  1.00  0.00    -0.437 C  
HETATM   23  C   UNL     1     -11.520  13.794  67.355  1.00  0.00    -0.372 C  
BRANCH  23  24
HETATM   24  C   UNL     1     -11.576  14.405  68.735  1.00  0.00    -0.315 C  
HETATM   25  F   UNL     1     -10.543  13.940  69.489  1.00  0.00    -0.179 F  
HETATM   26  F   UNL     1     -12.719  14.009  69.358  1.00  0.00    -0.312 F  
BRANCH  24  27
HETATM   27  C   UNL     1     -11.523  15.941  68.687  1.00  0.00    -0.391 C  
BRANCH  27  28
HETATM   28  O   UNL     1     -10.802  16.391  67.531  1.00  0.00    -0.315 OA 
BRANCH  28  29
HETATM   29  C   UNL     1     -10.465  17.718  67.529  1.00  0.00    -0.372 A  
HETATM   30  C   UNL     1     -10.509  18.347  66.284  1.00  0.00    -0.421 A  
HETATM   31  C   UNL     1     -10.187  19.701  66.164  1.00  0.00    -0.604 A  
HETATM   32  C   UNL     1      -9.834  20.435  67.294  1.00  0.00    -0.597 A  
HETATM   33  C   UNL     1      -9.808  19.817  68.543  1.00  0.00    -0.506 A  
HETATM   34  C   UNL     1     -10.125  18.461  68.663  1.00  0.00    -0.407 A  
ENDBRANCH  28  29
ENDBRANCH  27  28
ENDBRANCH  24  27
ENDBRANCH  23  24
ENDBRANCH  19  22
ENDBRANCH  12  13
ENDBRANCH  11  12
ENDBRANCH   9  10
ENDBRANCH   8   9
ENDBRANCH   7   8
ENDBRANCH   5   7
ENDBRANCH   4   5
ENDBRANCH   2   4
TORSDOF 13
ENDMDL
MODEL       40
REMARK 921   NORMALIZED FREE ENERGY PREDICTED BY IDOCK:   -5.91 KCAL/MOL
REMARK 922        TOTAL FREE ENERGY PREDICTED BY IDOCK:  -13.23 KCAL/MOL
REMARK 923 INTER-LIGAND FREE ENERGY PREDICTED BY IDOCK:  -10.85 KCAL/MOL
REMARK 924 INTRA-LIGAND FREE ENERGY PREDICTED BY IDOCK:   -2.38 KCAL/MOL
REMARK 927      BINDING AFFINITY PREDICTED BY RF-SCORE:    0.00 PKD
ROOT
HETATM    1  C   UNL     1      -8.506  16.518  66.211  1.00  0.00    -0.363 C  
HETATM    2  C   UNL     1      -9.733  17.167  66.842  1.00  0.00    -0.268 C  
HETATM    3  C   UNL     1      -9.908  18.595  66.339  1.00  0.00    -0.390 C  
ENDROOT
BRANCH   2   4
HETATM    4  O   UNL     1     -10.909  16.428  66.468  1.00  0.00    -0.218 OA 
BRANCH   4   5
HETATM    5  C   UNL     1     -11.021  16.137  65.141  1.00  0.00    -0.316 C  
HETATM    6  O   UNL     1     -11.216  16.952  64.251  1.00  0.00    -1.204 OA 
BRANCH   5   7
HETATM    7  C   UNL     1     -10.920  14.650  64.929  1.00  0.00    -0.419 C  
BRANCH   7   8
HETATM    8  C   UNL     1     -12.244  14.085  64.418  1.00  0.00    -0.457 C  
BRANCH   8   9
HETATM    9  C   UNL     1     -12.345  12.594  64.729  1.00  0.00    -0.556 C  
BRANCH   9  10
HETATM   10  C   UNL     1     -11.840  11.748  63.597  1.00  0.00    -0.498 C  
HETATM   11  C   UNL     1     -10.604  11.237  63.486  1.00  0.00    -0.436 C  
BRANCH  11  12
HETATM   12  C   UNL     1      -9.477  11.410  64.471  1.00  0.00    -0.160 C  
BRANCH  12  13
HETATM   13  C   UNL     1      -9.730  10.593  65.743  1.00  0.00    -0.272 C  
HETATM   14  C   UNL     1      -9.482   9.086  65.591  1.00  0.00    -0.203 C  
HETATM   15  C   UNL     1      -9.358   8.615  67.032  1.00  0.00    -0.202 C  
HETATM   16  O   UNL     1      -8.251   8.818  64.923  1.00  0.00    -0.141 OA 
HETATM   17  C   UNL     1      -8.489   9.694  67.677  1.00  0.00    -0.125 C  
HETATM   18  H   UNL     1      -8.098   7.885  64.829  1.00  0.00     0.000 HD 
HETATM   19  C   UNL     1      -8.813  11.011  66.923  1.00  0.00    -0.150 C  
HETATM   20  O   UNL     1      -7.109   9.366  67.507  1.00  0.00    -0.077 OA 
HETATM   21  H   UNL     1      -6.569  10.037  67.908  1.00  0.00     0.000 HD 
BRANCH  19  22
HETATM   22  C   UNL     1      -9.416  12.060  67.837  1.00  0.00    -0.196 C  
HETATM   23  C   UNL     1     -10.714  12.418  67.849  1.00  0.00    -0.245 C  
BRANCH  23  24
HETATM   24  C   UNL     1     -11.338  13.369  68.841  1.00  0.00    -0.287 C  
HETATM   25  F   UNL     1     -12.310  14.102  68.231  1.00  0.00    -0.373 F  
HETATM   26  F   UNL     1     -10.398  14.255  69.270  1.00  0.00    -0.228 F  
BRANCH  24  27
HETATM   27  C   UNL     1     -11.937  12.630  70.050  1.00  0.00    -0.306 C  
BRANCH  27  28
HETATM   28  O   UNL     1     -12.405  11.328  69.670  1.00  0.00    -0.276 OA 
BRANCH  28  29
HETATM   29  C   UNL     1     -12.125  10.323  70.556  1.00  0.00    -0.310 A  
HETATM   30  C   UNL     1     -10.794   9.899  70.582  1.00  0.00    -0.400 A  
HETATM   31  C   UNL     1     -10.394   8.881  71.450  1.00  0.00    -0.377 A  
HETATM   32  C   UNL     1     -11.320   8.292  72.308  1.00  0.00    -0.446 A  
HETATM   33  C   UNL     1     -12.645   8.726  72.301  1.00  0.00    -0.460 A  
HETATM   34  C   UNL     1     -13.048   9.741  71.429  1.00  0.00    -0.489 A  
ENDBRANCH  28  29
ENDBRANCH  27  28
ENDBRANCH  24  27
ENDBRANCH  23  24
ENDBRANCH  19  22
ENDBRANCH  12  13
ENDBRANCH  11  12
ENDBRANCH   9  10
ENDBRANCH   8   9
ENDBRANCH   7   8
ENDBRANCH   5   7
ENDBRANCH   4   5
ENDBRANCH   2   4
TORSDOF 13
ENDMDL
MODEL       41
REMARK 921   NORMALIZED FREE ENERGY PREDICTED BY IDOCK:   -5.89 KCAL/MOL
REMARK 922        TOTAL FREE ENERGY PREDICTED BY IDOCK:  -13.20 KCAL/MOL
REMARK 923 INTER-LIGAND FREE ENERGY PREDICTED BY IDOCK:  -11.52 KCAL/MOL
REMARK 924 INTRA-LIGAND FREE ENERGY PREDICTED BY IDOCK:   -1.67 KCAL/MOL
REMARK 927      BINDING AFFINITY PREDICTED BY RF-SCORE:    0.00 PKD
ROOT
HETATM    1  C   UNL     1     -10.359   3.895  72.699  1.00  0.00    -0.228 C  
HETATM    2  C   UNL     1     -10.877   5.297  73.001  1.00  0.00    -0.280 C  
HETATM    3  C   UNL     1     -10.360   5.786  74.348  1.00  0.00    -0.271 C  
ENDROOT
BRANCH   2   4
HETATM    4  O   UNL     1     -10.400   6.209  71.996  1.00  0.00    -0.193 OA 
BRANCH   4   5
HETATM    5  C   UNL     1     -11.357   6.965  71.389  1.00  0.00    -0.270 C  
HETATM    6  O   UNL     1     -12.004   6.634  70.405  1.00  0.00    -0.396 OA 
BRANCH   5   7
HETATM    7  C   UNL     1     -11.473   8.300  72.076  1.00  0.00    -0.399 C  
BRANCH   7   8
HETATM    8  C   UNL     1     -12.935   8.730  72.177  1.00  0.00    -0.457 C  
BRANCH   8   9
HETATM    9  C   UNL     1     -13.100  10.176  71.715  1.00  0.00    -0.568 C  
BRANCH   9  10
HETATM   10  C   UNL     1     -12.006  10.595  70.777  1.00  0.00    -0.477 C  
HETATM   11  C   UNL     1     -11.814  11.833  70.294  1.00  0.00    -0.382 C  
BRANCH  11  12
HETATM   12  C   UNL     1     -12.654  13.046  70.594  1.00  0.00    -0.270 C  
BRANCH  12  13
HETATM   13  C   UNL     1     -12.146  14.270  69.824  1.00  0.00    -0.401 C  
HETATM   14  C   UNL     1     -11.755  15.462  70.708  1.00  0.00    -0.348 C  
HETATM   15  C   UNL     1     -10.897  16.307  69.779  1.00  0.00    -0.356 C  
HETATM   16  O   UNL     1     -10.953  15.057  71.816  1.00  0.00    -0.547 OA 
HETATM   17  C   UNL     1     -10.017  15.271  69.079  1.00  0.00    -0.229 C  
HETATM   18  H   UNL     1     -10.711  15.795  72.363  1.00  0.00     0.000 HD 
HETATM   19  C   UNL     1     -10.866  13.976  68.996  1.00  0.00    -0.268 C  
HETATM   20  O   UNL     1      -8.844  15.031  69.858  1.00  0.00    -0.448 OA 
HETATM   21  H   UNL     1      -8.297  14.388  69.423  1.00  0.00     0.000 HD 
BRANCH  19  22
HETATM   22  C   UNL     1     -11.136  13.559  67.563  1.00  0.00    -0.293 C  
HETATM   23  C   UNL     1     -11.974  14.192  66.721  1.00  0.00    -0.475 C  
BRANCH  23  24
HETATM   24  C   UNL     1     -12.148  13.853  65.260  1.00  0.00    -0.410 C  
HETATM   25  F   UNL     1     -12.703  14.909  64.603  1.00  0.00    -0.404 F  
HETATM   26  F   UNL     1     -13.022  12.818  65.137  1.00  0.00    -0.561 F  
BRANCH  24  27
HETATM   27  C   UNL     1     -10.814  13.481  64.592  1.00  0.00    -0.405 C  
BRANCH  27  28
HETATM   28  O   UNL     1     -11.007  12.467  63.596  1.00  0.00    -0.410 OA 
BRANCH  28  29
HETATM   29  C   UNL     1     -10.234  11.347  63.740  1.00  0.00    -0.382 A  
HETATM   30  C   UNL     1     -10.297  10.731  64.992  1.00  0.00    -0.357 A  
HETATM   31  C   UNL     1      -9.551   9.579  65.251  1.00  0.00    -0.314 A  
HETATM   32  C   UNL     1      -8.750   9.029  64.253  1.00  0.00    -0.140 A  
HETATM   33  C   UNL     1      -8.699   9.627  62.995  1.00  0.00    -0.229 A  
HETATM   34  C   UNL     1      -9.441  10.784  62.737  1.00  0.00    -0.358 A  
ENDBRANCH  28  29
ENDBRANCH  27  28
ENDBRANCH  24  27
ENDBRANCH  23  24
ENDBRANCH  19  22
ENDBRANCH  12  13
ENDBRANCH  11  12
ENDBRANCH   9  10
ENDBRANCH   8   9
ENDBRANCH   7   8
ENDBRANCH   5   7
ENDBRANCH   4   5
ENDBRANCH   2   4
TORSDOF 13
ENDMDL
MODEL       42
REMARK 921   NORMALIZED FREE ENERGY PREDICTED BY IDOCK:   -5.86 KCAL/MOL
REMARK 922        TOTAL FREE ENERGY PREDICTED BY IDOCK:  -13.15 KCAL/MOL
REMARK 923 INTER-LIGAND FREE ENERGY PREDICTED BY IDOCK:  -10.89 KCAL/MOL
REMARK 924 INTRA-LIGAND FREE ENERGY PREDICTED BY IDOCK:   -2.26 KCAL/MOL
REMARK 927      BINDING AFFINITY PREDICTED BY RF-SCORE:    0.00 PKD
ROOT
HETATM    1  C   UNL     1     -10.812  19.477  67.228  1.00  0.00    -0.557 C  
HETATM    2  C   UNL     1     -10.116  18.551  66.236  1.00  0.00    -0.398 C  
HETATM    3  C   UNL     1      -8.604  18.606  66.416  1.00  0.00    -0.284 C  
ENDROOT
BRANCH   2   4
HETATM    4  O   UNL     1     -10.533  17.195  66.475  1.00  0.00    -0.312 OA 
BRANCH   4   5
HETATM    5  C   UNL     1     -10.746  16.443  65.359  1.00  0.00    -0.296 C  
HETATM    6  O   UNL     1     -11.165  16.863  64.290  1.00  0.00    -1.204 OA 
BRANCH   5   7
HETATM    7  C   UNL     1     -10.436  14.997  65.644  1.00  0.00    -0.368 C  
BRANCH   7   8
HETATM    8  C   UNL     1     -10.441  14.730  67.148  1.00  0.00    -0.265 C  
BRANCH   8   9
HETATM    9  C   UNL     1     -11.593  13.800  67.522  1.00  0.00    -0.387 C  
BRANCH   9  10
HETATM   10  C   UNL     1     -11.790  13.718  69.007  1.00  0.00    -0.397 C  
HETATM   11  C   UNL     1     -11.903  12.589  69.725  1.00  0.00    -0.380 C  
BRANCH  11  12
HETATM   12  C   UNL     1     -11.857  11.183  69.187  1.00  0.00    -0.419 C  
BRANCH  12  13
HETATM   13  C   UNL     1     -11.190  10.234  70.189  1.00  0.00    -0.387 C  
HETATM   14  C   UNL     1     -12.090   9.803  71.354  1.00  0.00    -0.400 C  
HETATM   15  C   UNL     1     -11.377   8.574  71.897  1.00  0.00    -0.399 C  
HETATM   16  O   UNL     1     -13.385   9.409  70.903  1.00  0.00    -0.565 OA 
HETATM   17  C   UNL     1     -10.977   7.816  70.632  1.00  0.00    -0.249 C  
HETATM   18  H   UNL     1     -13.942   9.141  71.625  1.00  0.00     0.000 HD 
HETATM   19  C   UNL     1     -10.736   8.897  69.545  1.00  0.00    -0.206 C  
HETATM   20  O   UNL     1     -12.043   6.954  70.228  1.00  0.00    -0.600 OA 
HETATM   21  H   UNL     1     -11.793   6.483  69.442  1.00  0.00     0.000 HD 
BRANCH  19  22
HETATM   22  C   UNL     1      -9.302   8.901  69.051  1.00  0.00    -0.144 C  
HETATM   23  C   UNL     1      -8.831   8.143  68.043  1.00  0.00    -0.131 C  
BRANCH  23  24
HETATM   24  C   UNL     1      -7.438   8.237  67.469  1.00  0.00    -0.094 C  
HETATM   25  F   UNL     1      -6.814   7.031  67.571  1.00  0.00    -0.062 F  
HETATM   26  F   UNL     1      -6.705   9.115  68.206  1.00  0.00    -0.057 F  
BRANCH  24  27
HETATM   27  C   UNL     1      -7.450   8.684  65.998  1.00  0.00    -0.085 C  
BRANCH  27  28
HETATM   28  O   UNL     1      -8.768   8.570  65.441  1.00  0.00    -0.175 OA 
BRANCH  28  29
HETATM   29  C   UNL     1      -9.199   9.655  64.726  1.00  0.00    -0.238 A  
HETATM   30  C   UNL     1     -10.091  10.498  65.393  1.00  0.00    -0.358 A  
HETATM   31  C   UNL     1     -10.594  11.637  64.761  1.00  0.00    -0.358 A  
HETATM   32  C   UNL     1     -10.193  11.947  63.463  1.00  0.00    -0.485 A  
HETATM   33  C   UNL     1      -9.286  11.121  62.800  1.00  0.00    -0.377 A  
HETATM   34  C   UNL     1      -8.787   9.978  63.430  1.00  0.00    -0.249 A  
ENDBRANCH  28  29
ENDBRANCH  27  28
ENDBRANCH  24  27
ENDBRANCH  23  24
ENDBRANCH  19  22
ENDBRANCH  12  13
ENDBRANCH  11  12
ENDBRANCH   9  10
ENDBRANCH   8   9
ENDBRANCH   7   8
ENDBRANCH   5   7
ENDBRANCH   4   5
ENDBRANCH   2   4
TORSDOF 13
ENDMDL
MODEL       43
REMARK 921   NORMALIZED FREE ENERGY PREDICTED BY IDOCK:   -5.84 KCAL/MOL
REMARK 922        TOTAL FREE ENERGY PREDICTED BY IDOCK:  -13.12 KCAL/MOL
REMARK 923 INTER-LIGAND FREE ENERGY PREDICTED BY IDOCK:  -11.76 KCAL/MOL
REMARK 924 INTRA-LIGAND FREE ENERGY PREDICTED BY IDOCK:   -1.36 KCAL/MOL
REMARK 927      BINDING AFFINITY PREDICTED BY RF-SCORE:    0.00 PKD
ROOT
HETATM    1  C   UNL     1     -11.185   5.334  73.062  1.00  0.00    -0.387 C  
HETATM    2  C   UNL     1     -10.981   6.326  71.922  1.00  0.00    -0.256 C  
HETATM    3  C   UNL     1     -10.063   5.742  70.856  1.00  0.00    -0.256 C  
ENDROOT
BRANCH   2   4
HETATM    4  O   UNL     1     -12.248   6.605  71.300  1.00  0.00    -0.356 OA 
BRANCH   4   5
HETATM    5  C   UNL     1     -12.888   7.721  71.749  1.00  0.00    -0.327 C  
HETATM    6  O   UNL     1     -14.098   7.840  71.878  1.00  0.00    -0.374 OA 
BRANCH   5   7
HETATM    7  C   UNL     1     -11.889   8.815  72.020  1.00  0.00    -0.442 C  
BRANCH   7   8
HETATM    8  C   UNL     1     -12.132  10.008  71.098  1.00  0.00    -0.475 C  
BRANCH   8   9
HETATM    9  C   UNL     1     -11.105  10.030  69.969  1.00  0.00    -0.350 C  
BRANCH   9  10
HETATM   10  C   UNL     1     -11.488  10.986  68.878  1.00  0.00    -0.364 C  
HETATM   11  C   UNL     1     -11.143  10.884  67.584  1.00  0.00    -0.376 C  
BRANCH  11  12
HETATM   12  C   UNL     1     -10.302   9.795  66.970  1.00  0.00    -0.305 C  
BRANCH  12  13
HETATM   13  C   UNL     1      -9.331  10.370  65.934  1.00  0.00    -0.224 C  
HETATM   14  C   UNL     1      -8.375   9.340  65.317  1.00  0.00    -0.145 C  
HETATM   15  C   UNL     1      -7.879  10.045  64.063  1.00  0.00    -0.150 C  
HETATM   16  O   UNL     1      -9.059   8.153  64.924  1.00  0.00    -0.370 OA 
HETATM   17  C   UNL     1      -9.150  10.672  63.492  1.00  0.00    -0.238 C  
HETATM   18  H   UNL     1      -8.467   7.515  64.542  1.00  0.00     0.000 HD 
HETATM   19  C   UNL     1     -10.052  10.998  64.711  1.00  0.00    -0.367 C  
HETATM   20  O   UNL     1      -9.810   9.733  62.640  1.00  0.00    -0.518 OA 
HETATM   21  H   UNL     1     -10.599  10.123  62.284  1.00  0.00     0.000 HD 
BRANCH  19  22
HETATM   22  C   UNL     1     -10.320  12.484  64.843  1.00  0.00    -0.323 C  
HETATM   23  C   UNL     1     -11.542  13.050  64.860  1.00  0.00    -0.362 C  
BRANCH  23  24
HETATM   24  C   UNL     1     -11.813  14.513  65.117  1.00  0.00    -0.374 C  
HETATM   25  F   UNL     1     -12.710  14.645  66.132  1.00  0.00    -0.301 F  
HETATM   26  F   UNL     1     -12.391  15.064  64.015  1.00  0.00    -0.508 F  
BRANCH  24  27
HETATM   27  C   UNL     1     -10.529  15.284  65.464  1.00  0.00    -0.374 C  
BRANCH  27  28
HETATM   28  O   UNL     1     -10.641  16.661  65.077  1.00  0.00    -0.683 OA 
BRANCH  28  29
HETATM   29  C   UNL     1     -10.476  17.569  66.088  1.00  0.00    -0.288 A  
HETATM   30  C   UNL     1     -10.248  17.025  67.353  1.00  0.00    -0.314 A  
HETATM   31  C   UNL     1     -10.062  17.858  68.459  1.00  0.00    -0.392 A  
HETATM   32  C   UNL     1     -10.089  19.242  68.299  1.00  0.00    -0.516 A  
HETATM   33  C   UNL     1     -10.295  19.792  67.035  1.00  0.00    -0.593 A  
HETATM   34  C   UNL     1     -10.486  18.958  65.929  1.00  0.00    -0.450 A  
ENDBRANCH  28  29
ENDBRANCH  27  28
ENDBRANCH  24  27
ENDBRANCH  23  24
ENDBRANCH  19  22
ENDBRANCH  12  13
ENDBRANCH  11  12
ENDBRANCH   9  10
ENDBRANCH   8   9
ENDBRANCH   7   8
ENDBRANCH   5   7
ENDBRANCH   4   5
ENDBRANCH   2   4
TORSDOF 13
ENDMDL
MODEL       44
REMARK 921   NORMALIZED FREE ENERGY PREDICTED BY IDOCK:   -5.80 KCAL/MOL
REMARK 922        TOTAL FREE ENERGY PREDICTED BY IDOCK:  -13.04 KCAL/MOL
REMARK 923 INTER-LIGAND FREE ENERGY PREDICTED BY IDOCK:  -10.35 KCAL/MOL
REMARK 924 INTRA-LIGAND FREE ENERGY PREDICTED BY IDOCK:   -2.69 KCAL/MOL
REMARK 927      BINDING AFFINITY PREDICTED BY RF-SCORE:    0.00 PKD
ROOT
HETATM    1  C   UNL     1     -11.414   6.530  69.854  1.00  0.00    -0.467 C  
HETATM    2  C   UNL     1     -11.835   6.415  71.315  1.00  0.00    -0.273 C  
HETATM    3  C   UNL     1     -10.798   5.640  72.117  1.00  0.00    -0.300 C  
ENDROOT
BRANCH   2   4
HETATM    4  O   UNL     1     -11.934   7.731  71.888  1.00  0.00    -0.280 OA 
BRANCH   4   5
HETATM    5  C   UNL     1     -13.091   8.400  71.622  1.00  0.00    -0.334 C  
HETATM    6  O   UNL     1     -14.219   7.946  71.752  1.00  0.00    -0.404 OA 
BRANCH   5   7
HETATM    7  C   UNL     1     -12.781   9.775  71.092  1.00  0.00    -0.433 C  
BRANCH   7   8
HETATM    8  C   UNL     1     -11.292  10.085  71.229  1.00  0.00    -0.336 C  
BRANCH   8   9
HETATM    9  C   UNL     1     -10.794  10.863  70.014  1.00  0.00    -0.139 C  
BRANCH   9  10
HETATM   10  C   UNL     1     -11.899  11.160  69.044  1.00  0.00    -0.418 C  
HETATM   11  C   UNL     1     -11.781  11.218  67.708  1.00  0.00    -0.254 C  
BRANCH  11  12
HETATM   12  C   UNL     1     -10.518  10.999  66.916  1.00  0.00    -0.293 C  
BRANCH  12  13
HETATM   13  C   UNL     1     -10.234  12.192  65.996  1.00  0.00    -0.265 C  
HETATM   14  C   UNL     1     -10.608  11.964  64.525  1.00  0.00    -0.311 C  
HETATM   15  C   UNL     1     -10.659  13.377  63.965  1.00  0.00    -0.122 C  
HETATM   16  O   UNL     1     -11.904  11.382  64.394  1.00  0.00    -0.066 OA 
HETATM   17  C   UNL     1     -11.390  14.158  65.056  1.00  0.00    -0.350 C  
HETATM   18  H   UNL     1     -12.135  11.242  63.483  1.00  0.00     0.000 HD 
HETATM   19  C   UNL     1     -11.024  13.466  66.395  1.00  0.00    -0.297 C  
HETATM   20  O   UNL     1     -12.801  14.080  64.842  1.00  0.00    -0.692 OA 
HETATM   21  H   UNL     1     -13.255  14.565  65.520  1.00  0.00     0.000 HD 
BRANCH  19  22
HETATM   22  C   UNL     1     -10.274  14.394  67.331  1.00  0.00    -0.247 C  
HETATM   23  C   UNL     1     -10.562  15.695  67.523  1.00  0.00    -0.297 C  
BRANCH  23  24
HETATM   24  C   UNL     1      -9.897  16.585  68.545  1.00  0.00    -0.243 C  
HETATM   25  F   UNL     1     -10.231  17.885  68.313  1.00  0.00    -0.308 F  
HETATM   26  F   UNL     1      -8.546  16.502  68.405  1.00  0.00    -0.183 F  
BRANCH  24  27
HETATM   27  C   UNL     1     -10.289  16.205  69.982  1.00  0.00    -0.147 C  
BRANCH  27  28
HETATM   28  O   UNL     1     -11.706  16.324  70.173  1.00  0.00    -0.244 OA 
BRANCH  28  29
HETATM   29  C   UNL     1     -12.230  15.553  71.176  1.00  0.00    -0.396 A  
HETATM   30  C   UNL     1     -12.788  14.339  70.771  1.00  0.00    -0.404 A  
HETATM   31  C   UNL     1     -13.349  13.470  71.709  1.00  0.00    -0.480 A  
HETATM   32  C   UNL     1     -13.341  13.807  73.061  1.00  0.00    -0.101 A  
HETATM   33  C   UNL     1     -12.767  15.008  73.474  1.00  0.00    -0.667 A  
HETATM   34  C   UNL     1     -12.210  15.880  72.534  1.00  0.00    -0.597 A  
ENDBRANCH  28  29
ENDBRANCH  27  28
ENDBRANCH  24  27
ENDBRANCH  23  24
ENDBRANCH  19  22
ENDBRANCH  12  13
ENDBRANCH  11  12
ENDBRANCH   9  10
ENDBRANCH   8   9
ENDBRANCH   7   8
ENDBRANCH   5   7
ENDBRANCH   4   5
ENDBRANCH   2   4
TORSDOF 13
ENDMDL
MODEL       45
REMARK 921   NORMALIZED FREE ENERGY PREDICTED BY IDOCK:   -5.78 KCAL/MOL
REMARK 922        TOTAL FREE ENERGY PREDICTED BY IDOCK:  -13.01 KCAL/MOL
REMARK 923 INTER-LIGAND FREE ENERGY PREDICTED BY IDOCK:  -11.05 KCAL/MOL
REMARK 924 INTRA-LIGAND FREE ENERGY PREDICTED BY IDOCK:   -1.96 KCAL/MOL
REMARK 927      BINDING AFFINITY PREDICTED BY RF-SCORE:    0.00 PKD
ROOT
HETATM    1  C   UNL     1     -10.411   7.149  73.569  1.00  0.00    -0.422 C  
HETATM    2  C   UNL     1     -11.199   7.583  72.337  1.00  0.00    -0.308 C  
HETATM    3  C   UNL     1     -11.827   6.380  71.645  1.00  0.00    -0.361 C  
ENDROOT
BRANCH   2   4
HETATM    4  O   UNL     1     -12.266   8.460  72.737  1.00  0.00    -0.339 OA 
BRANCH   4   5
HETATM    5  C   UNL     1     -12.787   9.239  71.747  1.00  0.00    -0.382 C  
HETATM    6  O   UNL     1     -13.937   9.185  71.334  1.00  0.00    -0.340 OA 
BRANCH   5   7
HETATM    7  C   UNL     1     -11.724  10.149  71.193  1.00  0.00    -0.453 C  
BRANCH   7   8
HETATM    8  C   UNL     1     -12.307  11.520  70.857  1.00  0.00    -0.460 C  
BRANCH   8   9
HETATM    9  C   UNL     1     -11.797  12.000  69.500  1.00  0.00    -0.390 C  
BRANCH   9  10
HETATM   10  C   UNL     1     -11.827  13.496  69.385  1.00  0.00    -0.389 C  
HETATM   11  C   UNL     1     -10.955  14.251  68.698  1.00  0.00    -0.268 C  
BRANCH  11  12
HETATM   12  C   UNL     1      -9.774  13.752  67.908  1.00  0.00    -0.229 C  
BRANCH  12  13
HETATM   13  C   UNL     1      -9.980  13.984  66.407  1.00  0.00    -0.301 C  
HETATM   14  C   UNL     1     -10.382  12.731  65.619  1.00  0.00    -0.279 C  
HETATM   15  C   UNL     1     -10.946  13.308  64.329  1.00  0.00    -0.418 C  
HETATM   16  O   UNL     1     -11.419  12.004  66.275  1.00  0.00    -0.347 OA 
HETATM   17  C   UNL     1     -11.797  14.480  64.814  1.00  0.00    -0.441 C  
HETATM   18  H   UNL     1     -11.668  11.228  65.786  1.00  0.00     0.000 HD 
HETATM   19  C   UNL     1     -11.109  15.004  66.102  1.00  0.00    -0.329 C  
HETATM   20  O   UNL     1     -13.116  14.022  65.122  1.00  0.00    -0.776 OA 
HETATM   21  H   UNL     1     -13.645  14.751  65.424  1.00  0.00     0.000 HD 
BRANCH  19  22
HETATM   22  C   UNL     1     -10.631  16.435  65.953  1.00  0.00    -0.294 C  
HETATM   23  C   UNL     1     -10.890  17.430  66.822  1.00  0.00     0.024 C  
BRANCH  23  24
HETATM   24  C   UNL     1     -10.310  18.822  66.740  1.00  0.00    -0.412 C  
HETATM   25  F   UNL     1     -10.729  19.560  67.804  1.00  0.00    -0.500 F  
HETATM   26  F   UNL     1     -10.786  19.443  65.626  1.00  0.00    -0.540 F  
BRANCH  24  27
HETATM   27  C   UNL     1      -8.774  18.804  66.702  1.00  0.00    -0.303 C  
BRANCH  27  28
HETATM   28  O   UNL     1      -8.227  19.356  67.909  1.00  0.00    -0.290 OA 
BRANCH  28  29
HETATM   29  C   UNL     1      -7.422  18.514  68.627  1.00  0.00    -0.301 A  
HETATM   30  C   UNL     1      -7.714  17.154  68.505  1.00  0.00    -0.248 A  
HETATM   31  C   UNL     1      -6.955  16.203  69.191  1.00  0.00    -0.201 A  
HETATM   32  C   UNL     1      -5.889  16.608  69.990  1.00  0.00    -0.206 A  
HETATM   33  C   UNL     1      -5.579  17.963  70.099  1.00  0.00    -0.243 A  
HETATM   34  C   UNL     1      -6.342  18.916  69.417  1.00  0.00    -0.299 A  
ENDBRANCH  28  29
ENDBRANCH  27  28
ENDBRANCH  24  27
ENDBRANCH  23  24
ENDBRANCH  19  22
ENDBRANCH  12  13
ENDBRANCH  11  12
ENDBRANCH   9  10
ENDBRANCH   8   9
ENDBRANCH   7   8
ENDBRANCH   5   7
ENDBRANCH   4   5
ENDBRANCH   2   4
TORSDOF 13
ENDMDL
MODEL       46
REMARK 921   NORMALIZED FREE ENERGY PREDICTED BY IDOCK:   -5.75 KCAL/MOL
REMARK 922        TOTAL FREE ENERGY PREDICTED BY IDOCK:  -12.96 KCAL/MOL
REMARK 923 INTER-LIGAND FREE ENERGY PREDICTED BY IDOCK:  -10.41 KCAL/MOL
REMARK 924 INTRA-LIGAND FREE ENERGY PREDICTED BY IDOCK:   -2.55 KCAL/MOL
REMARK 927      BINDING AFFINITY PREDICTED BY RF-SCORE:    0.00 PKD
ROOT
HETATM    1  C   UNL     1     -10.759  18.672  67.518  1.00  0.00    -0.447 C  
HETATM    2  C   UNL     1      -9.329  19.194  67.430  1.00  0.00    -0.304 C  
HETATM    3  C   UNL     1      -9.312  20.655  66.998  1.00  0.00    -0.424 C  
ENDROOT
BRANCH   2   4
HETATM    4  O   UNL     1      -8.712  19.117  68.727  1.00  0.00    -0.354 OA 
BRANCH   4   5
HETATM    5  C   UNL     1      -7.382  18.821  68.727  1.00  0.00    -0.312 C  
HETATM    6  O   UNL     1      -6.508  19.482  69.270  1.00  0.00    -0.293 OA 
BRANCH   5   7
HETATM    7  C   UNL     1      -7.130  17.579  67.913  1.00  0.00    -0.186 C  
BRANCH   7   8
HETATM    8  C   UNL     1      -7.495  16.328  68.708  1.00  0.00    -0.195 C  
BRANCH   8   9
HETATM    9  C   UNL     1      -8.395  15.413  67.881  1.00  0.00    -0.148 C  
BRANCH   9  10
HETATM   10  C   UNL     1      -9.732  15.202  68.529  1.00  0.00    -0.214 C  
HETATM   11  C   UNL     1     -10.895  15.004  67.889  1.00  0.00    -0.280 C  
BRANCH  11  12
HETATM   12  C   UNL     1     -11.092  14.953  66.397  1.00  0.00    -0.342 C  
BRANCH  12  13
HETATM   13  C   UNL     1     -11.358  13.519  65.926  1.00  0.00    -0.321 C  
HETATM   14  C   UNL     1     -12.465  13.390  64.872  1.00  0.00    -0.396 C  
HETATM   15  C   UNL     1     -12.209  12.013  64.278  1.00  0.00    -0.404 C  
HETATM   16  O   UNL     1     -12.324  14.359  63.836  1.00  0.00    -0.897 OA 
HETATM   17  C   UNL     1     -10.690  11.980  64.117  1.00  0.00    -0.357 C  
HETATM   18  H   UNL     1     -13.009  14.278  63.183  1.00  0.00     0.000 HD 
HETATM   19  C   UNL     1     -10.120  12.862  65.259  1.00  0.00    -0.254 C  
HETATM   20  O   UNL     1     -10.327  12.536  62.851  1.00  0.00    -0.437 OA 
HETATM   21  H   UNL     1      -9.383  12.515  62.752  1.00  0.00     0.000 HD 
BRANCH  19  22
HETATM   22  C   UNL     1      -9.249  12.068  66.214  1.00  0.00    -0.208 C  
HETATM   23  C   UNL     1      -9.696  11.401  67.294  1.00  0.00    -0.201 C  
BRANCH  23  24
HETATM   24  C   UNL     1      -8.850  10.510  68.171  1.00  0.00    -0.134 C  
HETATM   25  F   UNL     1      -8.176  11.264  69.083  1.00  0.00    -0.140 F  
HETATM   26  F   UNL     1      -7.907   9.892  67.409  1.00  0.00    -0.097 F  
BRANCH  24  27
HETATM   27  C   UNL     1      -9.693   9.454  68.903  1.00  0.00    -0.164 C  
BRANCH  27  28
HETATM   28  O   UNL     1      -9.655   9.664  70.322  1.00  0.00    -0.241 OA 
BRANCH  28  29
HETATM   29  C   UNL     1     -10.860   9.560  70.963  1.00  0.00    -0.353 A  
HETATM   30  C   UNL     1     -10.975   8.494  71.857  1.00  0.00    -0.394 A  
HETATM   31  C   UNL     1     -12.159   8.293  72.569  1.00  0.00    -0.400 A  
HETATM   32  C   UNL     1     -13.230   9.169  72.401  1.00  0.00    -0.512 A  
HETATM   33  C   UNL     1     -13.113  10.248  71.526  1.00  0.00    -0.534 A  
HETATM   34  C   UNL     1     -11.930  10.446  70.808  1.00  0.00    -0.462 A  
ENDBRANCH  28  29
ENDBRANCH  27  28
ENDBRANCH  24  27
ENDBRANCH  23  24
ENDBRANCH  19  22
ENDBRANCH  12  13
ENDBRANCH  11  12
ENDBRANCH   9  10
ENDBRANCH   8   9
ENDBRANCH   7   8
ENDBRANCH   5   7
ENDBRANCH   4   5
ENDBRANCH   2   4
TORSDOF 13
ENDMDL
MODEL       47
REMARK 921   NORMALIZED FREE ENERGY PREDICTED BY IDOCK:   -5.74 KCAL/MOL
REMARK 922        TOTAL FREE ENERGY PREDICTED BY IDOCK:  -12.93 KCAL/MOL
REMARK 923 INTER-LIGAND FREE ENERGY PREDICTED BY IDOCK:  -11.45 KCAL/MOL
REMARK 924 INTRA-LIGAND FREE ENERGY PREDICTED BY IDOCK:   -1.49 KCAL/MOL
REMARK 927      BINDING AFFINITY PREDICTED BY RF-SCORE:    0.00 PKD
ROOT
HETATM    1  C   UNL     1      -6.465  17.823  66.139  1.00  0.00    -0.295 C  
HETATM    2  C   UNL     1      -7.185  19.167  66.117  1.00  0.00    -0.262 C  
HETATM    3  C   UNL     1      -6.466  20.152  65.203  1.00  0.00    -0.324 C  
ENDROOT
BRANCH   2   4
HETATM    4  O   UNL     1      -8.516  18.988  65.600  1.00  0.00    -0.339 OA 
BRANCH   4   5
HETATM    5  C   UNL     1      -9.501  19.640  66.278  1.00  0.00    -0.396 C  
HETATM    6  O   UNL     1     -10.599  19.931  65.827  1.00  0.00    -0.507 OA 
BRANCH   5   7
HETATM    7  C   UNL     1      -9.024  20.000  67.661  1.00  0.00    -0.420 C  
BRANCH   7   8
HETATM    8  C   UNL     1      -9.849  19.275  68.722  1.00  0.00    -0.514 C  
BRANCH   8   9
HETATM    9  C   UNL     1      -9.561  17.776  68.692  1.00  0.00    -0.322 C  
BRANCH   9  10
HETATM   10  C   UNL     1     -10.751  16.966  69.113  1.00  0.00    -0.298 C  
HETATM   11  C   UNL     1     -11.312  15.968  68.413  1.00  0.00    -0.355 C  
BRANCH  11  12
HETATM   12  C   UNL     1     -10.864  15.463  67.067  1.00  0.00    -0.320 C  
BRANCH  12  13
HETATM   13  C   UNL     1     -11.674  14.232  66.644  1.00  0.00    -0.417 C  
HETATM   14  C   UNL     1     -11.786  14.034  65.127  1.00  0.00    -0.365 C  
HETATM   15  C   UNL     1     -12.209  12.577  65.005  1.00  0.00    -0.519 C  
HETATM   16  O   UNL     1     -10.525  14.191  64.479  1.00  0.00    -0.563 OA 
HETATM   17  C   UNL     1     -11.319  11.870  66.026  1.00  0.00    -0.316 C  
HETATM   18  H   UNL     1     -10.595  14.067  63.539  1.00  0.00     0.000 HD 
HETATM   19  C   UNL     1     -11.063  12.900  67.157  1.00  0.00    -0.309 C  
HETATM   20  O   UNL     1     -10.080  11.506  65.414  1.00  0.00    -0.237 OA 
HETATM   21  H   UNL     1      -9.527  11.065  66.049  1.00  0.00     0.000 HD 
BRANCH  19  22
HETATM   22  C   UNL     1     -11.616  12.435  68.490  1.00  0.00    -0.358 C  
HETATM   23  C   UNL     1     -11.601  11.163  68.931  1.00  0.00    -0.385 C  
BRANCH  23  24
HETATM   24  C   UNL     1     -12.037  10.720  70.306  1.00  0.00    -0.348 C  
HETATM   25  F   UNL     1     -13.274  10.155  70.239  1.00  0.00    -0.304 F  
HETATM   26  F   UNL     1     -12.153  11.809  71.115  1.00  0.00    -0.401 F  
BRANCH  24  27
HETATM   27  C   UNL     1     -11.050   9.720  70.929  1.00  0.00    -0.357 C  
BRANCH  27  28
HETATM   28  O   UNL     1     -11.518   8.373  70.767  1.00  0.00    -0.273 OA 
BRANCH  28  29
HETATM   29  C   UNL     1     -11.183   7.510  71.775  1.00  0.00    -0.246 A  
HETATM   30  C   UNL     1     -11.718   6.225  71.669  1.00  0.00    -0.342 A  
HETATM   31  C   UNL     1     -11.440   5.260  72.640  1.00  0.00    -0.270 A  
HETATM   32  C   UNL     1     -10.612   5.574  73.715  1.00  0.00    -0.316 A  
HETATM   33  C   UNL     1     -10.058   6.849  73.816  1.00  0.00    -0.373 A  
HETATM   34  C   UNL     1     -10.340   7.817  72.847  1.00  0.00    -0.396 A  
ENDBRANCH  28  29
ENDBRANCH  27  28
ENDBRANCH  24  27
ENDBRANCH  23  24
ENDBRANCH  19  22
ENDBRANCH  12  13
ENDBRANCH  11  12
ENDBRANCH   9  10
ENDBRANCH   8   9
ENDBRANCH   7   8
ENDBRANCH   5   7
ENDBRANCH   4   5
ENDBRANCH   2   4
TORSDOF 13
ENDMDL
MODEL       48
REMARK 921   NORMALIZED FREE ENERGY PREDICTED BY IDOCK:   -5.72 KCAL/MOL
REMARK 922        TOTAL FREE ENERGY PREDICTED BY IDOCK:  -12.91 KCAL/MOL
REMARK 923 INTER-LIGAND FREE ENERGY PREDICTED BY IDOCK:  -10.29 KCAL/MOL
REMARK 924 INTRA-LIGAND FREE ENERGY PREDICTED BY IDOCK:   -2.61 KCAL/MOL
REMARK 927      BINDING AFFINITY PREDICTED BY RF-SCORE:    0.00 PKD
ROOT
HETATM    1  C   UNL     1     -11.081  15.752  67.869  1.00  0.00    -0.326 C  
HETATM    2  C   UNL     1     -11.036  15.038  66.522  1.00  0.00    -0.329 C  
HETATM    3  C   UNL     1      -9.607  14.959  65.999  1.00  0.00    -0.346 C  
ENDROOT
BRANCH   2   4
HETATM    4  O   UNL     1     -11.517  13.691  66.679  1.00  0.00    -0.319 OA 
BRANCH   4   5
HETATM    5  C   UNL     1     -12.173  13.174  65.603  1.00  0.00    -0.466 C  
HETATM    6  O   UNL     1     -13.161  13.663  65.073  1.00  0.00    -0.729 OA 
BRANCH   5   7
HETATM    7  C   UNL     1     -11.534  11.877  65.183  1.00  0.00    -0.304 C  
BRANCH   7   8
HETATM    8  C   UNL     1     -10.684  11.302  66.314  1.00  0.00    -0.312 C  
BRANCH   8   9
HETATM    9  C   UNL     1      -9.910  10.078  65.831  1.00  0.00    -0.330 C  
BRANCH   9  10
HETATM   10  C   UNL     1      -9.269   9.334  66.966  1.00  0.00    -0.169 C  
HETATM   11  C   UNL     1      -9.626   8.120  67.414  1.00  0.00    -0.204 C  
BRANCH  11  12
HETATM   12  C   UNL     1     -10.740   7.263  66.872  1.00  0.00    -0.346 C  
BRANCH  12  13
HETATM   13  C   UNL     1     -10.675   5.846  67.454  1.00  0.00    -0.370 C  
HETATM   14  C   UNL     1      -9.952   4.825  66.565  1.00  0.00    -0.239 C  
HETATM   15  C   UNL     1      -9.640   3.694  67.533  1.00  0.00    -0.194 C  
HETATM   16  O   UNL     1      -8.720   5.340  66.064  1.00  0.00    -0.128 OA 
HETATM   17  C   UNL     1      -9.155   4.428  68.782  1.00  0.00    -0.124 C  
HETATM   18  H   UNL     1      -8.272   4.707  65.514  1.00  0.00     0.000 HD 
HETATM   19  C   UNL     1      -9.913   5.781  68.804  1.00  0.00    -0.207 C  
HETATM   20  O   UNL     1      -7.748   4.663  68.687  1.00  0.00    -0.071 OA 
HETATM   21  H   UNL     1      -7.447   5.119  69.464  1.00  0.00     0.000 HD 
BRANCH  19  22
HETATM   22  C   UNL     1     -10.800   5.920  70.026  1.00  0.00    -0.421 C  
HETATM   23  C   UNL     1     -10.362   5.953  71.298  1.00  0.00    -0.276 C  
BRANCH  23  24
HETATM   24  C   UNL     1     -11.231   6.215  72.505  1.00  0.00    -0.287 C  
HETATM   25  F   UNL     1     -10.918   5.340  73.499  1.00  0.00    -0.272 F  
HETATM   26  F   UNL     1     -12.533   5.985  72.182  1.00  0.00    -0.378 F  
BRANCH  24  27
HETATM   27  C   UNL     1     -11.077   7.655  73.023  1.00  0.00    -0.381 C  
BRANCH  27  28
HETATM   28  O   UNL     1     -12.229   8.443  72.691  1.00  0.00    -0.380 OA 
BRANCH  28  29
HETATM   29  C   UNL     1     -12.013   9.444  71.783  1.00  0.00    -0.382 A  
HETATM   30  C   UNL     1     -12.923  10.503  71.829  1.00  0.00    -0.582 A  
HETATM   31  C   UNL     1     -12.798  11.581  70.950  1.00  0.00    -0.293 A  
HETATM   32  C   UNL     1     -11.752  11.612  70.031  1.00  0.00    -0.402 A  
HETATM   33  C   UNL     1     -10.828  10.569  69.995  1.00  0.00    -0.320 A  
HETATM   34  C   UNL     1     -10.956   9.486  70.870  1.00  0.00    -0.407 A  
ENDBRANCH  28  29
ENDBRANCH  27  28
ENDBRANCH  24  27
ENDBRANCH  23  24
ENDBRANCH  19  22
ENDBRANCH  12  13
ENDBRANCH  11  12
ENDBRANCH   9  10
ENDBRANCH   8   9
ENDBRANCH   7   8
ENDBRANCH   5   7
ENDBRANCH   4   5
ENDBRANCH   2   4
TORSDOF 13
ENDMDL
MODEL       49
REMARK 921   NORMALIZED FREE ENERGY PREDICTED BY IDOCK:   -5.71 KCAL/MOL
REMARK 922        TOTAL FREE ENERGY PREDICTED BY IDOCK:  -12.89 KCAL/MOL
REMARK 923 INTER-LIGAND FREE ENERGY PREDICTED BY IDOCK:  -10.41 KCAL/MOL
REMARK 924 INTRA-LIGAND FREE ENERGY PREDICTED BY IDOCK:   -2.49 KCAL/MOL
REMARK 927      BINDING AFFINITY PREDICTED BY RF-SCORE:    0.00 PKD
ROOT
HETATM    1  C   UNL     1     -12.003  15.504  64.567  1.00  0.00    -0.172 C  
HETATM    2  C   UNL     1     -10.978  16.063  65.548  1.00  0.00    -0.209 C  
HETATM    3  C   UNL     1      -9.722  15.201  65.568  1.00  0.00    -0.303 C  
ENDROOT
BRANCH   2   4
HETATM    4  O   UNL     1     -10.591  17.385  65.133  1.00  0.00    -0.681 OA 
BRANCH   4   5
HETATM    5  C   UNL     1     -10.324  18.261  66.142  1.00  0.00    -0.398 C  
HETATM    6  O   UNL     1     -11.158  18.920  66.747  1.00  0.00    -0.170 OA 
BRANCH   5   7
HETATM    7  C   UNL     1      -8.839  18.343  66.377  1.00  0.00    -0.262 C  
BRANCH   7   8
HETATM    8  C   UNL     1      -8.524  19.305  67.520  1.00  0.00    -0.324 C  
BRANCH   8   9
HETATM    9  C   UNL     1      -7.837  18.567  68.666  1.00  0.00    -0.338 C  
BRANCH   9  10
HETATM   10  C   UNL     1      -7.880  17.078  68.483  1.00  0.00    -0.251 C  
HETATM   11  C   UNL     1      -8.837  16.256  68.941  1.00  0.00    -0.253 C  
BRANCH  11  12
HETATM   12  C   UNL     1     -10.056  16.659  69.730  1.00  0.00     0.042 C  
BRANCH  12  13
HETATM   13  C   UNL     1     -10.792  15.428  70.271  1.00  0.00    -0.332 C  
HETATM   14  C   UNL     1     -11.256  15.554  71.728  1.00  0.00    -0.297 C  
HETATM   15  C   UNL     1     -12.301  14.455  71.847  1.00  0.00    -0.362 C  
HETATM   16  O   UNL     1     -11.892  16.807  71.973  1.00  0.00    -0.608 OA 
HETATM   17  C   UNL     1     -13.094  14.586  70.548  1.00  0.00    -0.174 C  
HETATM   18  H   UNL     1     -12.180  16.884  72.876  1.00  0.00     0.000 HD 
HETATM   19  C   UNL     1     -12.090  15.106  69.485  1.00  0.00    -0.316 C  
HETATM   20  O   UNL     1     -14.149  15.535  70.721  1.00  0.00    -0.871 OA 
HETATM   21  H   UNL     1     -14.642  15.616  69.913  1.00  0.00     0.000 HD 
BRANCH  19  22
HETATM   22  C   UNL     1     -11.900  14.120  68.349  1.00  0.00    -0.388 C  
HETATM   23  C   UNL     1     -11.188  12.981  68.427  1.00  0.00    -0.304 C  
BRANCH  23  24
HETATM   24  C   UNL     1     -11.101  11.940  67.337  1.00  0.00    -0.279 C  
HETATM   25  F   UNL     1      -9.958  12.117  66.617  1.00  0.00    -0.200 F  
HETATM   26  F   UNL     1     -12.135  12.109  66.468  1.00  0.00    -0.406 F  
BRANCH  24  27
HETATM   27  C   UNL     1     -11.133  10.510  67.902  1.00  0.00    -0.304 C  
BRANCH  27  28
HETATM   28  O   UNL     1     -10.073  10.312  68.848  1.00  0.00    -0.184 OA 
BRANCH  28  29
HETATM   29  C   UNL     1     -10.438   9.703  70.018  1.00  0.00    -0.261 A  
HETATM   30  C   UNL     1     -11.758   9.917  70.422  1.00  0.00    -0.333 A  
HETATM   31  C   UNL     1     -12.240   9.341  71.599  1.00  0.00    -0.445 A  
HETATM   32  C   UNL     1     -11.407   8.535  72.371  1.00  0.00    -0.412 A  
HETATM   33  C   UNL     1     -10.095   8.299  71.963  1.00  0.00    -0.331 A  
HETATM   34  C   UNL     1      -9.610   8.880  70.788  1.00  0.00    -0.283 A  
ENDBRANCH  28  29
ENDBRANCH  27  28
ENDBRANCH  24  27
ENDBRANCH  23  24
ENDBRANCH  19  22
ENDBRANCH  12  13
ENDBRANCH  11  12
ENDBRANCH   9  10
ENDBRANCH   8   9
ENDBRANCH   7   8
ENDBRANCH   5   7
ENDBRANCH   4   5
ENDBRANCH   2   4
TORSDOF 13
ENDMDL
MODEL       50
REMARK 921   NORMALIZED FREE ENERGY PREDICTED BY IDOCK:   -5.70 KCAL/MOL
REMARK 922        TOTAL FREE ENERGY PREDICTED BY IDOCK:  -12.87 KCAL/MOL
REMARK 923 INTER-LIGAND FREE ENERGY PREDICTED BY IDOCK:  -10.74 KCAL/MOL
REMARK 924 INTRA-LIGAND FREE ENERGY PREDICTED BY IDOCK:   -2.13 KCAL/MOL
REMARK 927      BINDING AFFINITY PREDICTED BY RF-SCORE:    0.00 PKD
ROOT
HETATM    1  C   UNL     1      -6.597  16.225  67.188  1.00  0.00    -0.230 C  
HETATM    2  C   UNL     1      -7.569  17.279  66.669  1.00  0.00    -0.258 C  
HETATM    3  C   UNL     1      -6.874  18.220  65.692  1.00  0.00    -0.264 C  
ENDROOT
BRANCH   2   4
HETATM    4  O   UNL     1      -8.642  16.633  65.961  1.00  0.00    -0.429 OA 
BRANCH   4   5
HETATM    5  C   UNL     1      -9.884  17.146  66.186  1.00  0.00    -0.262 C  
HETATM    6  O   UNL     1     -10.759  17.279  65.342  1.00  0.00    -0.583 OA 
BRANCH   5   7
HETATM    7  C   UNL     1     -10.012  17.579  67.622  1.00  0.00    -0.309 C  
BRANCH   7   8
HETATM    8  C   UNL     1     -10.909  16.617  68.398  1.00  0.00    -0.361 C  
BRANCH   8   9
HETATM    9  C   UNL     1     -10.219  15.267  68.574  1.00  0.00    -0.224 C  
BRANCH   9  10
HETATM   10  C   UNL     1     -11.199  14.168  68.862  1.00  0.00    -0.294 C  
HETATM   11  C   UNL     1     -12.064  13.634  67.984  1.00  0.00    -0.309 C  
BRANCH  11  12
HETATM   12  C   UNL     1     -12.226  14.031  66.540  1.00  0.00    -0.485 C  
BRANCH  12  13
HETATM   13  C   UNL     1     -12.234  12.797  65.630  1.00  0.00    -0.503 C  
HETATM   14  C   UNL     1     -12.753  13.058  64.210  1.00  0.00    -0.162 C  
HETATM   15  C   UNL     1     -12.239  11.854  63.434  1.00  0.00    -0.561 C  
HETATM   16  O   UNL     1     -12.179  14.235  63.645  1.00  0.00    -0.970 OA 
HETATM   17  C   UNL     1     -10.807  11.697  63.944  1.00  0.00    -0.405 C  
HETATM   18  H   UNL     1     -12.500  14.395  62.765  1.00  0.00     0.000 HD 
HETATM   19  C   UNL     1     -10.819  12.197  65.413  1.00  0.00    -0.335 C  
HETATM   20  O   UNL     1      -9.927  12.509  63.165  1.00  0.00    -0.493 OA 
HETATM   21  H   UNL     1      -9.036  12.411  63.481  1.00  0.00     0.000 HD 
BRANCH  19  22
HETATM   22  C   UNL     1     -10.453  11.100  66.393  1.00  0.00    -0.311 C  
HETATM   23  C   UNL     1      -9.452  11.170  67.291  1.00  0.00    -0.178 C  
BRANCH  23  24
HETATM   24  C   UNL     1      -9.166  10.132  68.349  1.00  0.00    -0.133 C  
HETATM   25  F   UNL     1      -7.851  10.179  68.700  1.00  0.00    -0.086 F  
HETATM   26  F   UNL     1      -9.386   8.892  67.835  1.00  0.00    -0.139 F  
BRANCH  24  27
HETATM   27  C   UNL     1     -10.036  10.331  69.601  1.00  0.00    -0.224 C  
BRANCH  27  28
HETATM   28  O   UNL     1     -11.187   9.474  69.564  1.00  0.00    -0.189 OA 
BRANCH  28  29
HETATM   29  C   UNL     1     -11.167   8.427  70.444  1.00  0.00    -0.213 A  
HETATM   30  C   UNL     1     -11.132   8.779  71.795  1.00  0.00    -0.417 A  
HETATM   31  C   UNL     1     -11.112   7.791  72.783  1.00  0.00    -0.457 A  
HETATM   32  C   UNL     1     -11.142   6.446  72.423  1.00  0.00    -0.303 A  
HETATM   33  C   UNL     1     -11.198   6.089  71.076  1.00  0.00    -0.332 A  
HETATM   34  C   UNL     1     -11.212   7.076  70.087  1.00  0.00    -0.325 A  
ENDBRANCH  28  29
ENDBRANCH  27  28
ENDBRANCH  24  27
ENDBRANCH  23  24
ENDBRANCH  19  22
ENDBRANCH  12  13
ENDBRANCH  11  12
ENDBRANCH   9  10
ENDBRANCH   8   9
ENDBRANCH   7   8
ENDBRANCH   5   7
ENDBRANCH   4   5
ENDBRANCH   2   4
TORSDOF 13
ENDMDL
MODEL       51
REMARK 921   NORMALIZED FREE ENERGY PREDICTED BY IDOCK:   -5.68 KCAL/MOL
REMARK 922        TOTAL FREE ENERGY PREDICTED BY IDOCK:  -12.83 KCAL/MOL
REMARK 923 INTER-LIGAND FREE ENERGY PREDICTED BY IDOCK:  -10.55 KCAL/MOL
REMARK 924 INTRA-LIGAND FREE ENERGY PREDICTED BY IDOCK:   -2.28 KCAL/MOL
REMARK 927      BINDING AFFINITY PREDICTED BY RF-SCORE:    0.00 PKD
ROOT
HETATM    1  C   UNL     1     -11.359  10.418  70.347  1.00  0.00    -0.417 C  
HETATM    2  C   UNL     1     -11.932   9.480  71.404  1.00  0.00    -0.386 C  
HETATM    3  C   UNL     1     -13.258  10.010  71.935  1.00  0.00    -0.557 C  
ENDROOT
BRANCH   2   4
HETATM    4  O   UNL     1     -12.183   8.192  70.813  1.00  0.00    -0.168 OA 
BRANCH   4   5
HETATM    5  C   UNL     1     -11.178   7.282  70.943  1.00  0.00    -0.272 C  
HETATM    6  O   UNL     1     -10.319   7.294  71.814  1.00  0.00    -0.196 OA 
BRANCH   5   7
HETATM    7  C   UNL     1     -11.244   6.277  69.824  1.00  0.00    -0.499 C  
BRANCH   7   8
HETATM    8  C   UNL     1      -9.850   5.999  69.265  1.00  0.00    -0.191 C  
BRANCH   8   9
HETATM    9  C   UNL     1      -9.896   5.891  67.743  1.00  0.00    -0.138 C  
BRANCH   9  10
HETATM   10  C   UNL     1     -10.833   6.895  67.136  1.00  0.00    -0.447 C  
HETATM   11  C   UNL     1     -10.595   8.208  66.993  1.00  0.00    -0.346 C  
BRANCH  11  12
HETATM   12  C   UNL     1      -9.346   8.938  67.413  1.00  0.00    -0.165 C  
BRANCH  12  13
HETATM   13  C   UNL     1      -8.952   9.994  66.374  1.00  0.00    -0.164 C  
HETATM   14  C   UNL     1      -7.779   9.592  65.470  1.00  0.00    -0.105 C  
HETATM   15  C   UNL     1      -7.902  10.560  64.303  1.00  0.00     0.023 C  
HETATM   16  O   UNL     1      -7.928   8.265  64.971  1.00  0.00    -0.124 OA 
HETATM   17  C   UNL     1      -9.403  10.572  64.018  1.00  0.00    -0.267 C  
HETATM   18  H   UNL     1      -7.201   8.016  64.411  1.00  0.00     0.000 HD 
HETATM   19  C   UNL     1     -10.099  10.324  65.381  1.00  0.00    -0.354 C  
HETATM   20  O   UNL     1      -9.729   9.518  63.109  1.00  0.00    -0.440 OA 
HETATM   21  H   UNL     1     -10.662   9.526  62.931  1.00  0.00     0.000 HD 
BRANCH  19  22
HETATM   22  C   UNL     1     -10.967  11.494  65.802  1.00  0.00    -0.305 C  
HETATM   23  C   UNL     1     -10.668  12.362  66.787  1.00  0.00    -0.263 C  
BRANCH  23  24
HETATM   24  C   UNL     1     -11.468  13.597  67.122  1.00  0.00    -0.342 C  
HETATM   25  F   UNL     1     -12.495  13.737  66.238  1.00  0.00    -0.440 F  
HETATM   26  F   UNL     1     -10.681  14.697  66.978  1.00  0.00    -0.273 F  
BRANCH  24  27
HETATM   27  C   UNL     1     -12.029  13.549  68.553  1.00  0.00    -0.344 C  
BRANCH  27  28
HETATM   28  O   UNL     1     -11.709  14.752  69.267  1.00  0.00    -0.284 OA 
BRANCH  28  29
HETATM   29  C   UNL     1     -12.167  14.809  70.555  1.00  0.00    -0.322 A  
HETATM   30  C   UNL     1     -11.827  15.964  71.263  1.00  0.00    -0.502 A  
HETATM   31  C   UNL     1     -12.243  16.131  72.586  1.00  0.00    -0.625 A  
HETATM   32  C   UNL     1     -13.016  15.148  73.202  1.00  0.00    -0.627 A  
HETATM   33  C   UNL     1     -13.377  14.003  72.493  1.00  0.00    -0.639 A  
HETATM   34  C   UNL     1     -12.955  13.833  71.171  1.00  0.00    -0.370 A  
ENDBRANCH  28  29
ENDBRANCH  27  28
ENDBRANCH  24  27
ENDBRANCH  23  24
ENDBRANCH  19  22
ENDBRANCH  12  13
ENDBRANCH  11  12
ENDBRANCH   9  10
ENDBRANCH   8   9
ENDBRANCH   7   8
ENDBRANCH   5   7
ENDBRANCH   4   5
ENDBRANCH   2   4
TORSDOF 13
ENDMDL
MODEL       52
REMARK 921   NORMALIZED FREE ENERGY PREDICTED BY IDOCK:   -5.66 KCAL/MOL
REMARK 922        TOTAL FREE ENERGY PREDICTED BY IDOCK:  -12.80 KCAL/MOL
REMARK 923 INTER-LIGAND FREE ENERGY PREDICTED BY IDOCK:  -10.57 KCAL/MOL
REMARK 924 INTRA-LIGAND FREE ENERGY PREDICTED BY IDOCK:   -2.23 KCAL/MOL
REMARK 927      BINDING AFFINITY PREDICTED BY RF-SCORE:    0.00 PKD
ROOT
HETATM    1  C   UNL     1     -10.048   4.870  69.513  1.00  0.00    -0.286 C  
HETATM    2  C   UNL     1     -10.515   5.648  70.739  1.00  0.00    -0.265 C  
HETATM    3  C   UNL     1      -9.929   5.053  72.013  1.00  0.00    -0.239 C  
ENDROOT
BRANCH   2   4
HETATM    4  O   UNL     1     -10.057   7.009  70.644  1.00  0.00    -0.191 OA 
BRANCH   4   5
HETATM    5  C   UNL     1     -10.590   7.871  71.555  1.00  0.00    -0.222 C  
HETATM    6  O   UNL     1      -9.952   8.544  72.352  1.00  0.00    -0.302 OA 
BRANCH   5   7
HETATM    7  C   UNL     1     -12.094   7.840  71.476  1.00  0.00    -0.336 C  
BRANCH   7   8
HETATM    8  C   UNL     1     -12.700   8.982  72.288  1.00  0.00    -0.457 C  
BRANCH   8   9
HETATM    9  C   UNL     1     -13.356  10.006  71.365  1.00  0.00    -0.432 C  
BRANCH   9  10
HETATM   10  C   UNL     1     -12.447  11.163  71.071  1.00  0.00    -0.506 C  
HETATM   11  C   UNL     1     -11.616  11.265  70.022  1.00  0.00    -0.404 C  
BRANCH  11  12
HETATM   12  C   UNL     1     -11.429  10.243  68.931  1.00  0.00    -0.190 C  
BRANCH  12  13
HETATM   13  C   UNL     1     -10.273  10.636  68.004  1.00  0.00    -0.202 C  
HETATM   14  C   UNL     1      -9.010   9.780  68.164  1.00  0.00    -0.119 C  
HETATM   15  C   UNL     1      -8.244  10.062  66.880  1.00  0.00    -0.121 C  
HETATM   16  O   UNL     1      -9.316   8.388  68.207  1.00  0.00    -0.135 OA 
HETATM   17  C   UNL     1      -9.332  10.017  65.809  1.00  0.00    -0.189 C  
HETATM   18  H   UNL     1      -8.533   7.858  68.306  1.00  0.00     0.000 HD 
HETATM   19  C   UNL     1     -10.633  10.504  66.500  1.00  0.00    -0.240 C  
HETATM   20  O   UNL     1      -9.501   8.675  65.350  1.00  0.00    -0.446 OA 
HETATM   21  H   UNL     1     -10.178   8.647  64.683  1.00  0.00     0.000 HD 
BRANCH  19  22
HETATM   22  C   UNL     1     -11.170  11.777  65.876  1.00  0.00    -0.345 C  
HETATM   23  C   UNL     1     -10.619  12.997  66.016  1.00  0.00    -0.292 C  
BRANCH  23  24
HETATM   24  C   UNL     1     -11.080  14.241  65.295  1.00  0.00    -0.335 C  
HETATM   25  F   UNL     1     -12.260  14.670  65.822  1.00  0.00    -0.350 F  
HETATM   26  F   UNL     1     -11.324  13.942  63.991  1.00  0.00    -0.360 F  
BRANCH  24  27
HETATM   27  C   UNL     1     -10.042  15.372  65.378  1.00  0.00    -0.359 C  
BRANCH  27  28
HETATM   28  O   UNL     1     -10.665  16.651  65.191  1.00  0.00    -0.621 OA 
BRANCH  28  29
HETATM   29  C   UNL     1     -10.477  17.549  66.208  1.00  0.00    -0.283 A  
HETATM   30  C   UNL     1     -10.511  18.894  65.835  1.00  0.00    -0.450 A  
HETATM   31  C   UNL     1     -10.334  19.898  66.790  1.00  0.00    -0.599 A  
HETATM   32  C   UNL     1     -10.137  19.559  68.127  1.00  0.00    -0.537 A  
HETATM   33  C   UNL     1     -10.123  18.218  68.509  1.00  0.00    -0.419 A  
HETATM   34  C   UNL     1     -10.294  17.213  67.552  1.00  0.00    -0.341 A  
ENDBRANCH  28  29
ENDBRANCH  27  28
ENDBRANCH  24  27
ENDBRANCH  23  24
ENDBRANCH  19  22
ENDBRANCH  12  13
ENDBRANCH  11  12
ENDBRANCH   9  10
ENDBRANCH   8   9
ENDBRANCH   7   8
ENDBRANCH   5   7
ENDBRANCH   4   5
ENDBRANCH   2   4
TORSDOF 13
ENDMDL
MODEL       53
REMARK 921   NORMALIZED FREE ENERGY PREDICTED BY IDOCK:   -5.65 KCAL/MOL
REMARK 922        TOTAL FREE ENERGY PREDICTED BY IDOCK:  -12.78 KCAL/MOL
REMARK 923 INTER-LIGAND FREE ENERGY PREDICTED BY IDOCK:  -10.69 KCAL/MOL
REMARK 924 INTRA-LIGAND FREE ENERGY PREDICTED BY IDOCK:   -2.09 KCAL/MOL
REMARK 927      BINDING AFFINITY PREDICTED BY RF-SCORE:    0.00 PKD
ROOT
HETATM    1  C   UNL     1     -11.932  12.278  63.671  1.00  0.00    -0.633 C  
HETATM    2  C   UNL     1     -11.580  12.845  65.042  1.00  0.00    -0.332 C  
HETATM    3  C   UNL     1     -12.723  13.692  65.587  1.00  0.00    -0.505 C  
ENDROOT
BRANCH   2   4
HETATM    4  O   UNL     1     -11.361  11.764  65.965  1.00  0.00    -0.330 OA 
BRANCH   4   5
HETATM    5  C   UNL     1     -10.081  11.302  66.034  1.00  0.00    -0.239 C  
HETATM    6  O   UNL     1      -9.085  11.995  66.188  1.00  0.00    -0.203 OA 
BRANCH   5   7
HETATM    7  C   UNL     1     -10.059   9.809  65.840  1.00  0.00    -0.314 C  
BRANCH   7   8
HETATM    8  C   UNL     1      -9.477   9.113  67.069  1.00  0.00    -0.201 C  
BRANCH   8   9
HETATM    9  C   UNL     1     -10.596   8.589  67.966  1.00  0.00    -0.197 C  
BRANCH   9  10
HETATM   10  C   UNL     1     -10.860   7.129  67.740  1.00  0.00    -0.248 C  
HETATM   11  C   UNL     1     -10.498   6.128  68.558  1.00  0.00    -0.284 C  
BRANCH  11  12
HETATM   12  C   UNL     1      -9.756   6.266  69.862  1.00  0.00    -0.191 C  
BRANCH  12  13
HETATM   13  C   UNL     1     -10.710   6.130  71.053  1.00  0.00    -0.317 C  
HETATM   14  C   UNL     1     -10.364   4.988  72.018  1.00  0.00    -0.213 C  
HETATM   15  C   UNL     1     -11.141   5.357  73.273  1.00  0.00    -0.352 C  
HETATM   16  O   UNL     1      -8.975   4.971  72.339  1.00  0.00    -0.129 OA 
HETATM   17  C   UNL     1     -10.900   6.861  73.402  1.00  0.00    -0.273 C  
HETATM   18  H   UNL     1      -8.761   4.263  72.937  1.00  0.00     0.000 HD 
HETATM   19  C   UNL     1     -10.738   7.393  71.954  1.00  0.00    -0.247 C  
HETATM   20  O   UNL     1      -9.699   7.094  74.141  1.00  0.00    -0.318 OA 
HETATM   21  H   UNL     1      -9.550   8.029  74.221  1.00  0.00     0.000 HD 
BRANCH  19  22
HETATM   22  C   UNL     1     -11.817   8.394  71.589  1.00  0.00    -0.357 C  
HETATM   23  C   UNL     1     -11.620   9.715  71.422  1.00  0.00    -0.472 C  
BRANCH  23  24
HETATM   24  C   UNL     1     -12.665  10.690  70.937  1.00  0.00    -0.404 C  
HETATM   25  F   UNL     1     -13.719  10.011  70.405  1.00  0.00    -0.283 F  
HETATM   26  F   UNL     1     -12.145  11.446  69.932  1.00  0.00    -0.324 F  
BRANCH  24  27
HETATM   27  C   UNL     1     -13.165  11.607  72.065  1.00  0.00    -0.338 C  
BRANCH  27  28
HETATM   28  O   UNL     1     -13.780  12.787  71.529  1.00  0.00    -0.012 OA 
BRANCH  28  29
HETATM   29  C   UNL     1     -13.186  13.969  71.879  1.00  0.00    -0.395 A  
HETATM   30  C   UNL     1     -12.205  14.432  70.999  1.00  0.00    -0.422 A  
HETATM   31  C   UNL     1     -11.534  15.630  71.255  1.00  0.00    -0.469 A  
HETATM   32  C   UNL     1     -11.853  16.379  72.385  1.00  0.00    -0.548 A  
HETATM   33  C   UNL     1     -12.846  15.933  73.256  1.00  0.00    -0.664 A  
HETATM   34  C   UNL     1     -13.514  14.731  73.004  1.00  0.00    -0.473 A  
ENDBRANCH  28  29
ENDBRANCH  27  28
ENDBRANCH  24  27
ENDBRANCH  23  24
ENDBRANCH  19  22
ENDBRANCH  12  13
ENDBRANCH  11  12
ENDBRANCH   9  10
ENDBRANCH   8   9
ENDBRANCH   7   8
ENDBRANCH   5   7
ENDBRANCH   4   5
ENDBRANCH   2   4
TORSDOF 13
ENDMDL
MODEL       54
REMARK 921   NORMALIZED FREE ENERGY PREDICTED BY IDOCK:   -5.64 KCAL/MOL
REMARK 922        TOTAL FREE ENERGY PREDICTED BY IDOCK:  -12.77 KCAL/MOL
REMARK 923 INTER-LIGAND FREE ENERGY PREDICTED BY IDOCK:   -9.79 KCAL/MOL
REMARK 924 INTRA-LIGAND FREE ENERGY PREDICTED BY IDOCK:   -2.98 KCAL/MOL
REMARK 927      BINDING AFFINITY PREDICTED BY RF-SCORE:    0.00 PKD
ROOT
HETATM    1  C   UNL     1     -14.213  15.269  71.462  1.00  0.00    -0.629 C  
HETATM    2  C   UNL     1     -12.800  15.466  72.000  1.00  0.00    -0.388 C  
HETATM    3  C   UNL     1     -12.707  15.015  73.453  1.00  0.00    -0.654 C  
ENDROOT
BRANCH   2   4
HETATM    4  O   UNL     1     -11.882  14.663  71.237  1.00  0.00    -0.333 OA 
BRANCH   4   5
HETATM    5  C   UNL     1     -11.298  15.290  70.177  1.00  0.00    -0.289 C  
HETATM    6  O   UNL     1     -11.004  16.476  70.129  1.00  0.00    -0.347 OA 
BRANCH   5   7
HETATM    7  C   UNL     1     -11.108  14.318  69.043  1.00  0.00    -0.284 C  
BRANCH   7   8
HETATM    8  C   UNL     1     -11.854  14.790  67.796  1.00  0.00    -0.322 C  
BRANCH   8   9
HETATM    9  C   UNL     1     -11.125  14.337  66.534  1.00  0.00    -0.323 C  
BRANCH   9  10
HETATM   10  C   UNL     1     -11.939  13.364  65.732  1.00  0.00    -0.447 C  
HETATM   11  C   UNL     1     -11.527  12.163  65.296  1.00  0.00    -0.388 C  
BRANCH  11  12
HETATM   12  C   UNL     1     -10.169  11.552  65.521  1.00  0.00    -0.303 C  
BRANCH  12  13
HETATM   13  C   UNL     1     -10.036  11.021  66.953  1.00  0.00    -0.248 C  
HETATM   14  C   UNL     1     -10.570   9.597  67.155  1.00  0.00    -0.228 C  
HETATM   15  C   UNL     1      -9.924   9.175  68.466  1.00  0.00    -0.192 C  
HETATM   16  O   UNL     1     -10.122   8.714  66.129  1.00  0.00    -0.437 OA 
HETATM   17  C   UNL     1      -8.487   9.676  68.323  1.00  0.00    -0.118 C  
HETATM   18  H   UNL     1     -10.452   7.832  66.255  1.00  0.00     0.000 HD 
HETATM   19  C   UNL     1      -8.564  10.947  67.437  1.00  0.00    -0.127 C  
HETATM   20  O   UNL     1      -7.693   8.681  67.673  1.00  0.00    -0.100 OA 
HETATM   21  H   UNL     1      -6.800   8.992  67.584  1.00  0.00     0.000 HD 
BRANCH  19  22
HETATM   22  C   UNL     1      -8.089  12.185  68.172  1.00  0.00    -0.161 C  
HETATM   23  C   UNL     1      -7.715  13.336  67.583  1.00  0.00    -0.171 C  
BRANCH  23  24
HETATM   24  C   UNL     1      -7.362  14.608  68.317  1.00  0.00    -0.117 C  
HETATM   25  F   UNL     1      -6.017  14.663  68.525  1.00  0.00    -0.078 F  
HETATM   26  F   UNL     1      -7.944  14.595  69.546  1.00  0.00    -0.144 F  
BRANCH  24  27
HETATM   27  C   UNL     1      -7.812  15.860  67.547  1.00  0.00    -0.153 C  
BRANCH  27  28
HETATM   28  O   UNL     1      -8.343  16.847  68.444  1.00  0.00    -0.218 OA 
BRANCH  28  29
HETATM   29  C   UNL     1      -9.030  17.871  67.850  1.00  0.00    -0.264 A  
HETATM   30  C   UNL     1      -9.704  17.539  66.673  1.00  0.00    -0.303 A  
HETATM   31  C   UNL     1     -10.440  18.504  65.983  1.00  0.00    -0.433 A  
HETATM   32  C   UNL     1     -10.518  19.804  66.477  1.00  0.00    -0.615 A  
HETATM   33  C   UNL     1      -9.865  20.137  67.663  1.00  0.00    -0.567 A  
HETATM   34  C   UNL     1      -9.123  19.172  68.351  1.00  0.00    -0.405 A  
ENDBRANCH  28  29
ENDBRANCH  27  28
ENDBRANCH  24  27
ENDBRANCH  23  24
ENDBRANCH  19  22
ENDBRANCH  12  13
ENDBRANCH  11  12
ENDBRANCH   9  10
ENDBRANCH   8   9
ENDBRANCH   7   8
ENDBRANCH   5   7
ENDBRANCH   4   5
ENDBRANCH   2   4
TORSDOF 13
ENDMDL
MODEL       55
REMARK 921   NORMALIZED FREE ENERGY PREDICTED BY IDOCK:   -5.63 KCAL/MOL
REMARK 922        TOTAL FREE ENERGY PREDICTED BY IDOCK:  -12.75 KCAL/MOL
REMARK 923 INTER-LIGAND FREE ENERGY PREDICTED BY IDOCK:   -9.95 KCAL/MOL
REMARK 924 INTRA-LIGAND FREE ENERGY PREDICTED BY IDOCK:   -2.80 KCAL/MOL
REMARK 927      BINDING AFFINITY PREDICTED BY RF-SCORE:    0.00 PKD
ROOT
HETATM    1  C   UNL     1     -11.442   6.285  72.447  1.00  0.00    -0.335 C  
HETATM    2  C   UNL     1     -11.513   7.798  72.618  1.00  0.00    -0.375 C  
HETATM    3  C   UNL     1     -10.151   8.435  72.370  1.00  0.00    -0.386 C  
ENDROOT
BRANCH   2   4
HETATM    4  O   UNL     1     -12.431   8.345  71.654  1.00  0.00    -0.305 OA 
BRANCH   4   5
HETATM    5  C   UNL     1     -13.360   9.208  72.153  1.00  0.00    -0.463 C  
HETATM    6  O   UNL     1     -14.355   8.888  72.788  1.00  0.00    -0.600 OA 
BRANCH   5   7
HETATM    7  C   UNL     1     -13.013  10.621  71.766  1.00  0.00    -0.577 C  
BRANCH   7   8
HETATM    8  C   UNL     1     -12.738  10.719  70.267  1.00  0.00    -0.286 C  
BRANCH   8   9
HETATM    9  C   UNL     1     -11.660  11.763  69.988  1.00  0.00    -0.318 C  
BRANCH   9  10
HETATM   10  C   UNL     1     -12.240  13.046  69.469  1.00  0.00    -0.198 C  
HETATM   11  C   UNL     1     -11.907  13.652  68.319  1.00  0.00    -0.404 C  
BRANCH  11  12
HETATM   12  C   UNL     1     -10.887  13.170  67.321  1.00  0.00    -0.270 C  
BRANCH  12  13
HETATM   13  C   UNL     1     -11.538  12.278  66.258  1.00  0.00    -0.446 C  
HETATM   14  C   UNL     1     -12.429  13.027  65.258  1.00  0.00    -0.499 C  
HETATM   15  C   UNL     1     -12.557  12.037  64.110  1.00  0.00    -0.413 C  
HETATM   16  O   UNL     1     -11.794  14.206  64.765  1.00  0.00    -0.373 OA 
HETATM   17  C   UNL     1     -11.134  11.502  63.951  1.00  0.00    -0.380 C  
HETATM   18  H   UNL     1     -12.346  14.669  64.145  1.00  0.00     0.000 HD 
HETATM   19  C   UNL     1     -10.502  11.543  65.367  1.00  0.00    -0.333 C  
HETATM   20  O   UNL     1     -10.396  12.350  63.068  1.00  0.00    -0.497 OA 
HETATM   21  H   UNL     1      -9.512  12.017  62.969  1.00  0.00     0.000 HD 
BRANCH  19  22
HETATM   22  C   UNL     1     -10.124  10.161  65.865  1.00  0.00    -0.325 C  
HETATM   23  C   UNL     1     -10.738   9.509  66.870  1.00  0.00    -0.184 C  
BRANCH  23  24
HETATM   24  C   UNL     1     -10.445   8.086  67.282  1.00  0.00    -0.314 C  
HETATM   25  F   UNL     1      -9.414   7.593  66.542  1.00  0.00    -0.197 F  
HETATM   26  F   UNL     1     -11.526   7.306  67.009  1.00  0.00    -0.295 F  
BRANCH  24  27
HETATM   27  C   UNL     1     -10.099   7.980  68.777  1.00  0.00    -0.195 C  
BRANCH  27  28
HETATM   28  O   UNL     1      -8.762   7.491  68.957  1.00  0.00    -0.135 OA 
BRANCH  28  29
HETATM   29  C   UNL     1      -8.663   6.261  69.550  1.00  0.00    -0.132 A  
HETATM   30  C   UNL     1      -7.609   6.113  70.454  1.00  0.00    -0.096 A  
HETATM   31  C   UNL     1      -7.414   4.901  71.120  1.00  0.00    -0.073 A  
HETATM   32  C   UNL     1      -8.282   3.835  70.895  1.00  0.00    -0.078 A  
HETATM   33  C   UNL     1      -9.348   3.983  70.009  1.00  0.00    -0.242 A  
HETATM   34  C   UNL     1      -9.541   5.194  69.338  1.00  0.00    -0.225 A  
ENDBRANCH  28  29
ENDBRANCH  27  28
ENDBRANCH  24  27
ENDBRANCH  23  24
ENDBRANCH  19  22
ENDBRANCH  12  13
ENDBRANCH  11  12
ENDBRANCH   9  10
ENDBRANCH   8   9
ENDBRANCH   7   8
ENDBRANCH   5   7
ENDBRANCH   4   5
ENDBRANCH   2   4
TORSDOF 13
ENDMDL
MODEL       56
REMARK 921   NORMALIZED FREE ENERGY PREDICTED BY IDOCK:   -5.61 KCAL/MOL
REMARK 922        TOTAL FREE ENERGY PREDICTED BY IDOCK:  -12.71 KCAL/MOL
REMARK 923 INTER-LIGAND FREE ENERGY PREDICTED BY IDOCK:  -10.47 KCAL/MOL
REMARK 924 INTRA-LIGAND FREE ENERGY PREDICTED BY IDOCK:   -2.24 KCAL/MOL
REMARK 927      BINDING AFFINITY PREDICTED BY RF-SCORE:    0.00 PKD
ROOT
HETATM    1  C   UNL     1     -11.425  15.268  64.726  1.00  0.00    -0.364 C  
HETATM    2  C   UNL     1     -11.359  14.029  65.613  1.00  0.00    -0.313 C  
HETATM    3  C   UNL     1     -12.269  14.182  66.825  1.00  0.00    -0.429 C  
ENDROOT
BRANCH   2   4
HETATM    4  O   UNL     1     -11.813  12.885  64.870  1.00  0.00    -0.329 OA 
BRANCH   4   5
HETATM    5  C   UNL     1     -10.853  11.970  64.557  1.00  0.00    -0.314 C  
HETATM    6  O   UNL     1     -10.877  11.218  63.593  1.00  0.00    -0.381 OA 
BRANCH   5   7
HETATM    7  C   UNL     1      -9.770  11.980  65.604  1.00  0.00    -0.241 C  
BRANCH   7   8
HETATM    8  C   UNL     1      -9.905  10.775  66.532  1.00  0.00    -0.246 C  
BRANCH   8   9
HETATM    9  C   UNL     1     -10.183  11.231  67.963  1.00  0.00    -0.201 C  
BRANCH   9  10
HETATM   10  C   UNL     1     -11.608  10.989  68.364  1.00  0.00    -0.372 C  
HETATM   11  C   UNL     1     -12.251  11.581  69.382  1.00  0.00    -0.273 C  
BRANCH  11  12
HETATM   12  C   UNL     1     -11.674  12.604  70.326  1.00  0.00    -0.194 C  
BRANCH  12  13
HETATM   13  C   UNL     1     -12.711  13.678  70.673  1.00  0.00    -0.303 C  
HETATM   14  C   UNL     1     -13.774  13.232  71.686  1.00  0.00    -0.076 C  
HETATM   15  C   UNL     1     -14.352  14.552  72.174  1.00  0.00    -0.594 C  
HETATM   16  O   UNL     1     -13.192  12.559  72.800  1.00  0.00    -0.413 OA 
HETATM   17  C   UNL     1     -13.112  15.425  72.368  1.00  0.00    -0.407 C  
HETATM   18  H   UNL     1     -13.850  12.283  73.428  1.00  0.00     0.000 HD 
HETATM   19  C   UNL     1     -12.081  14.943  71.314  1.00  0.00    -0.385 C  
HETATM   20  O   UNL     1     -12.587  15.230  73.683  1.00  0.00    -0.481 OA 
HETATM   21  H   UNL     1     -11.817  15.773  73.804  1.00  0.00     0.000 HD 
BRANCH  19  22
HETATM   22  C   UNL     1     -11.726  16.032  70.321  1.00  0.00    -0.304 C  
HETATM   23  C   UNL     1     -10.540  16.149  69.695  1.00  0.00    -0.311 C  
BRANCH  23  24
HETATM   24  C   UNL     1     -10.229  17.157  68.615  1.00  0.00    -0.336 C  
HETATM   25  F   UNL     1     -10.400  18.419  69.097  1.00  0.00    -0.377 F  
HETATM   26  F   UNL     1     -11.115  17.010  67.593  1.00  0.00    -0.316 F  
BRANCH  24  27
HETATM   27  C   UNL     1      -8.796  17.004  68.080  1.00  0.00    -0.227 C  
BRANCH  27  28
HETATM   28  O   UNL     1      -7.847  17.581  68.989  1.00  0.00    -0.226 OA 
BRANCH  28  29
HETATM   29  C   UNL     1      -7.291  18.764  68.582  1.00  0.00    -0.307 A  
HETATM   30  C   UNL     1      -7.844  19.323  67.428  1.00  0.00    -0.283 A  
HETATM   31  C   UNL     1      -7.356  20.530  66.923  1.00  0.00    -0.349 A  
HETATM   32  C   UNL     1      -6.321  21.192  67.580  1.00  0.00    -0.417 A  
HETATM   33  C   UNL     1      -5.779  20.650  68.745  1.00  0.00    -0.376 A  
HETATM   34  C   UNL     1      -6.263  19.439  69.247  1.00  0.00    -0.324 A  
ENDBRANCH  28  29
ENDBRANCH  27  28
ENDBRANCH  24  27
ENDBRANCH  23  24
ENDBRANCH  19  22
ENDBRANCH  12  13
ENDBRANCH  11  12
ENDBRANCH   9  10
ENDBRANCH   8   9
ENDBRANCH   7   8
ENDBRANCH   5   7
ENDBRANCH   4   5
ENDBRANCH   2   4
TORSDOF 13
ENDMDL
MODEL       57
REMARK 921   NORMALIZED FREE ENERGY PREDICTED BY IDOCK:   -5.59 KCAL/MOL
REMARK 922        TOTAL FREE ENERGY PREDICTED BY IDOCK:  -12.68 KCAL/MOL
REMARK 923 INTER-LIGAND FREE ENERGY PREDICTED BY IDOCK:  -10.47 KCAL/MOL
REMARK 924 INTRA-LIGAND FREE ENERGY PREDICTED BY IDOCK:   -2.21 KCAL/MOL
REMARK 927      BINDING AFFINITY PREDICTED BY RF-SCORE:    0.00 PKD
ROOT
HETATM    1  C   UNL     1      -9.114   7.031  69.197  1.00  0.00    -0.136 C  
HETATM    2  C   UNL     1     -10.519   6.449  69.093  1.00  0.00    -0.229 C  
HETATM    3  C   UNL     1     -10.749   5.835  67.717  1.00  0.00    -0.306 C  
ENDROOT
BRANCH   2   4
HETATM    4  O   UNL     1     -10.676   5.402  70.067  1.00  0.00    -0.308 OA 
BRANCH   4   5
HETATM    5  C   UNL     1     -10.764   5.816  71.362  1.00  0.00    -0.256 C  
HETATM    6  O   UNL     1     -10.017   5.474  72.268  1.00  0.00    -0.169 OA 
BRANCH   5   7
HETATM    7  C   UNL     1     -11.952   6.725  71.535  1.00  0.00    -0.396 C  
BRANCH   7   8
HETATM    8  C   UNL     1     -11.653   7.817  72.559  1.00  0.00    -0.422 C  
BRANCH   8   9
HETATM    9  C   UNL     1     -12.803   8.820  72.623  1.00  0.00    -0.294 C  
BRANCH   9  10
HETATM   10  C   UNL     1     -13.134   9.382  71.272  1.00  0.00    -0.363 C  
HETATM   11  C   UNL     1     -13.074  10.677  70.921  1.00  0.00    -0.342 C  
BRANCH  11  12
HETATM   12  C   UNL     1     -12.665  11.822  71.810  1.00  0.00    -0.299 C  
BRANCH  12  13
HETATM   13  C   UNL     1     -13.150  13.160  71.240  1.00  0.00    -0.275 C  
HETATM   14  C   UNL     1     -13.985  14.001  72.214  1.00  0.00    -0.553 C  
HETATM   15  C   UNL     1     -13.936  15.389  71.593  1.00  0.00    -0.617 C  
HETATM   16  O   UNL     1     -13.384  14.066  73.506  1.00  0.00    -0.257 OA 
HETATM   17  C   UNL     1     -12.473  15.531  71.175  1.00  0.00    -0.432 C  
HETATM   18  H   UNL     1     -13.901  14.588  74.109  1.00  0.00     0.000 HD 
HETATM   19  C   UNL     1     -11.987  14.100  70.828  1.00  0.00    -0.377 C  
HETATM   20  O   UNL     1     -11.709  16.051  72.265  1.00  0.00    -0.456 OA 
HETATM   21  H   UNL     1     -10.800  16.140  72.004  1.00  0.00     0.000 HD 
BRANCH  19  22
HETATM   22  C   UNL     1     -11.571  13.973  69.375  1.00  0.00    -0.349 C  
HETATM   23  C   UNL     1     -12.029  14.746  68.371  1.00  0.00    -0.270 C  
BRANCH  23  24
HETATM   24  C   UNL     1     -11.524  14.704  66.949  1.00  0.00    -0.363 C  
HETATM   25  F   UNL     1     -11.121  15.946  66.564  1.00  0.00    -0.292 F  
HETATM   26  F   UNL     1     -12.543  14.353  66.119  1.00  0.00    -0.441 F  
BRANCH  24  27
HETATM   27  C   UNL     1     -10.360  13.713  66.781  1.00  0.00    -0.268 C  
BRANCH  27  28
HETATM   28  O   UNL     1     -10.519  12.937  65.585  1.00  0.00    -0.268 OA 
BRANCH  28  29
HETATM   29  C   UNL     1     -10.143  11.625  65.682  1.00  0.00    -0.240 A  
HETATM   30  C   UNL     1     -10.630  10.942  66.799  1.00  0.00    -0.313 A  
HETATM   31  C   UNL     1     -10.312   9.596  66.999  1.00  0.00    -0.315 A  
HETATM   32  C   UNL     1      -9.516   8.924  66.074  1.00  0.00    -0.320 A  
HETATM   33  C   UNL     1      -9.045   9.595  64.946  1.00  0.00    -0.284 A  
HETATM   34  C   UNL     1      -9.358  10.943  64.748  1.00  0.00    -0.259 A  
ENDBRANCH  28  29
ENDBRANCH  27  28
ENDBRANCH  24  27
ENDBRANCH  23  24
ENDBRANCH  19  22
ENDBRANCH  12  13
ENDBRANCH  11  12
ENDBRANCH   9  10
ENDBRANCH   8   9
ENDBRANCH   7   8
ENDBRANCH   5   7
ENDBRANCH   4   5
ENDBRANCH   2   4
TORSDOF 13
ENDMDL
MODEL       58
REMARK 921   NORMALIZED FREE ENERGY PREDICTED BY IDOCK:   -5.58 KCAL/MOL
REMARK 922        TOTAL FREE ENERGY PREDICTED BY IDOCK:  -12.65 KCAL/MOL
REMARK 923 INTER-LIGAND FREE ENERGY PREDICTED BY IDOCK:  -10.27 KCAL/MOL
REMARK 924 INTRA-LIGAND FREE ENERGY PREDICTED BY IDOCK:   -2.38 KCAL/MOL
REMARK 927      BINDING AFFINITY PREDICTED BY RF-SCORE:    0.00 PKD
ROOT
HETATM    1  C   UNL     1     -10.552   4.944  73.406  1.00  0.00    -0.296 C  
HETATM    2  C   UNL     1     -10.709   6.439  73.150  1.00  0.00    -0.268 C  
HETATM    3  C   UNL     1      -9.629   7.228  73.880  1.00  0.00    -0.322 C  
ENDROOT
BRANCH   2   4
HETATM    4  O   UNL     1     -10.564   6.701  71.744  1.00  0.00    -0.212 OA 
BRANCH   4   5
HETATM    5  C   UNL     1     -11.713   6.640  71.015  1.00  0.00    -0.360 C  
HETATM    6  O   UNL     1     -11.779   6.436  69.811  1.00  0.00    -0.414 OA 
BRANCH   5   7
HETATM    7  C   UNL     1     -12.901   6.913  71.899  1.00  0.00    -0.290 C  
BRANCH   7   8
HETATM    8  C   UNL     1     -13.668   8.140  71.411  1.00  0.00    -0.283 C  
BRANCH   8   9
HETATM    9  C   UNL     1     -12.977   9.421  71.872  1.00  0.00    -0.502 C  
BRANCH   9  10
HETATM   10  C   UNL     1     -12.751  10.378  70.739  1.00  0.00    -0.460 C  
HETATM   11  C   UNL     1     -11.596  10.559  70.080  1.00  0.00    -0.392 C  
BRANCH  11  12
HETATM   12  C   UNL     1     -10.298   9.843  70.345  1.00  0.00    -0.322 C  
BRANCH  12  13
HETATM   13  C   UNL     1      -9.296  10.085  69.210  1.00  0.00    -0.224 C  
HETATM   14  C   UNL     1      -8.547   8.829  68.743  1.00  0.00    -0.137 C  
HETATM   15  C   UNL     1      -8.005   9.243  67.384  1.00  0.00    -0.106 C  
HETATM   16  O   UNL     1      -9.432   7.726  68.557  1.00  0.00    -0.147 OA 
HETATM   17  C   UNL     1      -9.184   9.978  66.748  1.00  0.00    -0.148 C  
HETATM   18  H   UNL     1      -8.968   6.949  68.267  1.00  0.00     0.000 HD 
HETATM   19  C   UNL     1      -9.963  10.630  67.920  1.00  0.00    -0.189 C  
HETATM   20  O   UNL     1     -10.025   9.044  66.068  1.00  0.00    -0.345 OA 
HETATM   21  H   UNL     1     -10.757   9.501  65.672  1.00  0.00     0.000 HD 
BRANCH  19  22
HETATM   22  C   UNL     1      -9.982  12.143  67.822  1.00  0.00    -0.198 C  
HETATM   23  C   UNL     1     -11.041  12.879  67.435  1.00  0.00    -0.307 C  
BRANCH  23  24
HETATM   24  C   UNL     1     -11.100  14.387  67.457  1.00  0.00    -0.302 C  
HETATM   25  F   UNL     1     -11.378  14.858  66.210  1.00  0.00    -0.335 F  
HETATM   26  F   UNL     1      -9.878  14.881  67.794  1.00  0.00    -0.212 F  
BRANCH  24  27
HETATM   27  C   UNL     1     -12.156  14.907  68.447  1.00  0.00    -0.131 C  
BRANCH  27  28
HETATM   28  O   UNL     1     -12.295  14.013  69.561  1.00  0.00    -0.332 OA 
BRANCH  28  29
HETATM   29  C   UNL     1     -12.385  14.614  70.787  1.00  0.00    -0.328 A  
HETATM   30  C   UNL     1     -13.190  13.958  71.720  1.00  0.00    -0.455 A  
HETATM   31  C   UNL     1     -13.353  14.479  73.006  1.00  0.00    -0.510 A  
HETATM   32  C   UNL     1     -12.698  15.654  73.368  1.00  0.00    -0.660 A  
HETATM   33  C   UNL     1     -11.876  16.303  72.448  1.00  0.00    -0.606 A  
HETATM   34  C   UNL     1     -11.717  15.784  71.159  1.00  0.00    -0.476 A  
ENDBRANCH  28  29
ENDBRANCH  27  28
ENDBRANCH  24  27
ENDBRANCH  23  24
ENDBRANCH  19  22
ENDBRANCH  12  13
ENDBRANCH  11  12
ENDBRANCH   9  10
ENDBRANCH   8   9
ENDBRANCH   7   8
ENDBRANCH   5   7
ENDBRANCH   4   5
ENDBRANCH   2   4
TORSDOF 13
ENDMDL
MODEL       59
REMARK 921   NORMALIZED FREE ENERGY PREDICTED BY IDOCK:   -5.55 KCAL/MOL
REMARK 922        TOTAL FREE ENERGY PREDICTED BY IDOCK:  -12.60 KCAL/MOL
REMARK 923 INTER-LIGAND FREE ENERGY PREDICTED BY IDOCK:   -9.91 KCAL/MOL
REMARK 924 INTRA-LIGAND FREE ENERGY PREDICTED BY IDOCK:   -2.69 KCAL/MOL
REMARK 927      BINDING AFFINITY PREDICTED BY RF-SCORE:    0.00 PKD
ROOT
HETATM    1  C   UNL     1      -6.789  10.942  67.649  1.00  0.00    -0.081 C  
HETATM    2  C   UNL     1      -7.402  10.216  66.456  1.00  0.00    -0.108 C  
HETATM    3  C   UNL     1      -6.318   9.591  65.588  1.00  0.00    -0.070 C  
ENDROOT
BRANCH   2   4
HETATM    4  O   UNL     1      -8.249   9.153  66.927  1.00  0.00    -0.114 OA 
BRANCH   4   5
HETATM    5  C   UNL     1      -9.519   9.154  66.433  1.00  0.00    -0.227 C  
HETATM    6  O   UNL     1      -9.835   9.451  65.289  1.00  0.00    -0.231 OA 
BRANCH   5   7
HETATM    7  C   UNL     1     -10.495   8.781  67.517  1.00  0.00    -0.340 C  
BRANCH   7   8
HETATM    8  C   UNL     1      -9.836   8.871  68.892  1.00  0.00    -0.182 C  
BRANCH   8   9
HETATM    9  C   UNL     1     -10.473   9.985  69.718  1.00  0.00    -0.291 C  
BRANCH   9  10
HETATM   10  C   UNL     1     -11.480  10.767  68.927  1.00  0.00    -0.362 C  
HETATM   11  C   UNL     1     -12.270  11.743  69.403  1.00  0.00    -0.219 C  
BRANCH  11  12
HETATM   12  C   UNL     1     -12.305  12.248  70.822  1.00  0.00    -0.383 C  
BRANCH  12  13
HETATM   13  C   UNL     1     -12.906  13.656  70.888  1.00  0.00    -0.321 C  
HETATM   14  C   UNL     1     -13.916  13.864  72.024  1.00  0.00    -0.495 C  
HETATM   15  C   UNL     1     -13.991  15.379  72.139  1.00  0.00    -0.649 C  
HETATM   16  O   UNL     1     -13.435  13.343  73.261  1.00  0.00    -0.350 OA 
HETATM   17  C   UNL     1     -12.528  15.809  72.034  1.00  0.00    -0.457 C  
HETATM   18  H   UNL     1     -14.061  13.472  73.965  1.00  0.00     0.000 HD 
HETATM   19  C   UNL     1     -11.839  14.759  71.123  1.00  0.00    -0.387 C  
HETATM   20  O   UNL     1     -11.926  15.793  73.330  1.00  0.00    -0.444 OA 
HETATM   21  H   UNL     1     -11.017  16.060  73.264  1.00  0.00     0.000 HD 
BRANCH  19  22
HETATM   22  C   UNL     1     -11.294  15.376  69.850  1.00  0.00    -0.318 C  
HETATM   23  C   UNL     1     -10.329  16.315  69.798  1.00  0.00    -0.219 C  
BRANCH  23  24
HETATM   24  C   UNL     1      -9.700  16.838  68.530  1.00  0.00    -0.248 C  
HETATM   25  F   UNL     1      -8.706  17.717  68.836  1.00  0.00    -0.279 F  
HETATM   26  F   UNL     1     -10.628  17.535  67.820  1.00  0.00    -0.337 F  
BRANCH  24  27
HETATM   27  C   UNL     1      -9.131  15.705  67.659  1.00  0.00    -0.192 C  
BRANCH  27  28
HETATM   28  O   UNL     1      -9.635  15.791  66.318  1.00  0.00    -0.264 OA 
BRANCH  28  29
HETATM   29  C   UNL     1     -10.422  14.744  65.920  1.00  0.00    -0.312 A  
HETATM   30  C   UNL     1     -11.365  15.043  64.934  1.00  0.00    -0.419 A  
HETATM   31  C   UNL     1     -12.220  14.051  64.449  1.00  0.00    -0.457 A  
HETATM   32  C   UNL     1     -12.124  12.750  64.938  1.00  0.00    -0.490 A  
HETATM   33  C   UNL     1     -11.170  12.440  65.907  1.00  0.00    -0.373 A  
HETATM   34  C   UNL     1     -10.318  13.434  66.397  1.00  0.00    -0.288 A  
ENDBRANCH  28  29
ENDBRANCH  27  28
ENDBRANCH  24  27
ENDBRANCH  23  24
ENDBRANCH  19  22
ENDBRANCH  12  13
ENDBRANCH  11  12
ENDBRANCH   9  10
ENDBRANCH   8   9
ENDBRANCH   7   8
ENDBRANCH   5   7
ENDBRANCH   4   5
ENDBRANCH   2   4
TORSDOF 13
ENDMDL
MODEL       60
REMARK 921   NORMALIZED FREE ENERGY PREDICTED BY IDOCK:   -5.53 KCAL/MOL
REMARK 922        TOTAL FREE ENERGY PREDICTED BY IDOCK:  -12.57 KCAL/MOL
REMARK 923 INTER-LIGAND FREE ENERGY PREDICTED BY IDOCK:  -10.24 KCAL/MOL
REMARK 924 INTRA-LIGAND FREE ENERGY PREDICTED BY IDOCK:   -2.33 KCAL/MOL
REMARK 927      BINDING AFFINITY PREDICTED BY RF-SCORE:    0.00 PKD
ROOT
HETATM    1  C   UNL     1     -10.742   8.836  72.134  1.00  0.00    -0.383 C  
HETATM    2  C   UNL     1     -12.004   8.040  72.450  1.00  0.00    -0.350 C  
HETATM    3  C   UNL     1     -13.250   8.885  72.209  1.00  0.00    -0.498 C  
ENDROOT
BRANCH   2   4
HETATM    4  O   UNL     1     -12.079   6.897  71.580  1.00  0.00    -0.318 OA 
BRANCH   4   5
HETATM    5  C   UNL     1     -11.098   5.967  71.749  1.00  0.00    -0.276 C  
HETATM    6  O   UNL     1     -10.849   5.381  72.794  1.00  0.00    -0.228 OA 
BRANCH   5   7
HETATM    7  C   UNL     1     -10.322   5.797  70.470  1.00  0.00    -0.312 C  
BRANCH   7   8
HETATM    8  C   UNL     1     -11.179   6.173  69.264  1.00  0.00    -0.438 C  
BRANCH   8   9
HETATM    9  C   UNL     1     -10.608   7.405  68.566  1.00  0.00    -0.188 C  
BRANCH   9  10
HETATM   10  C   UNL     1      -9.148   7.250  68.255  1.00  0.00    -0.134 C  
HETATM   11  C   UNL     1      -8.581   7.393  67.046  1.00  0.00    -0.119 C  
BRANCH  11  12
HETATM   12  C   UNL     1      -9.293   7.736  65.764  1.00  0.00     0.068 C  
BRANCH  12  13
HETATM   13  C   UNL     1      -8.759   9.046  65.174  1.00  0.00    -0.223 C  
HETATM   14  C   UNL     1      -8.075   8.897  63.808  1.00  0.00    -0.163 C  
HETATM   15  C   UNL     1      -8.065  10.322  63.276  1.00  0.00    -0.157 C  
HETATM   16  O   UNL     1      -8.844   8.091  62.918  1.00  0.00    -0.378 OA 
HETATM   17  C   UNL     1      -9.462  10.834  63.626  1.00  0.00    -0.291 C  
HETATM   18  H   UNL     1      -8.421   7.999  62.072  1.00  0.00     0.000 HD 
HETATM   19  C   UNL     1      -9.874  10.098  64.927  1.00  0.00    -0.390 C  
HETATM   20  O   UNL     1     -10.373  10.505  62.575  1.00  0.00    -0.722 OA 
HETATM   21  H   UNL     1     -11.241  10.824  62.792  1.00  0.00     0.000 HD 
BRANCH  19  22
HETATM   22  C   UNL     1     -10.090  11.056  66.082  1.00  0.00    -0.286 C  
HETATM   23  C   UNL     1     -10.465  10.695  67.324  1.00  0.00    -0.293 C  
BRANCH  23  24
HETATM   24  C   UNL     1     -10.559  11.631  68.505  1.00  0.00    -0.215 C  
HETATM   25  F   UNL     1      -9.541  12.534  68.461  1.00  0.00    -0.206 F  
HETATM   26  F   UNL     1     -10.400  10.924  69.656  1.00  0.00    -0.246 F  
BRANCH  24  27
HETATM   27  C   UNL     1     -11.903  12.378  68.541  1.00  0.00    -0.304 C  
BRANCH  27  28
HETATM   28  O   UNL     1     -11.726  13.724  69.005  1.00  0.00    -0.284 OA 
BRANCH  28  29
HETATM   29  C   UNL     1     -12.361  14.029  70.179  1.00  0.00    -0.345 A  
HETATM   30  C   UNL     1     -12.610  12.946  71.025  1.00  0.00    -0.376 A  
HETATM   31  C   UNL     1     -13.250  13.140  72.251  1.00  0.00    -0.555 A  
HETATM   32  C   UNL     1     -13.629  14.422  72.643  1.00  0.00    -0.589 A  
HETATM   33  C   UNL     1     -13.364  15.509  71.812  1.00  0.00    -0.577 A  
HETATM   34  C   UNL     1     -12.729  15.315  70.582  1.00  0.00    -0.470 A  
ENDBRANCH  28  29
ENDBRANCH  27  28
ENDBRANCH  24  27
ENDBRANCH  23  24
ENDBRANCH  19  22
ENDBRANCH  12  13
ENDBRANCH  11  12
ENDBRANCH   9  10
ENDBRANCH   8   9
ENDBRANCH   7   8
ENDBRANCH   5   7
ENDBRANCH   4   5
ENDBRANCH   2   4
TORSDOF 13
ENDMDL
MODEL       61
REMARK 921   NORMALIZED FREE ENERGY PREDICTED BY IDOCK:   -5.50 KCAL/MOL
REMARK 922        TOTAL FREE ENERGY PREDICTED BY IDOCK:  -12.52 KCAL/MOL
REMARK 923 INTER-LIGAND FREE ENERGY PREDICTED BY IDOCK:   -9.15 KCAL/MOL
REMARK 924 INTRA-LIGAND FREE ENERGY PREDICTED BY IDOCK:   -3.37 KCAL/MOL
REMARK 927      BINDING AFFINITY PREDICTED BY RF-SCORE:    0.00 PKD
ROOT
HETATM    1  C   UNL     1     -12.594  11.859  63.358  1.00  0.00    -0.555 C  
HETATM    2  C   UNL     1     -11.386  12.159  64.239  1.00  0.00    -0.360 C  
HETATM    3  C   UNL     1     -10.098  11.705  63.563  1.00  0.00    -0.455 C  
ENDROOT
BRANCH   2   4
HETATM    4  O   UNL     1     -11.290  13.579  64.449  1.00  0.00    -0.363 OA 
BRANCH   4   5
HETATM    5  C   UNL     1     -12.016  14.067  65.493  1.00  0.00    -0.384 C  
HETATM    6  O   UNL     1     -13.201  14.366  65.454  1.00  0.00    -0.607 OA 
BRANCH   5   7
HETATM    7  C   UNL     1     -11.133  14.238  66.701  1.00  0.00    -0.321 C  
BRANCH   7   8
HETATM    8  C   UNL     1     -11.642  13.393  67.866  1.00  0.00    -0.374 C  
BRANCH   8   9
HETATM    9  C   UNL     1     -10.661  12.265  68.177  1.00  0.00    -0.232 C  
BRANCH   9  10
HETATM   10  C   UNL     1     -11.261  10.913  67.927  1.00  0.00    -0.387 C  
HETATM   11  C   UNL     1     -10.991   9.792  68.615  1.00  0.00    -0.189 C  
BRANCH  11  12
HETATM   12  C   UNL     1     -10.035   9.666  69.772  1.00  0.00    -0.252 C  
BRANCH  12  13
HETATM   13  C   UNL     1     -10.296   8.379  70.563  1.00  0.00    -0.220 C  
HETATM   14  C   UNL     1     -10.889   8.600  71.961  1.00  0.00    -0.360 C  
HETATM   15  C   UNL     1     -11.452   7.231  72.312  1.00  0.00    -0.316 C  
HETATM   16  O   UNL     1     -11.965   9.535  71.936  1.00  0.00    -0.370 OA 
HETATM   17  C   UNL     1     -12.130   6.791  71.015  1.00  0.00    -0.372 C  
HETATM   18  H   UNL     1     -12.332   9.672  72.803  1.00  0.00     0.000 HD 
HETATM   19  C   UNL     1     -11.313   7.436  69.865  1.00  0.00    -0.098 C  
HETATM   20  O   UNL     1     -13.473   7.277  70.985  1.00  0.00    -0.587 OA 
HETATM   21  H   UNL     1     -13.895   7.003  70.179  1.00  0.00     0.000 HD 
BRANCH  19  22
HETATM   22  C   UNL     1     -10.677   6.397  68.962  1.00  0.00    -0.339 C  
HETATM   23  C   UNL     1     -10.939   6.250  67.650  1.00  0.00    -0.438 C  
BRANCH  23  24
HETATM   24  C   UNL     1     -10.217   5.300  66.725  1.00  0.00    -0.249 C  
HETATM   25  F   UNL     1     -11.103   4.730  65.863  1.00  0.00    -0.330 F  
HETATM   26  F   UNL     1      -9.677   4.285  67.453  1.00  0.00    -0.181 F  
BRANCH  24  27
HETATM   27  C   UNL     1      -9.109   6.006  65.926  1.00  0.00    -0.102 C  
BRANCH  27  28
HETATM   28  O   UNL     1      -8.042   6.422  66.791  1.00  0.00    -0.107 OA 
BRANCH  28  29
HETATM   29  C   UNL     1      -7.859   7.775  66.887  1.00  0.00    -0.107 A  
HETATM   30  C   UNL     1      -7.053   8.199  67.946  1.00  0.00    -0.083 A  
HETATM   31  C   UNL     1      -6.796   9.558  68.139  1.00  0.00    -0.070 A  
HETATM   32  C   UNL     1      -7.332  10.499  67.263  1.00  0.00    -0.091 A  
HETATM   33  C   UNL     1      -8.119  10.081  66.191  1.00  0.00    -0.122 A  
HETATM   34  C   UNL     1      -8.382   8.721  66.001  1.00  0.00    -0.130 A  
ENDBRANCH  28  29
ENDBRANCH  27  28
ENDBRANCH  24  27
ENDBRANCH  23  24
ENDBRANCH  19  22
ENDBRANCH  12  13
ENDBRANCH  11  12
ENDBRANCH   9  10
ENDBRANCH   8   9
ENDBRANCH   7   8
ENDBRANCH   5   7
ENDBRANCH   4   5
ENDBRANCH   2   4
TORSDOF 13
ENDMDL
MODEL       62
REMARK 921   NORMALIZED FREE ENERGY PREDICTED BY IDOCK:   -5.50 KCAL/MOL
REMARK 922        TOTAL FREE ENERGY PREDICTED BY IDOCK:  -12.51 KCAL/MOL
REMARK 923 INTER-LIGAND FREE ENERGY PREDICTED BY IDOCK:   -9.77 KCAL/MOL
REMARK 924 INTRA-LIGAND FREE ENERGY PREDICTED BY IDOCK:   -2.74 KCAL/MOL
REMARK 927      BINDING AFFINITY PREDICTED BY RF-SCORE:    0.00 PKD
ROOT
HETATM    1  C   UNL     1     -11.462  13.848  64.394  1.00  0.00    -0.376 C  
HETATM    2  C   UNL     1     -11.462  12.346  64.128  1.00  0.00    -0.381 C  
HETATM    3  C   UNL     1     -12.767  11.915  63.470  1.00  0.00    -0.530 C  
ENDROOT
BRANCH   2   4
HETATM    4  O   UNL     1     -10.391  12.021  63.225  1.00  0.00    -0.434 OA 
BRANCH   4   5
HETATM    5  C   UNL     1      -9.829  10.793  63.401  1.00  0.00    -0.349 C  
HETATM    6  O   UNL     1      -9.525  10.017  62.506  1.00  0.00    -0.292 OA 
BRANCH   5   7
HETATM    7  C   UNL     1      -9.678  10.500  64.871  1.00  0.00    -0.360 C  
BRANCH   7   8
HETATM    8  C   UNL     1      -8.395   9.716  65.137  1.00  0.00    -0.142 C  
BRANCH   8   9
HETATM    9  C   UNL     1      -8.640   8.629  66.181  1.00  0.00    -0.158 C  
BRANCH   9  10
HETATM   10  C   UNL     1     -10.022   8.053  66.081  1.00  0.00     0.021 C  
HETATM   11  C   UNL     1     -10.674   7.399  67.054  1.00  0.00    -0.389 C  
BRANCH  11  12
HETATM   12  C   UNL     1     -10.154   7.110  68.438  1.00  0.00    -0.182 C  
BRANCH  12  13
HETATM   13  C   UNL     1     -10.725   8.102  69.457  1.00  0.00    -0.180 C  
HETATM   14  C   UNL     1     -11.436   7.450  70.651  1.00  0.00    -0.282 C  
HETATM   15  C   UNL     1     -11.484   8.575  71.673  1.00  0.00    -0.365 C  
HETATM   16  O   UNL     1     -10.672   6.378  71.199  1.00  0.00    -0.228 OA 
HETATM   17  C   UNL     1     -10.090   9.193  71.577  1.00  0.00    -0.311 C  
HETATM   18  H   UNL     1     -11.112   5.974  71.938  1.00  0.00     0.000 HD 
HETATM   19  C   UNL     1      -9.635   8.997  70.107  1.00  0.00    -0.217 C  
HETATM   20  O   UNL     1      -9.197   8.505  72.455  1.00  0.00    -0.259 OA 
HETATM   21  H   UNL     1      -8.330   8.890  72.396  1.00  0.00     0.000 HD 
BRANCH  19  22
HETATM   22  C   UNL     1      -9.411  10.317  69.397  1.00  0.00    -0.225 C  
HETATM   23  C   UNL     1     -10.378  11.059  68.823  1.00  0.00    -0.217 C  
BRANCH  23  24
HETATM   24  C   UNL     1     -10.174  12.430  68.226  1.00  0.00    -0.229 C  
HETATM   25  F   UNL     1      -9.749  12.316  66.938  1.00  0.00    -0.198 F  
HETATM   26  F   UNL     1      -9.186  13.075  68.904  1.00  0.00    -0.062 F  
BRANCH  24  27
HETATM   27  C   UNL     1     -11.460  13.273  68.268  1.00  0.00    -0.316 C  
BRANCH  27  28
HETATM   28  O   UNL     1     -11.398  14.247  69.320  1.00  0.00    -0.257 OA 
BRANCH  28  29
HETATM   29  C   UNL     1     -12.315  14.086  70.323  1.00  0.00    -0.358 A  
HETATM   30  C   UNL     1     -13.142  15.186  70.563  1.00  0.00    -0.320 A  
HETATM   31  C   UNL     1     -14.116  15.133  71.562  1.00  0.00    -0.636 A  
HETATM   32  C   UNL     1     -14.278  13.973  72.316  1.00  0.00    -0.599 A  
HETATM   33  C   UNL     1     -13.469  12.865  72.068  1.00  0.00    -0.568 A  
HETATM   34  C   UNL     1     -12.490  12.919  71.072  1.00  0.00    -0.374 A  
ENDBRANCH  28  29
ENDBRANCH  27  28
ENDBRANCH  24  27
ENDBRANCH  23  24
ENDBRANCH  19  22
ENDBRANCH  12  13
ENDBRANCH  11  12
ENDBRANCH   9  10
ENDBRANCH   8   9
ENDBRANCH   7   8
ENDBRANCH   5   7
ENDBRANCH   4   5
ENDBRANCH   2   4
TORSDOF 13
ENDMDL
MODEL       63
REMARK 921   NORMALIZED FREE ENERGY PREDICTED BY IDOCK:   -5.49 KCAL/MOL
REMARK 922        TOTAL FREE ENERGY PREDICTED BY IDOCK:  -12.50 KCAL/MOL
REMARK 923 INTER-LIGAND FREE ENERGY PREDICTED BY IDOCK:  -10.24 KCAL/MOL
REMARK 924 INTRA-LIGAND FREE ENERGY PREDICTED BY IDOCK:   -2.26 KCAL/MOL
REMARK 927      BINDING AFFINITY PREDICTED BY RF-SCORE:    0.00 PKD
ROOT
HETATM    1  C   UNL     1     -12.005  11.771  63.467  1.00  0.00    -0.484 C  
HETATM    2  C   UNL     1     -11.355  12.292  64.745  1.00  0.00    -0.323 C  
HETATM    3  C   UNL     1     -10.347  11.287  65.287  1.00  0.00    -0.337 C  
ENDROOT
BRANCH   2   4
HETATM    4  O   UNL     1     -10.645  13.509  64.458  1.00  0.00    -0.406 OA 
BRANCH   4   5
HETATM    5  C   UNL     1     -11.333  14.660  64.700  1.00  0.00    -0.369 C  
HETATM    6  O   UNL     1     -12.510  14.852  64.429  1.00  0.00    -0.558 OA 
BRANCH   5   7
HETATM    7  C   UNL     1     -10.419  15.690  65.309  1.00  0.00    -0.439 C  
BRANCH   7   8
HETATM    8  C   UNL     1     -11.095  17.058  65.347  1.00  0.00     0.127 C  
BRANCH   8   9
HETATM    9  C   UNL     1     -10.170  18.095  65.978  1.00  0.00    -0.325 C  
BRANCH   9  10
HETATM   10  C   UNL     1     -10.543  18.391  67.401  1.00  0.00    -0.445 C  
HETATM   11  C   UNL     1      -9.718  18.336  68.459  1.00  0.00    -0.379 C  
BRANCH  11  12
HETATM   12  C   UNL     1      -8.258  17.967  68.432  1.00  0.00    -0.305 C  
BRANCH  12  13
HETATM   13  C   UNL     1      -8.070  16.500  68.031  1.00  0.00    -0.168 C  
HETATM   14  C   UNL     1      -6.624  16.113  67.690  1.00  0.00    -0.155 C  
HETATM   15  C   UNL     1      -6.648  14.595  67.782  1.00  0.00    -0.189 C  
HETATM   16  O   UNL     1      -5.703  16.608  68.660  1.00  0.00    -0.119 OA 
HETATM   17  C   UNL     1      -7.463  14.336  69.049  1.00  0.00    -0.102 C  
HETATM   18  H   UNL     1      -4.808  16.368  68.449  1.00  0.00     0.000 HD 
HETATM   19  C   UNL     1      -8.473  15.508  69.155  1.00  0.00    -0.248 C  
HETATM   20  O   UNL     1      -6.598  14.338  70.187  1.00  0.00    -0.289 OA 
HETATM   21  H   UNL     1      -7.104  14.177  70.974  1.00  0.00     0.000 HD 
BRANCH  19  22
HETATM   22  C   UNL     1      -9.910  15.033  69.078  1.00  0.00    -0.236 C  
HETATM   23  C   UNL     1     -10.309  13.864  68.541  1.00  0.00    -0.244 C  
BRANCH  23  24
HETATM   24  C   UNL     1     -11.723  13.335  68.576  1.00  0.00    -0.352 C  
HETATM   25  F   UNL     1     -12.298  13.472  67.350  1.00  0.00    -0.376 F  
HETATM   26  F   UNL     1     -12.464  14.085  69.437  1.00  0.00    -0.376 F  
BRANCH  24  27
HETATM   27  C   UNL     1     -11.775  11.860  69.005  1.00  0.00    -0.331 C  
BRANCH  27  28
HETATM   28  O   UNL     1     -12.525  11.707  70.219  1.00  0.00    -0.255 OA 
BRANCH  28  29
HETATM   29  C   UNL     1     -12.251  10.576  70.939  1.00  0.00    -0.388 A  
HETATM   30  C   UNL     1     -10.952  10.080  70.808  1.00  0.00    -0.375 A  
HETATM   31  C   UNL     1     -10.560   8.932  71.500  1.00  0.00    -0.399 A  
HETATM   32  C   UNL     1     -11.463   8.283  72.339  1.00  0.00    -0.463 A  
HETATM   33  C   UNL     1     -12.755   8.785  72.490  1.00  0.00    -0.378 A  
HETATM   34  C   UNL     1     -13.149   9.931  71.793  1.00  0.00    -0.553 A  
ENDBRANCH  28  29
ENDBRANCH  27  28
ENDBRANCH  24  27
ENDBRANCH  23  24
ENDBRANCH  19  22
ENDBRANCH  12  13
ENDBRANCH  11  12
ENDBRANCH   9  10
ENDBRANCH   8   9
ENDBRANCH   7   8
ENDBRANCH   5   7
ENDBRANCH   4   5
ENDBRANCH   2   4
TORSDOF 13
ENDMDL
MODEL       64
REMARK 921   NORMALIZED FREE ENERGY PREDICTED BY IDOCK:   -5.48 KCAL/MOL
REMARK 922        TOTAL FREE ENERGY PREDICTED BY IDOCK:  -12.48 KCAL/MOL
REMARK 923 INTER-LIGAND FREE ENERGY PREDICTED BY IDOCK:  -10.43 KCAL/MOL
REMARK 924 INTRA-LIGAND FREE ENERGY PREDICTED BY IDOCK:   -2.05 KCAL/MOL
REMARK 927      BINDING AFFINITY PREDICTED BY RF-SCORE:    0.00 PKD
ROOT
HETATM    1  C   UNL     1      -7.400  14.617  67.720  1.00  0.00    -0.188 C  
HETATM    2  C   UNL     1      -7.265  16.113  67.453  1.00  0.00    -0.182 C  
HETATM    3  C   UNL     1      -5.804  16.496  67.254  1.00  0.00    -0.191 C  
ENDROOT
BRANCH   2   4
HETATM    4  O   UNL     1      -7.971  16.448  66.245  1.00  0.00    -0.308 OA 
BRANCH   4   5
HETATM    5  C   UNL     1      -9.242  16.908  66.418  1.00  0.00    -0.279 C  
HETATM    6  O   UNL     1     -10.125  16.887  65.573  1.00  0.00    -0.575 OA 
BRANCH   5   7
HETATM    7  C   UNL     1      -9.394  17.498  67.795  1.00  0.00    -0.257 C  
BRANCH   7   8
HETATM    8  C   UNL     1     -10.716  17.064  68.427  1.00  0.00    -0.361 C  
BRANCH   8   9
HETATM    9  C   UNL     1     -10.514  15.818  69.285  1.00  0.00    -0.247 C  
BRANCH   9  10
HETATM   10  C   UNL     1     -11.746  14.964  69.336  1.00  0.00    -0.349 C  
HETATM   11  C   UNL     1     -12.119  14.065  68.411  1.00  0.00    -0.318 C  
BRANCH  11  12
HETATM   12  C   UNL     1     -11.380  13.734  67.141  1.00  0.00    -0.344 C  
BRANCH  12  13
HETATM   13  C   UNL     1     -11.359  12.221  66.897  1.00  0.00    -0.392 C  
HETATM   14  C   UNL     1     -10.469  11.777  65.728  1.00  0.00    -0.260 C  
HETATM   15  C   UNL     1     -10.275  10.292  65.993  1.00  0.00    -0.298 C  
HETATM   16  O   UNL     1      -9.192  12.411  65.766  1.00  0.00    -0.433 OA 
HETATM   17  C   UNL     1     -10.020  10.238  67.499  1.00  0.00    -0.189 C  
HETATM   18  H   UNL     1      -8.641  12.136  65.042  1.00  0.00     0.000 HD 
HETATM   19  C   UNL     1     -10.818  11.419  68.111  1.00  0.00    -0.259 C  
HETATM   20  O   UNL     1      -8.625  10.412  67.757  1.00  0.00    -0.121 OA 
HETATM   21  H   UNL     1      -8.466  10.378  68.693  1.00  0.00     0.000 HD 
BRANCH  19  22
HETATM   22  C   UNL     1     -11.892  10.946  69.071  1.00  0.00    -0.370 C  
HETATM   23  C   UNL     1     -11.670  10.524  70.330  1.00  0.00    -0.434 C  
BRANCH  23  24
HETATM   24  C   UNL     1     -12.749  10.173  71.326  1.00  0.00    -0.407 C  
HETATM   25  F   UNL     1     -13.909   9.892  70.672  1.00  0.00    -0.353 F  
HETATM   26  F   UNL     1     -13.002  11.252  72.116  1.00  0.00    -0.553 F  
BRANCH  24  27
HETATM   27  C   UNL     1     -12.354   8.974  72.204  1.00  0.00    -0.372 C  
BRANCH  27  28
HETATM   28  O   UNL     1     -12.838   7.747  71.640  1.00  0.00    -0.325 OA 
BRANCH  28  29
HETATM   29  C   UNL     1     -11.878   6.815  71.352  1.00  0.00    -0.338 A  
HETATM   30  C   UNL     1     -11.617   6.620  69.994  1.00  0.00    -0.423 A  
HETATM   31  C   UNL     1     -10.655   5.695  69.584  1.00  0.00    -0.401 A  
HETATM   32  C   UNL     1      -9.937   4.970  70.533  1.00  0.00    -0.312 A  
HETATM   33  C   UNL     1     -10.178   5.176  71.891  1.00  0.00    -0.269 A  
HETATM   34  C   UNL     1     -11.145   6.097  72.302  1.00  0.00    -0.320 A  
ENDBRANCH  28  29
ENDBRANCH  27  28
ENDBRANCH  24  27
ENDBRANCH  23  24
ENDBRANCH  19  22
ENDBRANCH  12  13
ENDBRANCH  11  12
ENDBRANCH   9  10
ENDBRANCH   8   9
ENDBRANCH   7   8
ENDBRANCH   5   7
ENDBRANCH   4   5
ENDBRANCH   2   4
TORSDOF 13
ENDMDL
MODEL       65
REMARK 921   NORMALIZED FREE ENERGY PREDICTED BY IDOCK:   -5.47 KCAL/MOL
REMARK 922        TOTAL FREE ENERGY PREDICTED BY IDOCK:  -12.47 KCAL/MOL
REMARK 923 INTER-LIGAND FREE ENERGY PREDICTED BY IDOCK:  -10.79 KCAL/MOL
REMARK 924 INTRA-LIGAND FREE ENERGY PREDICTED BY IDOCK:   -1.68 KCAL/MOL
REMARK 927      BINDING AFFINITY PREDICTED BY RF-SCORE:    0.00 PKD
ROOT
HETATM    1  C   UNL     1     -10.411   7.050  73.547  1.00  0.00    -0.413 C  
HETATM    2  C   UNL     1     -10.756   5.938  72.562  1.00  0.00    -0.234 C  
HETATM    3  C   UNL     1     -11.291   4.714  73.295  1.00  0.00    -0.393 C  
ENDROOT
BRANCH   2   4
HETATM    4  O   UNL     1     -11.787   6.393  71.668  1.00  0.00    -0.310 OA 
BRANCH   4   5
HETATM    5  C   UNL     1     -11.348   7.006  70.533  1.00  0.00    -0.312 C  
HETATM    6  O   UNL     1     -11.327   8.214  70.343  1.00  0.00    -0.259 OA 
BRANCH   5   7
HETATM    7  C   UNL     1     -10.936   5.976  69.516  1.00  0.00    -0.467 C  
BRANCH   7   8
HETATM    8  C   UNL     1     -10.811   6.604  68.130  1.00  0.00    -0.334 C  
BRANCH   8   9
HETATM    9  C   UNL     1      -9.409   6.386  67.568  1.00  0.00    -0.119 C  
BRANCH   9  10
HETATM   10  C   UNL     1      -8.553   7.612  67.699  1.00  0.00    -0.116 C  
HETATM   11  C   UNL     1      -8.413   8.577  66.776  1.00  0.00    -0.111 C  
BRANCH  11  12
HETATM   12  C   UNL     1      -9.082   8.623  65.427  1.00  0.00    -0.150 C  
BRANCH  12  13
HETATM   13  C   UNL     1      -8.980  10.024  64.812  1.00  0.00    -0.247 C  
HETATM   14  C   UNL     1      -8.762  10.037  63.293  1.00  0.00    -0.221 C  
HETATM   15  C   UNL     1      -9.148  11.457  62.908  1.00  0.00    -0.257 C  
HETATM   16  O   UNL     1      -9.643   9.136  62.626  1.00  0.00    -0.419 OA 
HETATM   17  C   UNL     1     -10.418  11.706  63.721  1.00  0.00    -0.402 C  
HETATM   18  H   UNL     1      -9.508   9.145  61.685  1.00  0.00     0.000 HD 
HETATM   19  C   UNL     1     -10.265  10.870  65.019  1.00  0.00    -0.367 C  
HETATM   20  O   UNL     1     -11.557  11.254  62.987  1.00  0.00    -0.857 OA 
HETATM   21  H   UNL     1     -12.346  11.409  63.492  1.00  0.00     0.000 HD 
BRANCH  19  22
HETATM   22  C   UNL     1     -10.241  11.741  66.260  1.00  0.00    -0.255 C  
HETATM   23  C   UNL     1     -10.608  13.036  66.302  1.00  0.00    -0.283 C  
BRANCH  23  24
HETATM   24  C   UNL     1     -10.704  13.867  67.559  1.00  0.00    -0.267 C  
HETATM   25  F   UNL     1     -10.652  15.190  67.243  1.00  0.00    -0.264 F  
HETATM   26  F   UNL     1      -9.625  13.615  68.349  1.00  0.00    -0.204 F  
BRANCH  24  27
HETATM   27  C   UNL     1     -11.994  13.578  68.343  1.00  0.00    -0.343 C  
BRANCH  27  28
HETATM   28  O   UNL     1     -11.694  13.163  69.683  1.00  0.00    -0.298 OA 
BRANCH  28  29
HETATM   29  C   UNL     1     -12.229  13.944  70.672  1.00  0.00    -0.373 A  
HETATM   30  C   UNL     1     -11.618  15.187  70.852  1.00  0.00    -0.380 A  
HETATM   31  C   UNL     1     -12.082  16.069  71.831  1.00  0.00    -0.590 A  
HETATM   32  C   UNL     1     -13.170  15.716  72.625  1.00  0.00    -0.592 A  
HETATM   33  C   UNL     1     -13.797  14.485  72.437  1.00  0.00    -0.587 A  
HETATM   34  C   UNL     1     -13.330  13.600  71.461  1.00  0.00    -0.372 A  
ENDBRANCH  28  29
ENDBRANCH  27  28
ENDBRANCH  24  27
ENDBRANCH  23  24
ENDBRANCH  19  22
ENDBRANCH  12  13
ENDBRANCH  11  12
ENDBRANCH   9  10
ENDBRANCH   8   9
ENDBRANCH   7   8
ENDBRANCH   5   7
ENDBRANCH   4   5
ENDBRANCH   2   4
TORSDOF 13
ENDMDL
MODEL       66
REMARK 921   NORMALIZED FREE ENERGY PREDICTED BY IDOCK:   -5.47 KCAL/MOL
REMARK 922        TOTAL FREE ENERGY PREDICTED BY IDOCK:  -12.46 KCAL/MOL
REMARK 923 INTER-LIGAND FREE ENERGY PREDICTED BY IDOCK:   -9.94 KCAL/MOL
REMARK 924 INTRA-LIGAND FREE ENERGY PREDICTED BY IDOCK:   -2.53 KCAL/MOL
REMARK 927      BINDING AFFINITY PREDICTED BY RF-SCORE:    0.00 PKD
ROOT
HETATM    1  C   UNL     1     -11.146  15.847  64.906  1.00  0.00    -0.400 C  
HETATM    2  C   UNL     1     -11.493  14.411  65.284  1.00  0.00    -0.350 C  
HETATM    3  C   UNL     1     -12.146  14.357  66.660  1.00  0.00    -0.392 C  
ENDROOT
BRANCH   2   4
HETATM    4  O   UNL     1     -12.435  13.881  64.335  1.00  0.00    -0.613 OA 
BRANCH   4   5
HETATM    5  C   UNL     1     -12.169  12.623  63.885  1.00  0.00    -0.481 C  
HETATM    6  O   UNL     1     -12.960  11.897  63.300  1.00  0.00    -0.707 OA 
BRANCH   5   7
HETATM    7  C   UNL     1     -10.764  12.228  64.258  1.00  0.00    -0.389 C  
BRANCH   7   8
HETATM    8  C   UNL     1     -10.108  11.435  63.129  1.00  0.00    -0.390 C  
BRANCH   8   9
HETATM    9  C   UNL     1      -8.800  10.809  63.606  1.00  0.00    -0.139 C  
BRANCH   9  10
HETATM   10  C   UNL     1      -8.945   9.340  63.879  1.00  0.00    -0.092 C  
HETATM   11  C   UNL     1      -8.734   8.733  65.057  1.00  0.00    -0.183 C  
BRANCH  11  12
HETATM   12  C   UNL     1      -8.308   9.400  66.339  1.00  0.00    -0.116 C  
BRANCH  12  13
HETATM   13  C   UNL     1      -9.384  10.373  66.835  1.00  0.00    -0.186 C  
HETATM   14  C   UNL     1     -10.726   9.715  67.179  1.00  0.00    -0.188 C  
HETATM   15  C   UNL     1     -11.411  10.769  68.037  1.00  0.00    -0.378 C  
HETATM   16  O   UNL     1     -10.552   8.540  67.967  1.00  0.00    -0.346 OA 
HETATM   17  C   UNL     1     -10.288  11.253  68.955  1.00  0.00    -0.195 C  
HETATM   18  H   UNL     1     -11.384   8.133  68.181  1.00  0.00     0.000 HD 
HETATM   19  C   UNL     1      -8.977  11.112  68.138  1.00  0.00    -0.159 C  
HETATM   20  O   UNL     1     -10.225  10.424  70.117  1.00  0.00    -0.429 OA 
HETATM   21  H   UNL     1      -9.528  10.726  70.688  1.00  0.00     0.000 HD 
BRANCH  19  22
HETATM   22  C   UNL     1      -8.300  12.449  67.909  1.00  0.00    -0.165 C  
HETATM   23  C   UNL     1      -8.790  13.640  68.301  1.00  0.00    -0.179 C  
BRANCH  23  24
HETATM   24  C   UNL     1      -8.059  14.956  68.184  1.00  0.00    -0.137 C  
HETATM   25  F   UNL     1      -8.113  15.402  66.899  1.00  0.00    -0.207 F  
HETATM   26  F   UNL     1      -6.742  14.767  68.473  1.00  0.00    -0.086 F  
BRANCH  24  27
HETATM   27  C   UNL     1      -8.643  16.024  69.123  1.00  0.00    -0.247 C  
BRANCH  27  28
HETATM   28  O   UNL     1      -8.003  17.291  68.914  1.00  0.00    -0.255 OA 
BRANCH  28  29
HETATM   29  C   UNL     1      -8.746  18.218  68.233  1.00  0.00    -0.288 A  
HETATM   30  C   UNL     1      -8.030  19.301  67.719  1.00  0.00    -0.312 A  
HETATM   31  C   UNL     1      -8.685  20.306  67.004  1.00  0.00    -0.413 A  
HETATM   32  C   UNL     1     -10.059  20.224  66.787  1.00  0.00    -0.556 A  
HETATM   33  C   UNL     1     -10.775  19.135  67.280  1.00  0.00    -0.585 A  
HETATM   34  C   UNL     1     -10.121  18.131  68.001  1.00  0.00    -0.376 A  
ENDBRANCH  28  29
ENDBRANCH  27  28
ENDBRANCH  24  27
ENDBRANCH  23  24
ENDBRANCH  19  22
ENDBRANCH  12  13
ENDBRANCH  11  12
ENDBRANCH   9  10
ENDBRANCH   8   9
ENDBRANCH   7   8
ENDBRANCH   5   7
ENDBRANCH   4   5
ENDBRANCH   2   4
TORSDOF 13
ENDMDL
MODEL       67
REMARK 921   NORMALIZED FREE ENERGY PREDICTED BY IDOCK:   -5.47 KCAL/MOL
REMARK 922        TOTAL FREE ENERGY PREDICTED BY IDOCK:  -12.46 KCAL/MOL
REMARK 923 INTER-LIGAND FREE ENERGY PREDICTED BY IDOCK:   -9.69 KCAL/MOL
REMARK 924 INTRA-LIGAND FREE ENERGY PREDICTED BY IDOCK:   -2.78 KCAL/MOL
REMARK 927      BINDING AFFINITY PREDICTED BY RF-SCORE:    0.00 PKD
ROOT
HETATM    1  C   UNL     1     -12.515  11.843  63.310  1.00  0.00    -0.506 C  
HETATM    2  C   UNL     1     -11.348  12.283  64.188  1.00  0.00    -0.376 C  
HETATM    3  C   UNL     1     -10.018  11.958  63.521  1.00  0.00    -0.422 C  
ENDROOT
BRANCH   2   4
HETATM    4  O   UNL     1     -11.404  13.708  64.376  1.00  0.00    -0.369 OA 
BRANCH   4   5
HETATM    5  C   UNL     1     -12.168  14.132  65.421  1.00  0.00    -0.433 C  
HETATM    6  O   UNL     1     -13.391  14.134  65.449  1.00  0.00    -0.705 OA 
BRANCH   5   7
HETATM    7  C   UNL     1     -11.289  14.650  66.528  1.00  0.00    -0.353 C  
BRANCH   7   8
HETATM    8  C   UNL     1     -11.704  14.054  67.872  1.00  0.00    -0.397 C  
BRANCH   8   9
HETATM    9  C   UNL     1     -10.684  13.017  68.335  1.00  0.00    -0.273 C  
BRANCH   9  10
HETATM   10  C   UNL     1     -11.163  11.614  68.103  1.00  0.00    -0.325 C  
HETATM   11  C   UNL     1     -11.853  10.864  68.977  1.00  0.00    -0.370 C  
BRANCH  11  12
HETATM   12  C   UNL     1     -12.284  11.276  70.360  1.00  0.00    -0.453 C  
BRANCH  12  13
HETATM   13  C   UNL     1     -11.966  10.180  71.383  1.00  0.00    -0.447 C  
HETATM   14  C   UNL     1     -13.200   9.495  71.986  1.00  0.00    -0.452 C  
HETATM   15  C   UNL     1     -12.625   8.214  72.572  1.00  0.00    -0.200 C  
HETATM   16  O   UNL     1     -14.151   9.142  70.983  1.00  0.00    -0.533 OA 
HETATM   17  C   UNL     1     -11.666   7.733  71.484  1.00  0.00    -0.280 C  
HETATM   18  H   UNL     1     -14.914   8.717  71.357  1.00  0.00     0.000 HD 
HETATM   19  C   UNL     1     -11.140   9.012  70.782  1.00  0.00    -0.328 C  
HETATM   20  O   UNL     1     -12.374   6.922  70.544  1.00  0.00    -0.593 OA 
HETATM   21  H   UNL     1     -11.778   6.622  69.867  1.00  0.00     0.000 HD 
BRANCH  19  22
HETATM   22  C   UNL     1      -9.639   9.170  70.933  1.00  0.00    -0.347 C  
HETATM   23  C   UNL     1      -8.781   8.169  71.205  1.00  0.00    -0.161 C  
BRANCH  23  24
HETATM   24  C   UNL     1      -7.277   8.304  71.232  1.00  0.00    -0.073 C  
HETATM   25  F   UNL     1      -6.729   7.238  71.878  1.00  0.00    -0.053 F  
HETATM   26  F   UNL     1      -6.936   9.408  71.949  1.00  0.00     0.013 F  
BRANCH  24  27
HETATM   27  C   UNL     1      -6.683   8.406  69.817  1.00  0.00    -0.039 C  
BRANCH  27  28
HETATM   28  O   UNL     1      -7.384   7.547  68.906  1.00  0.00    -0.089 OA 
BRANCH  28  29
HETATM   29  C   UNL     1      -8.073   8.186  67.910  1.00  0.00    -0.128 A  
HETATM   30  C   UNL     1      -9.264   7.573  67.515  1.00  0.00    -0.140 A  
HETATM   31  C   UNL     1     -10.050   8.139  66.508  1.00  0.00    -0.286 A  
HETATM   32  C   UNL     1      -9.654   9.330  65.903  1.00  0.00    -0.345 A  
HETATM   33  C   UNL     1      -8.477   9.957  66.308  1.00  0.00    -0.133 A  
HETATM   34  C   UNL     1      -7.687   9.388  67.311  1.00  0.00    -0.091 A  
ENDBRANCH  28  29
ENDBRANCH  27  28
ENDBRANCH  24  27
ENDBRANCH  23  24
ENDBRANCH  19  22
ENDBRANCH  12  13
ENDBRANCH  11  12
ENDBRANCH   9  10
ENDBRANCH   8   9
ENDBRANCH   7   8
ENDBRANCH   5   7
ENDBRANCH   4   5
ENDBRANCH   2   4
TORSDOF 13
ENDMDL
MODEL       68
REMARK 921   NORMALIZED FREE ENERGY PREDICTED BY IDOCK:   -5.46 KCAL/MOL
REMARK 922        TOTAL FREE ENERGY PREDICTED BY IDOCK:  -12.45 KCAL/MOL
REMARK 923 INTER-LIGAND FREE ENERGY PREDICTED BY IDOCK:   -9.80 KCAL/MOL
REMARK 924 INTRA-LIGAND FREE ENERGY PREDICTED BY IDOCK:   -2.65 KCAL/MOL
REMARK 927      BINDING AFFINITY PREDICTED BY RF-SCORE:    0.00 PKD
ROOT
HETATM    1  C   UNL     1      -6.875  12.291  67.338  1.00  0.00    -0.145 C  
HETATM    2  C   UNL     1      -6.859  11.059  66.440  1.00  0.00    -0.118 C  
HETATM    3  C   UNL     1      -5.529  10.325  66.553  1.00  0.00    -0.048 C  
ENDROOT
BRANCH   2   4
HETATM    4  O   UNL     1      -7.893  10.151  66.857  1.00  0.00    -0.105 OA 
BRANCH   4   5
HETATM    5  C   UNL     1      -9.019  10.153  66.089  1.00  0.00    -0.150 C  
HETATM    6  O   UNL     1      -9.093  10.563  64.940  1.00  0.00    -0.182 OA 
BRANCH   5   7
HETATM    7  C   UNL     1     -10.184   9.620  66.880  1.00  0.00    -0.304 C  
BRANCH   7   8
HETATM    8  C   UNL     1      -9.911   9.721  68.380  1.00  0.00    -0.176 C  
BRANCH   8   9
HETATM    9  C   UNL     1     -10.792  10.796  69.012  1.00  0.00    -0.278 C  
BRANCH   9  10
HETATM   10  C   UNL     1     -12.073  10.230  69.550  1.00  0.00    -0.025 C  
HETATM   11  C   UNL     1     -12.770  10.711  70.592  1.00  0.00    -0.445 C  
BRANCH  11  12
HETATM   12  C   UNL     1     -12.408  11.910  71.428  1.00  0.00    -0.120 C  
BRANCH  12  13
HETATM   13  C   UNL     1     -13.226  13.137  71.010  1.00  0.00    -0.019 C  
HETATM   14  C   UNL     1     -14.034  13.780  72.146  1.00  0.00    -0.544 C  
HETATM   15  C   UNL     1     -14.352  15.162  71.595  1.00  0.00    -0.685 C  
HETATM   16  O   UNL     1     -13.251  13.937  73.327  1.00  0.00    -0.527 OA 
HETATM   17  C   UNL     1     -13.032  15.596  70.959  1.00  0.00    -0.458 C  
HETATM   18  H   UNL     1     -13.752  14.336  74.030  1.00  0.00     0.000 HD 
HETATM   19  C   UNL     1     -12.346  14.295  70.468  1.00  0.00    -0.430 C  
HETATM   20  O   UNL     1     -12.212  16.234  71.940  1.00  0.00    -0.566 OA 
HETATM   21  H   UNL     1     -11.392  16.505  71.545  1.00  0.00     0.000 HD 
BRANCH  19  22
HETATM   22  C   UNL     1     -12.159  14.280  68.963  1.00  0.00    -0.320 C  
HETATM   23  C   UNL     1     -10.975  14.387  68.332  1.00  0.00    -0.261 C  
BRANCH  23  24
HETATM   24  C   UNL     1     -10.775  14.248  66.842  1.00  0.00    -0.290 C  
HETATM   25  F   UNL     1     -11.949  14.483  66.193  1.00  0.00    -0.368 F  
HETATM   26  F   UNL     1     -10.423  12.965  66.553  1.00  0.00    -0.254 F  
BRANCH  24  27
HETATM   27  C   UNL     1      -9.697  15.208  66.313  1.00  0.00    -0.290 C  
BRANCH  27  28
HETATM   28  O   UNL     1      -9.244  16.088  67.352  1.00  0.00    -0.205 OA 
BRANCH  28  29
HETATM   29  C   UNL     1      -9.386  17.425  67.093  1.00  0.00    -0.245 A  
HETATM   30  C   UNL     1     -10.604  17.986  67.482  1.00  0.00    -0.402 A  
HETATM   31  C   UNL     1     -10.858  19.342  67.269  1.00  0.00    -0.561 A  
HETATM   32  C   UNL     1      -9.887  20.148  66.679  1.00  0.00    -0.588 A  
HETATM   33  C   UNL     1      -8.661  19.598  66.307  1.00  0.00    -0.401 A  
HETATM   34  C   UNL     1      -8.409  18.239  66.514  1.00  0.00    -0.287 A  
ENDBRANCH  28  29
ENDBRANCH  27  28
ENDBRANCH  24  27
ENDBRANCH  23  24
ENDBRANCH  19  22
ENDBRANCH  12  13
ENDBRANCH  11  12
ENDBRANCH   9  10
ENDBRANCH   8   9
ENDBRANCH   7   8
ENDBRANCH   5   7
ENDBRANCH   4   5
ENDBRANCH   2   4
TORSDOF 13
ENDMDL
MODEL       69
REMARK 921   NORMALIZED FREE ENERGY PREDICTED BY IDOCK:   -5.46 KCAL/MOL
REMARK 922        TOTAL FREE ENERGY PREDICTED BY IDOCK:  -12.45 KCAL/MOL
REMARK 923 INTER-LIGAND FREE ENERGY PREDICTED BY IDOCK:  -10.00 KCAL/MOL
REMARK 924 INTRA-LIGAND FREE ENERGY PREDICTED BY IDOCK:   -2.45 KCAL/MOL
REMARK 927      BINDING AFFINITY PREDICTED BY RF-SCORE:    0.00 PKD
ROOT
HETATM    1  C   UNL     1     -11.320  15.395  64.612  1.00  0.00    -0.361 C  
HETATM    2  C   UNL     1     -11.565  13.890  64.639  1.00  0.00    -0.385 C  
HETATM    3  C   UNL     1     -12.402  13.457  63.442  1.00  0.00    -0.343 C  
ENDROOT
BRANCH   2   4
HETATM    4  O   UNL     1     -10.305  13.200  64.561  1.00  0.00    -0.381 OA 
BRANCH   4   5
HETATM    5  C   UNL     1     -10.386  11.845  64.446  1.00  0.00    -0.299 C  
HETATM    6  O   UNL     1     -10.165  11.206  63.427  1.00  0.00    -0.341 OA 
BRANCH   5   7
HETATM    7  C   UNL     1     -10.839  11.241  65.749  1.00  0.00    -0.257 C  
BRANCH   7   8
HETATM    8  C   UNL     1      -9.651  10.677  66.526  1.00  0.00    -0.218 C  
BRANCH   8   9
HETATM    9  C   UNL     1      -9.464  11.432  67.840  1.00  0.00    -0.174 C  
BRANCH   9  10
HETATM   10  C   UNL     1      -8.598  12.646  67.673  1.00  0.00    -0.180 C  
HETATM   11  C   UNL     1      -9.008  13.922  67.747  1.00  0.00    -0.188 C  
BRANCH  11  12
HETATM   12  C   UNL     1     -10.415  14.392  68.010  1.00  0.00    -0.237 C  
BRANCH  12  13
HETATM   13  C   UNL     1     -10.715  14.413  69.513  1.00  0.00    -0.133 C  
HETATM   14  C   UNL     1     -10.715  15.813  70.141  1.00  0.00    -0.344 C  
HETATM   15  C   UNL     1     -11.459  15.597  71.451  1.00  0.00    -0.488 C  
HETATM   16  O   UNL     1     -11.454  16.745  69.354  1.00  0.00    -0.216 OA 
HETATM   17  C   UNL     1     -12.628  14.701  71.043  1.00  0.00    -0.329 C  
HETATM   18  H   UNL     1     -11.454  17.612  69.745  1.00  0.00     0.000 HD 
HETATM   19  C   UNL     1     -12.115  13.841  69.858  1.00  0.00    -0.412 C  
HETATM   20  O   UNL     1     -13.727  15.509  70.614  1.00  0.00    -0.851 OA 
HETATM   21  H   UNL     1     -14.454  14.952  70.362  1.00  0.00     0.000 HD 
BRANCH  19  22
HETATM   22  C   UNL     1     -12.118  12.360  70.184  1.00  0.00    -0.366 C  
HETATM   23  C   UNL     1     -12.815  11.792  71.185  1.00  0.00    -0.365 C  
BRANCH  23  24
HETATM   24  C   UNL     1     -12.917  10.306  71.432  1.00  0.00    -0.440 C  
HETATM   25  F   UNL     1     -13.784   9.748  70.542  1.00  0.00    -0.285 F  
HETATM   26  F   UNL     1     -13.440  10.089  72.669  1.00  0.00    -0.400 F  
BRANCH  24  27
HETATM   27  C   UNL     1     -11.551   9.609  71.321  1.00  0.00    -0.393 C  
BRANCH  27  28
HETATM   28  O   UNL     1     -11.355   9.078  70.003  1.00  0.00    -0.184 OA 
BRANCH  28  29
HETATM   29  C   UNL     1     -10.716   7.868  69.946  1.00  0.00    -0.244 A  
HETATM   30  C   UNL     1     -11.411   6.795  70.509  1.00  0.00    -0.394 A  
HETATM   31  C   UNL     1     -10.856   5.514  70.506  1.00  0.00    -0.266 A  
HETATM   32  C   UNL     1      -9.608   5.297  69.925  1.00  0.00    -0.241 A  
HETATM   33  C   UNL     1      -8.919   6.360  69.343  1.00  0.00    -0.131 A  
HETATM   34  C   UNL     1      -9.472   7.644  69.351  1.00  0.00    -0.152 A  
ENDBRANCH  28  29
ENDBRANCH  27  28
ENDBRANCH  24  27
ENDBRANCH  23  24
ENDBRANCH  19  22
ENDBRANCH  12  13
ENDBRANCH  11  12
ENDBRANCH   9  10
ENDBRANCH   8   9
ENDBRANCH   7   8
ENDBRANCH   5   7
ENDBRANCH   4   5
ENDBRANCH   2   4
TORSDOF 13
ENDMDL
MODEL       70
REMARK 921   NORMALIZED FREE ENERGY PREDICTED BY IDOCK:   -5.45 KCAL/MOL
REMARK 922        TOTAL FREE ENERGY PREDICTED BY IDOCK:  -12.44 KCAL/MOL
REMARK 923 INTER-LIGAND FREE ENERGY PREDICTED BY IDOCK:  -10.11 KCAL/MOL
REMARK 924 INTRA-LIGAND FREE ENERGY PREDICTED BY IDOCK:   -2.32 KCAL/MOL
REMARK 927      BINDING AFFINITY PREDICTED BY RF-SCORE:    0.00 PKD
ROOT
HETATM    1  C   UNL     1      -9.513  15.261  66.013  1.00  0.00    -0.372 C  
HETATM    2  C   UNL     1     -10.904  14.951  65.471  1.00  0.00    -0.356 C  
HETATM    3  C   UNL     1     -11.342  16.013  64.469  1.00  0.00    -0.303 C  
ENDROOT
BRANCH   2   4
HETATM    4  O   UNL     1     -10.878  13.689  64.782  1.00  0.00    -0.349 OA 
BRANCH   4   5
HETATM    5  C   UNL     1     -11.938  12.867  65.026  1.00  0.00    -0.405 C  
HETATM    6  O   UNL     1     -12.888  12.694  64.276  1.00  0.00    -0.699 OA 
BRANCH   5   7
HETATM    7  C   UNL     1     -11.798  12.234  66.386  1.00  0.00    -0.382 C  
BRANCH   7   8
HETATM    8  C   UNL     1     -10.452  11.526  66.517  1.00  0.00    -0.284 C  
BRANCH   8   9
HETATM    9  C   UNL     1     -10.363  10.790  67.851  1.00  0.00    -0.216 C  
BRANCH   9  10
HETATM   10  C   UNL     1     -10.459   9.302  67.681  1.00  0.00    -0.325 C  
HETATM   11  C   UNL     1      -9.622   8.394  68.207  1.00  0.00    -0.156 C  
BRANCH  11  12
HETATM   12  C   UNL     1      -8.421   8.683  69.070  1.00  0.00    -0.124 C  
BRANCH  12  13
HETATM   13  C   UNL     1      -8.403   7.778  70.307  1.00  0.00    -0.127 C  
HETATM   14  C   UNL     1      -7.075   7.047  70.541  1.00  0.00    -0.064 C  
HETATM   15  C   UNL     1      -7.175   6.620  71.998  1.00  0.00    -0.081 C  
HETATM   16  O   UNL     1      -5.958   7.925  70.407  1.00  0.00    -0.029 OA 
HETATM   17  C   UNL     1      -7.751   7.858  72.685  1.00  0.00    -0.114 C  
HETATM   18  H   UNL     1      -5.136   7.472  70.552  1.00  0.00     0.000 HD 
HETATM   19  C   UNL     1      -8.648   8.554  71.628  1.00  0.00    -0.247 C  
HETATM   20  O   UNL     1      -6.689   8.733  73.070  1.00  0.00    -0.285 OA 
HETATM   21  H   UNL     1      -7.048   9.502  73.497  1.00  0.00     0.000 HD 
BRANCH  19  22
HETATM   22  C   UNL     1     -10.102   8.606  72.057  1.00  0.00    -0.401 C  
HETATM   23  C   UNL     1     -11.067   9.307  71.432  1.00  0.00    -0.437 C  
BRANCH  23  24
HETATM   24  C   UNL     1     -12.534   9.260  71.784  1.00  0.00    -0.381 C  
HETATM   25  F   UNL     1     -12.689   8.823  73.064  1.00  0.00    -0.405 F  
HETATM   26  F   UNL     1     -13.160   8.352  70.986  1.00  0.00    -0.229 F  
BRANCH  24  27
HETATM   27  C   UNL     1     -13.208  10.633  71.626  1.00  0.00    -0.392 C  
BRANCH  27  28
HETATM   28  O   UNL     1     -12.475  11.458  70.709  1.00  0.00    -0.360 OA 
BRANCH  28  29
HETATM   29  C   UNL     1     -12.617  12.808  70.893  1.00  0.00    -0.255 A  
HETATM   30  C   UNL     1     -12.012  13.612  69.925  1.00  0.00    -0.415 A  
HETATM   31  C   UNL     1     -12.095  15.004  70.010  1.00  0.00    -0.382 A  
HETATM   32  C   UNL     1     -12.798  15.597  71.056  1.00  0.00    -0.521 A  
HETATM   33  C   UNL     1     -13.422  14.798  72.014  1.00  0.00    -0.478 A  
HETATM   34  C   UNL     1     -13.335  13.405  71.933  1.00  0.00    -0.539 A  
ENDBRANCH  28  29
ENDBRANCH  27  28
ENDBRANCH  24  27
ENDBRANCH  23  24
ENDBRANCH  19  22
ENDBRANCH  12  13
ENDBRANCH  11  12
ENDBRANCH   9  10
ENDBRANCH   8   9
ENDBRANCH   7   8
ENDBRANCH   5   7
ENDBRANCH   4   5
ENDBRANCH   2   4
TORSDOF 13
ENDMDL
MODEL       71
REMARK 921   NORMALIZED FREE ENERGY PREDICTED BY IDOCK:   -5.43 KCAL/MOL
REMARK 922        TOTAL FREE ENERGY PREDICTED BY IDOCK:  -12.39 KCAL/MOL
REMARK 923 INTER-LIGAND FREE ENERGY PREDICTED BY IDOCK:   -9.93 KCAL/MOL
REMARK 924 INTRA-LIGAND FREE ENERGY PREDICTED BY IDOCK:   -2.46 KCAL/MOL
REMARK 927      BINDING AFFINITY PREDICTED BY RF-SCORE:    0.00 PKD
ROOT
HETATM    1  C   UNL     1     -12.298  16.043  72.398  1.00  0.00    -0.581 C  
HETATM    2  C   UNL     1     -12.470  14.680  71.738  1.00  0.00    -0.345 C  
HETATM    3  C   UNL     1     -13.541  13.865  72.452  1.00  0.00    -0.676 C  
ENDROOT
BRANCH   2   4
HETATM    4  O   UNL     1     -12.896  14.859  70.376  1.00  0.00    -0.338 OA 
BRANCH   4   5
HETATM    5  C   UNL     1     -12.047  14.373  69.427  1.00  0.00    -0.297 C  
HETATM    6  O   UNL     1     -12.117  13.266  68.914  1.00  0.00    -0.316 OA 
BRANCH   5   7
HETATM    7  C   UNL     1     -10.969  15.383  69.134  1.00  0.00    -0.252 C  
BRANCH   7   8
HETATM    8  C   UNL     1      -9.635  14.688  68.869  1.00  0.00    -0.184 C  
BRANCH   8   9
HETATM    9  C   UNL     1      -8.928  15.325  67.675  1.00  0.00    -0.182 C  
BRANCH   9  10
HETATM   10  C   UNL     1      -9.732  16.440  67.075  1.00  0.00    -0.253 C  
HETATM   11  C   UNL     1     -10.303  16.433  65.859  1.00  0.00    -0.378 C  
BRANCH  11  12
HETATM   12  C   UNL     1     -10.249  15.311  64.857  1.00  0.00    -0.209 C  
BRANCH  12  13
HETATM   13  C   UNL     1     -11.160  14.153  65.281  1.00  0.00    -0.331 C  
HETATM   14  C   UNL     1     -12.526  14.128  64.582  1.00  0.00    -0.350 C  
HETATM   15  C   UNL     1     -13.004  12.704  64.822  1.00  0.00    -0.191 C  
HETATM   16  O   UNL     1     -12.403  14.330  63.176  1.00  0.00    -1.096 OA 
HETATM   17  C   UNL     1     -11.752  11.868  64.562  1.00  0.00    -0.248 C  
HETATM   18  H   UNL     1     -13.250  14.314  62.743  1.00  0.00     0.000 HD 
HETATM   19  C   UNL     1     -10.550  12.759  64.971  1.00  0.00    -0.330 C  
HETATM   20  O   UNL     1     -11.666  11.548  63.172  1.00  0.00    -0.854 OA 
HETATM   21  H   UNL     1     -10.888  11.028  63.011  1.00  0.00     0.000 HD 
BRANCH  19  22
HETATM   22  C   UNL     1      -9.757  12.160  66.116  1.00  0.00    -0.254 C  
HETATM   23  C   UNL     1     -10.273  11.391  67.093  1.00  0.00    -0.234 C  
BRANCH  23  24
HETATM   24  C   UNL     1      -9.466  10.693  68.161  1.00  0.00    -0.154 C  
HETATM   25  F   UNL     1     -10.154  10.695  69.336  1.00  0.00    -0.214 F  
HETATM   26  F   UNL     1      -8.317  11.387  68.383  1.00  0.00    -0.125 F  
BRANCH  24  27
HETATM   27  C   UNL     1      -9.125   9.245  67.770  1.00  0.00    -0.126 C  
BRANCH  27  28
HETATM   28  O   UNL     1      -8.371   8.601  68.808  1.00  0.00    -0.119 OA 
BRANCH  28  29
HETATM   29  C   UNL     1      -9.012   7.574  69.447  1.00  0.00    -0.139 A  
HETATM   30  C   UNL     1      -8.603   7.335  70.760  1.00  0.00    -0.144 A  
HETATM   31  C   UNL     1      -9.191   6.313  71.509  1.00  0.00    -0.149 A  
HETATM   32  C   UNL     1     -10.202   5.534  70.951  1.00  0.00    -0.293 A  
HETATM   33  C   UNL     1     -10.629   5.782  69.647  1.00  0.00    -0.396 A  
HETATM   34  C   UNL     1     -10.037   6.800  68.895  1.00  0.00    -0.170 A  
ENDBRANCH  28  29
ENDBRANCH  27  28
ENDBRANCH  24  27
ENDBRANCH  23  24
ENDBRANCH  19  22
ENDBRANCH  12  13
ENDBRANCH  11  12
ENDBRANCH   9  10
ENDBRANCH   8   9
ENDBRANCH   7   8
ENDBRANCH   5   7
ENDBRANCH   4   5
ENDBRANCH   2   4
TORSDOF 13
ENDMDL
MODEL       72
REMARK 921   NORMALIZED FREE ENERGY PREDICTED BY IDOCK:   -5.40 KCAL/MOL
REMARK 922        TOTAL FREE ENERGY PREDICTED BY IDOCK:  -12.34 KCAL/MOL
REMARK 923 INTER-LIGAND FREE ENERGY PREDICTED BY IDOCK:  -10.10 KCAL/MOL
REMARK 924 INTRA-LIGAND FREE ENERGY PREDICTED BY IDOCK:   -2.24 KCAL/MOL
REMARK 927      BINDING AFFINITY PREDICTED BY RF-SCORE:    0.00 PKD
ROOT
HETATM    1  C   UNL     1     -10.318  13.914  65.349  1.00  0.00    -0.364 C  
HETATM    2  C   UNL     1     -11.068  12.662  64.908  1.00  0.00    -0.296 C  
HETATM    3  C   UNL     1     -12.574  12.868  65.016  1.00  0.00    -0.538 C  
ENDROOT
BRANCH   2   4
HETATM    4  O   UNL     1     -10.765  12.384  63.529  1.00  0.00    -0.442 OA 
BRANCH   4   5
HETATM    5  C   UNL     1      -9.788  11.458  63.319  1.00  0.00    -0.404 C  
HETATM    6  O   UNL     1      -8.966  11.488  62.414  1.00  0.00    -0.316 OA 
BRANCH   5   7
HETATM    7  C   UNL     1      -9.894  10.355  64.339  1.00  0.00    -0.395 C  
BRANCH   7   8
HETATM    8  C   UNL     1      -8.545   9.664  64.529  1.00  0.00    -0.205 C  
BRANCH   8   9
HETATM    9  C   UNL     1      -8.639   8.600  65.620  1.00  0.00    -0.191 C  
BRANCH   9  10
HETATM   10  C   UNL     1      -9.437   9.073  66.800  1.00  0.00    -0.238 C  
HETATM   11  C   UNL     1     -10.373   8.366  67.452  1.00  0.00    -0.355 C  
BRANCH  11  12
HETATM   12  C   UNL     1     -10.812   6.961  67.131  1.00  0.00    -0.447 C  
BRANCH  12  13
HETATM   13  C   UNL     1     -10.788   6.079  68.385  1.00  0.00    -0.361 C  
HETATM   14  C   UNL     1      -9.767   4.934  68.337  1.00  0.00    -0.151 C  
HETATM   15  C   UNL     1      -9.633   4.537  69.800  1.00  0.00    -0.270 C  
HETATM   16  O   UNL     1      -8.493   5.381  67.876  1.00  0.00    -0.099 OA 
HETATM   17  C   UNL     1      -9.569   5.883  70.521  1.00  0.00    -0.172 C  
HETATM   18  H   UNL     1      -7.861   4.672  67.847  1.00  0.00     0.000 HD 
HETATM   19  C   UNL     1     -10.417   6.865  69.671  1.00  0.00    -0.240 C  
HETATM   20  O   UNL     1      -8.215   6.336  70.576  1.00  0.00    -0.114 OA 
HETATM   21  H   UNL     1      -8.175   7.172  71.025  1.00  0.00     0.000 HD 
BRANCH  19  22
HETATM   22  C   UNL     1     -11.611   7.401  70.437  1.00  0.00    -0.210 C  
HETATM   23  C   UNL     1     -11.704   8.642  70.950  1.00  0.00    -0.287 C  
BRANCH  23  24
HETATM   24  C   UNL     1     -12.939   9.217  71.602  1.00  0.00    -0.365 C  
HETATM   25  F   UNL     1     -12.886   9.017  72.948  1.00  0.00    -0.442 F  
HETATM   26  F   UNL     1     -14.037   8.549  71.155  1.00  0.00    -0.363 F  
BRANCH  24  27
HETATM   27  C   UNL     1     -13.097  10.718  71.313  1.00  0.00    -0.330 C  
BRANCH  27  28
HETATM   28  O   UNL     1     -12.169  11.144  70.304  1.00  0.00    -0.310 OA 
BRANCH  28  29
HETATM   29  C   UNL     1     -12.122  12.494  70.083  1.00  0.00    -0.292 A  
HETATM   30  C   UNL     1     -12.454  13.294  71.179  1.00  0.00    -0.397 A  
HETATM   31  C   UNL     1     -12.437  14.687  71.068  1.00  0.00    -0.399 A  
HETATM   32  C   UNL     1     -12.073  15.285  69.864  1.00  0.00    -0.375 A  
HETATM   33  C   UNL     1     -11.720  14.492  68.773  1.00  0.00    -0.362 A  
HETATM   34  C   UNL     1     -11.743  13.098  68.881  1.00  0.00    -0.368 A  
ENDBRANCH  28  29
ENDBRANCH  27  28
ENDBRANCH  24  27
ENDBRANCH  23  24
ENDBRANCH  19  22
ENDBRANCH  12  13
ENDBRANCH  11  12
ENDBRANCH   9  10
ENDBRANCH   8   9
ENDBRANCH   7   8
ENDBRANCH   5   7
ENDBRANCH   4   5
ENDBRANCH   2   4
TORSDOF 13
ENDMDL
MODEL       73
REMARK 921   NORMALIZED FREE ENERGY PREDICTED BY IDOCK:   -5.40 KCAL/MOL
REMARK 922        TOTAL FREE ENERGY PREDICTED BY IDOCK:  -12.33 KCAL/MOL
REMARK 923 INTER-LIGAND FREE ENERGY PREDICTED BY IDOCK:   -9.22 KCAL/MOL
REMARK 924 INTRA-LIGAND FREE ENERGY PREDICTED BY IDOCK:   -3.12 KCAL/MOL
REMARK 927      BINDING AFFINITY PREDICTED BY RF-SCORE:    0.00 PKD
ROOT
HETATM    1  C   UNL     1      -8.532   6.616  70.512  1.00  0.00    -0.138 C  
HETATM    2  C   UNL     1      -9.187   7.440  69.408  1.00  0.00    -0.145 C  
HETATM    3  C   UNL     1     -10.365   8.236  69.954  1.00  0.00    -0.218 C  
ENDROOT
BRANCH   2   4
HETATM    4  O   UNL     1      -8.233   8.380  68.884  1.00  0.00    -0.112 OA 
BRANCH   4   5
HETATM    5  C   UNL     1      -8.034   8.324  67.537  1.00  0.00    -0.110 C  
HETATM    6  O   UNL     1      -8.109   7.314  66.851  1.00  0.00    -0.116 OA 
BRANCH   5   7
HETATM    7  C   UNL     1      -7.655   9.684  67.014  1.00  0.00    -0.095 C  
BRANCH   7   8
HETATM    8  C   UNL     1      -8.558  10.763  67.609  1.00  0.00    -0.123 C  
BRANCH   8   9
HETATM    9  C   UNL     1      -8.043  12.152  67.242  1.00  0.00    -0.176 C  
BRANCH   9  10
HETATM   10  C   UNL     1      -7.812  13.005  68.454  1.00  0.00    -0.134 C  
HETATM   11  C   UNL     1      -7.777  14.347  68.478  1.00  0.00    -0.135 C  
BRANCH  11  12
HETATM   12  C   UNL     1      -7.962  15.264  67.298  1.00  0.00    -0.231 C  
BRANCH  12  13
HETATM   13  C   UNL     1      -9.259  16.070  67.426  1.00  0.00    -0.214 C  
HETATM   14  C   UNL     1      -9.136  17.343  68.275  1.00  0.00    -0.272 C  
HETATM   15  C   UNL     1     -10.365  18.142  67.869  1.00  0.00    -0.410 C  
HETATM   16  O   UNL     1      -7.976  18.098  67.930  1.00  0.00    -0.236 OA 
HETATM   17  C   UNL     1     -10.404  17.973  66.351  1.00  0.00    -0.379 C  
HETATM   18  H   UNL     1      -7.900  18.886  68.455  1.00  0.00     0.000 HD 
HETATM   19  C   UNL     1      -9.796  16.575  66.061  1.00  0.00    -0.348 C  
HETATM   20  O   UNL     1      -9.607  18.985  65.732  1.00  0.00    -0.417 OA 
HETATM   21  H   UNL     1      -9.632  18.879  64.788  1.00  0.00     0.000 HD 
BRANCH  19  22
HETATM   22  C   UNL     1     -10.794  15.643  65.402  1.00  0.00    -0.394 C  
HETATM   23  C   UNL     1     -10.519  14.396  64.974  1.00  0.00    -0.454 C  
BRANCH  23  24
HETATM   24  C   UNL     1     -11.539  13.423  64.434  1.00  0.00    -0.384 C  
HETATM   25  F   UNL     1     -10.909  12.395  63.802  1.00  0.00    -0.345 F  
HETATM   26  F   UNL     1     -12.302  14.045  63.495  1.00  0.00    -0.518 F  
BRANCH  24  27
HETATM   27  C   UNL     1     -12.445  12.864  65.544  1.00  0.00    -0.402 C  
BRANCH  27  28
HETATM   28  O   UNL     1     -11.687  12.075  66.472  1.00  0.00    -0.523 OA 
BRANCH  28  29
HETATM   29  C   UNL     1     -11.843  12.410  67.790  1.00  0.00    -0.298 A  
HETATM   30  C   UNL     1     -11.917  11.335  68.678  1.00  0.00    -0.314 A  
HETATM   31  C   UNL     1     -12.074  11.558  70.048  1.00  0.00    -0.408 A  
HETATM   32  C   UNL     1     -12.141  12.860  70.537  1.00  0.00    -0.364 A  
HETATM   33  C   UNL     1     -12.046  13.938  69.658  1.00  0.00    -0.404 A  
HETATM   34  C   UNL     1     -11.895  13.715  68.286  1.00  0.00    -0.404 A  
ENDBRANCH  28  29
ENDBRANCH  27  28
ENDBRANCH  24  27
ENDBRANCH  23  24
ENDBRANCH  19  22
ENDBRANCH  12  13
ENDBRANCH  11  12
ENDBRANCH   9  10
ENDBRANCH   8   9
ENDBRANCH   7   8
ENDBRANCH   5   7
ENDBRANCH   4   5
ENDBRANCH   2   4
TORSDOF 13
ENDMDL
MODEL       74
REMARK 921   NORMALIZED FREE ENERGY PREDICTED BY IDOCK:   -5.37 KCAL/MOL
REMARK 922        TOTAL FREE ENERGY PREDICTED BY IDOCK:  -12.29 KCAL/MOL
REMARK 923 INTER-LIGAND FREE ENERGY PREDICTED BY IDOCK:   -9.56 KCAL/MOL
REMARK 924 INTRA-LIGAND FREE ENERGY PREDICTED BY IDOCK:   -2.74 KCAL/MOL
REMARK 927      BINDING AFFINITY PREDICTED BY RF-SCORE:    0.00 PKD
ROOT
HETATM    1  C   UNL     1      -8.680   6.339  66.640  1.00  0.00    -0.126 C  
HETATM    2  C   UNL     1      -9.994   6.976  67.078  1.00  0.00    -0.210 C  
HETATM    3  C   UNL     1     -10.799   6.015  67.944  1.00  0.00    -0.378 C  
ENDROOT
BRANCH   2   4
HETATM    4  O   UNL     1      -9.718   8.146  67.868  1.00  0.00    -0.152 OA 
BRANCH   4   5
HETATM    5  C   UNL     1      -9.032   9.135  67.230  1.00  0.00    -0.123 C  
HETATM    6  O   UNL     1      -9.429   9.758  66.255  1.00  0.00    -0.170 OA 
BRANCH   5   7
HETATM    7  C   UNL     1      -7.682   9.322  67.870  1.00  0.00    -0.088 C  
BRANCH   7   8
HETATM    8  C   UNL     1      -7.797  10.162  69.140  1.00  0.00    -0.120 C  
BRANCH   8   9
HETATM    9  C   UNL     1      -7.133   9.447  70.315  1.00  0.00    -0.097 C  
BRANCH   9  10
HETATM   10  C   UNL     1      -7.622   8.037  70.465  1.00  0.00    -0.076 C  
HETATM   11  C   UNL     1      -8.719   7.651  71.136  1.00  0.00    -0.138 C  
BRANCH  11  12
HETATM   12  C   UNL     1      -9.676   8.552  71.871  1.00  0.00    -0.358 C  
BRANCH  12  13
HETATM   13  C   UNL     1     -11.095   8.423  71.306  1.00  0.00    -0.307 C  
HETATM   14  C   UNL     1     -11.855   7.174  71.775  1.00  0.00    -0.303 C  
HETATM   15  C   UNL     1     -13.303   7.521  71.462  1.00  0.00    -0.409 C  
HETATM   16  O   UNL     1     -11.734   6.980  73.182  1.00  0.00    -0.501 OA 
HETATM   17  C   UNL     1     -13.420   8.974  71.921  1.00  0.00    -0.425 C  
HETATM   18  H   UNL     1     -12.205   6.207  73.472  1.00  0.00     0.000 HD 
HETATM   19  C   UNL     1     -12.018   9.603  71.711  1.00  0.00    -0.421 C  
HETATM   20  O   UNL     1     -13.766   9.014  73.307  1.00  0.00    -1.072 OA 
HETATM   21  H   UNL     1     -13.839   9.918  73.592  1.00  0.00     0.000 HD 
BRANCH  19  22
HETATM   22  C   UNL     1     -12.046  10.741  70.709  1.00  0.00    -0.473 C  
HETATM   23  C   UNL     1     -11.247  10.839  69.630  1.00  0.00    -0.355 C  
BRANCH  23  24
HETATM   24  C   UNL     1     -11.358  11.905  68.567  1.00  0.00    -0.276 C  
HETATM   25  F   UNL     1     -12.259  11.521  67.620  1.00  0.00    -0.217 F  
HETATM   26  F   UNL     1     -10.162  12.036  67.932  1.00  0.00    -0.181 F  
BRANCH  24  27
HETATM   27  C   UNL     1     -11.780  13.262  69.154  1.00  0.00    -0.329 C  
BRANCH  27  28
HETATM   28  O   UNL     1     -12.506  14.033  68.185  1.00  0.00    -0.116 OA 
BRANCH  28  29
HETATM   29  C   UNL     1     -11.736  14.699  67.270  1.00  0.00    -0.385 A  
HETATM   30  C   UNL     1     -11.949  14.345  65.936  1.00  0.00    -0.367 A  
HETATM   31  C   UNL     1     -11.221  14.962  64.916  1.00  0.00    -0.415 A  
HETATM   32  C   UNL     1     -10.287  15.948  65.226  1.00  0.00    -0.354 A  
HETATM   33  C   UNL     1     -10.085  16.320  66.554  1.00  0.00    -0.301 A  
HETATM   34  C   UNL     1     -10.809  15.699  67.576  1.00  0.00    -0.316 A  
ENDBRANCH  28  29
ENDBRANCH  27  28
ENDBRANCH  24  27
ENDBRANCH  23  24
ENDBRANCH  19  22
ENDBRANCH  12  13
ENDBRANCH  11  12
ENDBRANCH   9  10
ENDBRANCH   8   9
ENDBRANCH   7   8
ENDBRANCH   5   7
ENDBRANCH   4   5
ENDBRANCH   2   4
TORSDOF 13
ENDMDL
MODEL       75
REMARK 921   NORMALIZED FREE ENERGY PREDICTED BY IDOCK:   -5.37 KCAL/MOL
REMARK 922        TOTAL FREE ENERGY PREDICTED BY IDOCK:  -12.29 KCAL/MOL
REMARK 923 INTER-LIGAND FREE ENERGY PREDICTED BY IDOCK:  -10.32 KCAL/MOL
REMARK 924 INTRA-LIGAND FREE ENERGY PREDICTED BY IDOCK:   -1.97 KCAL/MOL
REMARK 927      BINDING AFFINITY PREDICTED BY RF-SCORE:    0.00 PKD
ROOT
HETATM    1  C   UNL     1     -14.294  14.143  72.062  1.00  0.00    -0.599 C  
HETATM    2  C   UNL     1     -13.219  15.205  71.858  1.00  0.00    -0.384 C  
HETATM    3  C   UNL     1     -12.735  15.748  73.196  1.00  0.00    -0.618 C  
ENDROOT
BRANCH   2   4
HETATM    4  O   UNL     1     -12.087  14.616  71.192  1.00  0.00    -0.309 OA 
BRANCH   4   5
HETATM    5  C   UNL     1     -11.577  15.338  70.155  1.00  0.00    -0.299 C  
HETATM    6  O   UNL     1     -11.020  16.422  70.252  1.00  0.00    -0.343 OA 
BRANCH   5   7
HETATM    7  C   UNL     1     -11.844  14.631  68.853  1.00  0.00    -0.344 C  
BRANCH   7   8
HETATM    8  C   UNL     1     -11.564  15.553  67.669  1.00  0.00    -0.147 C  
BRANCH   8   9
HETATM    9  C   UNL     1     -11.447  14.746  66.378  1.00  0.00    -0.319 C  
BRANCH   9  10
HETATM   10  C   UNL     1     -12.245  13.477  66.435  1.00  0.00    -0.454 C  
HETATM   11  C   UNL     1     -11.750  12.232  66.349  1.00  0.00    -0.431 C  
BRANCH  11  12
HETATM   12  C   UNL     1     -10.301  11.859  66.179  1.00  0.00    -0.261 C  
BRANCH  12  13
HETATM   13  C   UNL     1     -10.135  10.775  65.107  1.00  0.00    -0.363 C  
HETATM   14  C   UNL     1     -10.137  11.300  63.665  1.00  0.00    -0.382 C  
HETATM   15  C   UNL     1      -9.522  10.148  62.884  1.00  0.00    -0.288 C  
HETATM   16  O   UNL     1      -9.295  12.442  63.518  1.00  0.00    -0.589 OA 
HETATM   17  C   UNL     1      -8.356   9.710  63.770  1.00  0.00    -0.173 C  
HETATM   18  H   UNL     1      -9.296  12.766  62.625  1.00  0.00     0.000 HD 
HETATM   19  C   UNL     1      -8.794  10.003  65.229  1.00  0.00    -0.205 C  
HETATM   20  O   UNL     1      -7.194  10.477  63.451  1.00  0.00    -0.305 OA 
HETATM   21  H   UNL     1      -6.469  10.204  64.001  1.00  0.00     0.000 HD 
BRANCH  19  22
HETATM   22  C   UNL     1      -8.878   8.741  66.066  1.00  0.00    -0.210 C  
HETATM   23  C   UNL     1      -8.584   8.664  67.377  1.00  0.00    -0.134 C  
BRANCH  23  24
HETATM   24  C   UNL     1      -8.786   7.440  68.237  1.00  0.00    -0.122 C  
HETATM   25  F   UNL     1      -7.642   7.161  68.921  1.00  0.00    -0.090 F  
HETATM   26  F   UNL     1      -9.032   6.365  67.441  1.00  0.00    -0.113 F  
BRANCH  24  27
HETATM   27  C   UNL     1      -9.945   7.619  69.231  1.00  0.00    -0.180 C  
BRANCH  27  28
HETATM   28  O   UNL     1     -10.201   9.011  69.470  1.00  0.00    -0.191 OA 
BRANCH  28  29
HETATM   29  C   UNL     1     -11.242   9.279  70.318  1.00  0.00    -0.231 A  
HETATM   30  C   UNL     1     -11.695   8.196  71.074  1.00  0.00    -0.295 A  
HETATM   31  C   UNL     1     -12.751   8.354  71.974  1.00  0.00    -0.399 A  
HETATM   32  C   UNL     1     -13.350   9.601  72.133  1.00  0.00    -0.545 A  
HETATM   33  C   UNL     1     -12.888  10.691  71.396  1.00  0.00    -0.556 A  
HETATM   34  C   UNL     1     -11.835  10.532  70.490  1.00  0.00    -0.442 A  
ENDBRANCH  28  29
ENDBRANCH  27  28
ENDBRANCH  24  27
ENDBRANCH  23  24
ENDBRANCH  19  22
ENDBRANCH  12  13
ENDBRANCH  11  12
ENDBRANCH   9  10
ENDBRANCH   8   9
ENDBRANCH   7   8
ENDBRANCH   5   7
ENDBRANCH   4   5
ENDBRANCH   2   4
TORSDOF 13
ENDMDL
MODEL       76
REMARK 921   NORMALIZED FREE ENERGY PREDICTED BY IDOCK:   -5.37 KCAL/MOL
REMARK 922        TOTAL FREE ENERGY PREDICTED BY IDOCK:  -12.28 KCAL/MOL
REMARK 923 INTER-LIGAND FREE ENERGY PREDICTED BY IDOCK:  -10.00 KCAL/MOL
REMARK 924 INTRA-LIGAND FREE ENERGY PREDICTED BY IDOCK:   -2.28 KCAL/MOL
REMARK 927      BINDING AFFINITY PREDICTED BY RF-SCORE:    0.00 PKD
ROOT
HETATM    1  C   UNL     1     -12.753  11.602  63.366  1.00  0.00    -0.250 C  
HETATM    2  C   UNL     1     -11.523  12.259  63.982  1.00  0.00    -0.409 C  
HETATM    3  C   UNL     1     -10.257  11.828  63.252  1.00  0.00    -0.452 C  
ENDROOT
BRANCH   2   4
HETATM    4  O   UNL     1     -11.631  13.688  63.857  1.00  0.00    -0.356 OA 
BRANCH   4   5
HETATM    5  C   UNL     1     -12.150  14.333  64.939  1.00  0.00    -0.435 C  
HETATM    6  O   UNL     1     -13.318  14.290  65.298  1.00  0.00    -0.660 OA 
BRANCH   5   7
HETATM    7  C   UNL     1     -11.082  15.156  65.611  1.00  0.00    -0.334 C  
BRANCH   7   8
HETATM    8  C   UNL     1     -10.921  16.505  64.913  1.00  0.00    -0.223 C  
BRANCH   8   9
HETATM    9  C   UNL     1     -10.577  17.593  65.927  1.00  0.00    -0.203 C  
BRANCH   9  10
HETATM   10  C   UNL     1     -10.909  17.179  67.331  1.00  0.00    -0.164 C  
HETATM   11  C   UNL     1     -10.307  17.623  68.446  1.00  0.00    -0.375 C  
BRANCH  11  12
HETATM   12  C   UNL     1      -9.181  18.621  68.513  1.00  0.00    -0.377 C  
BRANCH  12  13
HETATM   13  C   UNL     1      -7.863  17.993  68.046  1.00  0.00    -0.257 C  
HETATM   14  C   UNL     1      -6.634  18.898  68.210  1.00  0.00    -0.235 C  
HETATM   15  C   UNL     1      -5.475  17.916  68.117  1.00  0.00    -0.151 C  
HETATM   16  O   UNL     1      -6.599  19.512  69.497  1.00  0.00    -0.317 OA 
HETATM   17  C   UNL     1      -5.949  16.737  68.965  1.00  0.00    -0.163 C  
HETATM   18  H   UNL     1      -5.837  20.072  69.599  1.00  0.00     0.000 HD 
HETATM   19  C   UNL     1      -7.494  16.705  68.829  1.00  0.00    -0.224 C  
HETATM   20  O   UNL     1      -5.588  16.950  70.331  1.00  0.00    -0.217 OA 
HETATM   21  H   UNL     1      -5.883  16.216  70.858  1.00  0.00     0.000 HD 
BRANCH  19  22
HETATM   22  C   UNL     1      -7.986  15.424  68.184  1.00  0.00    -0.132 C  
HETATM   23  C   UNL     1      -8.572  14.406  68.840  1.00  0.00    -0.064 C  
BRANCH  23  24
HETATM   24  C   UNL     1      -9.173  13.187  68.183  1.00  0.00    -0.215 C  
HETATM   25  F   UNL     1      -8.483  12.073  68.555  1.00  0.00    -0.152 F  
HETATM   26  F   UNL     1      -9.041  13.291  66.833  1.00  0.00    -0.212 F  
BRANCH  24  27
HETATM   27  C   UNL     1     -10.658  13.012  68.542  1.00  0.00    -0.258 C  
BRANCH  27  28
HETATM   28  O   UNL     1     -11.224  14.253  68.988  1.00  0.00    -0.243 OA 
BRANCH  28  29
HETATM   29  C   UNL     1     -12.046  14.164  70.079  1.00  0.00    -0.346 A  
HETATM   30  C   UNL     1     -12.585  15.373  70.525  1.00  0.00    -0.471 A  
HETATM   31  C   UNL     1     -13.440  15.401  71.629  1.00  0.00    -0.593 A  
HETATM   32  C   UNL     1     -13.771  14.217  72.284  1.00  0.00    -0.592 A  
HETATM   33  C   UNL     1     -13.253  13.005  71.830  1.00  0.00    -0.527 A  
HETATM   34  C   UNL     1     -12.393  12.976  70.729  1.00  0.00    -0.394 A  
ENDBRANCH  28  29
ENDBRANCH  27  28
ENDBRANCH  24  27
ENDBRANCH  23  24
ENDBRANCH  19  22
ENDBRANCH  12  13
ENDBRANCH  11  12
ENDBRANCH   9  10
ENDBRANCH   8   9
ENDBRANCH   7   8
ENDBRANCH   5   7
ENDBRANCH   4   5
ENDBRANCH   2   4
TORSDOF 13
ENDMDL
MODEL       77
REMARK 921   NORMALIZED FREE ENERGY PREDICTED BY IDOCK:   -5.37 KCAL/MOL
REMARK 922        TOTAL FREE ENERGY PREDICTED BY IDOCK:  -12.28 KCAL/MOL
REMARK 923 INTER-LIGAND FREE ENERGY PREDICTED BY IDOCK:  -10.17 KCAL/MOL
REMARK 924 INTRA-LIGAND FREE ENERGY PREDICTED BY IDOCK:   -2.11 KCAL/MOL
REMARK 927      BINDING AFFINITY PREDICTED BY RF-SCORE:    0.00 PKD
ROOT
HETATM    1  C   UNL     1     -10.551   8.699  71.976  1.00  0.00    -0.421 C  
HETATM    2  C   UNL     1     -12.049   8.432  72.081  1.00  0.00    -0.373 C  
HETATM    3  C   UNL     1     -12.846   9.689  71.753  1.00  0.00    -0.514 C  
ENDROOT
BRANCH   2   4
HETATM    4  O   UNL     1     -12.422   7.420  71.129  1.00  0.00    -0.336 OA 
BRANCH   4   5
HETATM    5  C   UNL     1     -11.449   6.517  70.824  1.00  0.00    -0.360 C  
HETATM    6  O   UNL     1     -10.861   5.809  71.629  1.00  0.00    -0.248 OA 
BRANCH   5   7
HETATM    7  C   UNL     1     -11.160   6.548  69.346  1.00  0.00    -0.407 C  
BRANCH   7   8
HETATM    8  C   UNL     1      -9.673   6.782  69.091  1.00  0.00    -0.147 C  
BRANCH   8   9
HETATM    9  C   UNL     1      -9.459   8.094  68.339  1.00  0.00    -0.146 C  
BRANCH   9  10
HETATM   10  C   UNL     1     -10.747   8.832  68.118  1.00  0.00    -0.131 C  
HETATM   11  C   UNL     1     -10.930   9.863  67.278  1.00  0.00    -0.187 C  
BRANCH  11  12
HETATM   12  C   UNL     1      -9.883  10.486  66.391  1.00  0.00    -0.260 C  
BRANCH  12  13
HETATM   13  C   UNL     1     -10.187  11.967  66.141  1.00  0.00    -0.258 C  
HETATM   14  C   UNL     1     -10.307  12.350  64.660  1.00  0.00    -0.307 C  
HETATM   15  C   UNL     1     -11.033  13.686  64.713  1.00  0.00    -0.384 C  
HETATM   16  O   UNL     1     -11.121  11.426  63.940  1.00  0.00    -0.384 OA 
HETATM   17  C   UNL     1     -12.121  13.450  65.759  1.00  0.00    -0.436 C  
HETATM   18  H   UNL     1     -11.195  11.664  63.023  1.00  0.00     0.000 HD 
HETATM   19  C   UNL     1     -11.535  12.421  66.761  1.00  0.00    -0.423 C  
HETATM   20  O   UNL     1     -13.283  12.905  65.131  1.00  0.00    -0.702 OA 
HETATM   21  H   UNL     1     -13.960  12.758  65.781  1.00  0.00     0.000 HD 
BRANCH  19  22
HETATM   22  C   UNL     1     -11.413  12.992  68.161  1.00  0.00    -0.356 C  
HETATM   23  C   UNL     1     -12.177  13.983  68.660  1.00  0.00    -0.218 C  
BRANCH  23  24
HETATM   24  C   UNL     1     -12.140  14.465  70.090  1.00  0.00    -0.335 C  
HETATM   25  F   UNL     1     -12.300  13.412  70.937  1.00  0.00    -0.399 F  
HETATM   26  F   UNL     1     -13.191  15.302  70.310  1.00  0.00    -0.325 F  
BRANCH  24  27
HETATM   27  C   UNL     1     -10.826  15.192  70.419  1.00  0.00    -0.218 C  
BRANCH  27  28
HETATM   28  O   UNL     1     -10.704  16.398  69.650  1.00  0.00    -0.311 OA 
BRANCH  28  29
HETATM   29  C   UNL     1      -9.988  16.283  68.489  1.00  0.00    -0.234 A  
HETATM   30  C   UNL     1     -10.504  16.980  67.394  1.00  0.00    -0.322 A  
HETATM   31  C   UNL     1      -9.854  16.936  66.158  1.00  0.00    -0.318 A  
HETATM   32  C   UNL     1      -8.676  16.207  66.017  1.00  0.00    -0.282 A  
HETATM   33  C   UNL     1      -8.145  15.526  67.112  1.00  0.00    -0.249 A  
HETATM   34  C   UNL     1      -8.798  15.564  68.347  1.00  0.00    -0.183 A  
ENDBRANCH  28  29
ENDBRANCH  27  28
ENDBRANCH  24  27
ENDBRANCH  23  24
ENDBRANCH  19  22
ENDBRANCH  12  13
ENDBRANCH  11  12
ENDBRANCH   9  10
ENDBRANCH   8   9
ENDBRANCH   7   8
ENDBRANCH   5   7
ENDBRANCH   4   5
ENDBRANCH   2   4
TORSDOF 13
ENDMDL
MODEL       78
REMARK 921   NORMALIZED FREE ENERGY PREDICTED BY IDOCK:   -5.34 KCAL/MOL
REMARK 922        TOTAL FREE ENERGY PREDICTED BY IDOCK:  -12.24 KCAL/MOL
REMARK 923 INTER-LIGAND FREE ENERGY PREDICTED BY IDOCK:   -9.83 KCAL/MOL
REMARK 924 INTRA-LIGAND FREE ENERGY PREDICTED BY IDOCK:   -2.41 KCAL/MOL
REMARK 927      BINDING AFFINITY PREDICTED BY RF-SCORE:    0.00 PKD
ROOT
HETATM    1  C   UNL     1     -10.506  17.239  68.888  1.00  0.00    -0.327 C  
HETATM    2  C   UNL     1      -9.651  17.618  67.683  1.00  0.00    -0.268 C  
HETATM    3  C   UNL     1     -10.482  18.358  66.642  1.00  0.00    -0.415 C  
ENDROOT
BRANCH   2   4
HETATM    4  O   UNL     1      -8.596  18.500  68.104  1.00  0.00    -0.286 OA 
BRANCH   4   5
HETATM    5  C   UNL     1      -7.561  18.636  67.228  1.00  0.00    -0.226 C  
HETATM    6  O   UNL     1      -7.091  19.698  66.845  1.00  0.00    -0.208 OA 
BRANCH   5   7
HETATM    7  C   UNL     1      -7.105  17.281  66.754  1.00  0.00    -0.248 C  
BRANCH   7   8
HETATM    8  C   UNL     1      -6.214  16.614  67.799  1.00  0.00    -0.159 C  
BRANCH   8   9
HETATM    9  C   UNL     1      -6.358  15.096  67.734  1.00  0.00    -0.181 C  
BRANCH   9  10
HETATM   10  C   UNL     1      -7.464  14.597  68.616  1.00  0.00    -0.125 C  
HETATM   11  C   UNL     1      -8.658  14.143  68.202  1.00  0.00    -0.175 C  
BRANCH  11  12
HETATM   12  C   UNL     1      -9.127  14.044  66.774  1.00  0.00    -0.250 C  
BRANCH  12  13
HETATM   13  C   UNL     1     -10.650  13.887  66.706  1.00  0.00    -0.277 C  
HETATM   14  C   UNL     1     -11.332  14.754  65.639  1.00  0.00    -0.343 C  
HETATM   15  C   UNL     1     -12.692  14.091  65.481  1.00  0.00    -0.517 C  
HETATM   16  O   UNL     1     -10.651  14.686  64.388  1.00  0.00    -0.574 OA 
HETATM   17  C   UNL     1     -12.353  12.601  65.468  1.00  0.00    -0.391 C  
HETATM   18  H   UNL     1     -11.074  15.222  63.728  1.00  0.00     0.000 HD 
HETATM   19  C   UNL     1     -11.094  12.441  66.360  1.00  0.00    -0.343 C  
HETATM   20  O   UNL     1     -12.055  12.187  64.133  1.00  0.00    -0.400 OA 
HETATM   21  H   UNL     1     -11.845  11.260  64.125  1.00  0.00     0.000 HD 
BRANCH  19  22
HETATM   22  C   UNL     1     -11.358  11.566  67.570  1.00  0.00    -0.366 C  
HETATM   23  C   UNL     1     -11.619  12.023  68.810  1.00  0.00    -0.366 C  
BRANCH  23  24
HETATM   24  C   UNL     1     -12.005  11.158  69.986  1.00  0.00    -0.367 C  
HETATM   25  F   UNL     1     -13.153  10.482  69.705  1.00  0.00    -0.239 F  
HETATM   26  F   UNL     1     -12.274  11.950  71.059  1.00  0.00    -0.438 F  
BRANCH  24  27
HETATM   27  C   UNL     1     -10.897  10.156  70.351  1.00  0.00    -0.301 C  
BRANCH  27  28
HETATM   28  O   UNL     1     -11.289   9.348  71.471  1.00  0.00    -0.354 OA 
BRANCH  28  29
HETATM   29  C   UNL     1     -11.082   8.003  71.324  1.00  0.00    -0.247 A  
HETATM   30  C   UNL     1     -11.063   7.538  70.008  1.00  0.00    -0.219 A  
HETATM   31  C   UNL     1     -10.857   6.183  69.739  1.00  0.00    -0.421 A  
HETATM   32  C   UNL     1     -10.655   5.289  70.788  1.00  0.00    -0.256 A  
HETATM   33  C   UNL     1     -10.652   5.750  72.104  1.00  0.00    -0.268 A  
HETATM   34  C   UNL     1     -10.864   7.105  72.373  1.00  0.00    -0.280 A  
ENDBRANCH  28  29
ENDBRANCH  27  28
ENDBRANCH  24  27
ENDBRANCH  23  24
ENDBRANCH  19  22
ENDBRANCH  12  13
ENDBRANCH  11  12
ENDBRANCH   9  10
ENDBRANCH   8   9
ENDBRANCH   7   8
ENDBRANCH   5   7
ENDBRANCH   4   5
ENDBRANCH   2   4
TORSDOF 13
ENDMDL
MODEL       79
REMARK 921   NORMALIZED FREE ENERGY PREDICTED BY IDOCK:   -5.32 KCAL/MOL
REMARK 922        TOTAL FREE ENERGY PREDICTED BY IDOCK:  -12.20 KCAL/MOL
REMARK 923 INTER-LIGAND FREE ENERGY PREDICTED BY IDOCK:   -9.22 KCAL/MOL
REMARK 924 INTRA-LIGAND FREE ENERGY PREDICTED BY IDOCK:   -2.99 KCAL/MOL
REMARK 927      BINDING AFFINITY PREDICTED BY RF-SCORE:    0.00 PKD
ROOT
HETATM    1  C   UNL     1     -11.172  15.714  64.803  1.00  0.00    -0.391 C  
HETATM    2  C   UNL     1     -11.420  14.236  65.086  1.00  0.00    -0.351 C  
HETATM    3  C   UNL     1     -12.103  14.052  66.436  1.00  0.00    -0.483 C  
ENDROOT
BRANCH   2   4
HETATM    4  O   UNL     1     -12.295  13.697  64.080  1.00  0.00    -0.617 OA 
BRANCH   4   5
HETATM    5  C   UNL     1     -11.980  12.447  63.638  1.00  0.00    -0.539 C  
HETATM    6  O   UNL     1     -12.779  11.618  63.227  1.00  0.00    -0.488 OA 
BRANCH   5   7
HETATM    7  C   UNL     1     -10.500  12.208  63.777  1.00  0.00    -0.470 C  
BRANCH   7   8
HETATM    8  C   UNL     1     -10.166  10.736  63.546  1.00  0.00    -0.315 C  
BRANCH   8   9
HETATM    9  C   UNL     1      -9.852  10.045  64.871  1.00  0.00    -0.352 C  
BRANCH   9  10
HETATM   10  C   UNL     1      -9.657  11.030  65.987  1.00  0.00    -0.249 C  
HETATM   11  C   UNL     1      -9.992  10.838  67.273  1.00  0.00    -0.219 C  
BRANCH  11  12
HETATM   12  C   UNL     1     -10.628   9.603  67.854  1.00  0.00    -0.308 C  
BRANCH  12  13
HETATM   13  C   UNL     1     -10.731   9.704  69.380  1.00  0.00    -0.248 C  
HETATM   14  C   UNL     1     -11.630  10.842  69.882  1.00  0.00    -0.331 C  
HETATM   15  C   UNL     1     -11.911  10.442  71.322  1.00  0.00    -0.425 C  
HETATM   16  O   UNL     1     -12.870  10.886  69.178  1.00  0.00    -0.517 OA 
HETATM   17  C   UNL     1     -12.188   8.942  71.219  1.00  0.00    -0.299 C  
HETATM   18  H   UNL     1     -13.426  11.590  69.490  1.00  0.00     0.000 HD 
HETATM   19  C   UNL     1     -11.332   8.430  70.032  1.00  0.00    -0.003 C  
HETATM   20  O   UNL     1     -13.574   8.726  70.945  1.00  0.00    -0.533 OA 
HETATM   21  H   UNL     1     -13.746   7.794  70.881  1.00  0.00     0.000 HD 
BRANCH  19  22
HETATM   22  C   UNL     1     -10.298   7.411  70.470  1.00  0.00    -0.220 C  
HETATM   23  C   UNL     1     -10.574   6.256  71.104  1.00  0.00    -0.289 C  
BRANCH  23  24
HETATM   24  C   UNL     1      -9.560   5.185  71.428  1.00  0.00    -0.161 C  
HETATM   25  F   UNL     1      -9.802   4.680  72.670  1.00  0.00    -0.158 F  
HETATM   26  F   UNL     1      -8.318   5.738  71.471  1.00  0.00    -0.119 F  
BRANCH  24  27
HETATM   27  C   UNL     1      -9.580   4.043  70.399  1.00  0.00    -0.195 C  
BRANCH  27  28
HETATM   28  O   UNL     1      -8.482   4.163  69.483  1.00  0.00    -0.067 OA 
BRANCH  28  29
HETATM   29  C   UNL     1      -8.702   4.980  68.406  1.00  0.00    -0.101 A  
HETATM   30  C   UNL     1      -9.823   4.667  67.635  1.00  0.00    -0.194 A  
HETATM   31  C   UNL     1     -10.147   5.434  66.514  1.00  0.00    -0.250 A  
HETATM   32  C   UNL     1      -9.358   6.529  66.168  1.00  0.00    -0.101 A  
HETATM   33  C   UNL     1      -8.249   6.859  66.947  1.00  0.00    -0.113 A  
HETATM   34  C   UNL     1      -7.922   6.088  68.066  1.00  0.00    -0.109 A  
ENDBRANCH  28  29
ENDBRANCH  27  28
ENDBRANCH  24  27
ENDBRANCH  23  24
ENDBRANCH  19  22
ENDBRANCH  12  13
ENDBRANCH  11  12
ENDBRANCH   9  10
ENDBRANCH   8   9
ENDBRANCH   7   8
ENDBRANCH   5   7
ENDBRANCH   4   5
ENDBRANCH   2   4
TORSDOF 13
ENDMDL
MODEL       80
REMARK 921   NORMALIZED FREE ENERGY PREDICTED BY IDOCK:   -5.29 KCAL/MOL
REMARK 922        TOTAL FREE ENERGY PREDICTED BY IDOCK:  -12.15 KCAL/MOL
REMARK 923 INTER-LIGAND FREE ENERGY PREDICTED BY IDOCK:   -9.99 KCAL/MOL
REMARK 924 INTRA-LIGAND FREE ENERGY PREDICTED BY IDOCK:   -2.16 KCAL/MOL
REMARK 927      BINDING AFFINITY PREDICTED BY RF-SCORE:    0.00 PKD
ROOT
HETATM    1  C   UNL     1     -11.708   9.048  71.447  1.00  0.00    -0.392 C  
HETATM    2  C   UNL     1     -10.771   7.980  72.002  1.00  0.00    -0.258 C  
HETATM    3  C   UNL     1     -11.514   6.666  72.211  1.00  0.00    -0.319 C  
ENDROOT
BRANCH   2   4
HETATM    4  O   UNL     1      -9.713   7.735  71.058  1.00  0.00    -0.163 OA 
BRANCH   4   5
HETATM    5  C   UNL     1      -8.738   8.685  71.013  1.00  0.00    -0.186 C  
HETATM    6  O   UNL     1      -8.312   9.310  71.974  1.00  0.00    -0.238 OA 
BRANCH   5   7
HETATM    7  C   UNL     1      -8.287   8.895  69.591  1.00  0.00    -0.123 C  
BRANCH   7   8
HETATM    8  C   UNL     1      -9.435   9.424  68.733  1.00  0.00    -0.150 C  
BRANCH   8   9
HETATM    9  C   UNL     1      -9.545  10.941  68.863  1.00  0.00    -0.192 C  
BRANCH   9  10
HETATM   10  C   UNL     1      -8.465  11.651  68.101  1.00  0.00    -0.156 C  
HETATM   11  C   UNL     1      -8.424  11.824  66.771  1.00  0.00    -0.177 C  
BRANCH  11  12
HETATM   12  C   UNL     1      -9.449  11.343  65.778  1.00  0.00    -0.256 C  
BRANCH  12  13
HETATM   13  C   UNL     1     -10.240  12.518  65.192  1.00  0.00    -0.299 C  
HETATM   14  C   UNL     1     -10.566  12.385  63.699  1.00  0.00    -0.445 C  
HETATM   15  C   UNL     1     -11.688  13.393  63.505  1.00  0.00    -0.301 C  
HETATM   16  O   UNL     1     -11.067  11.089  63.381  1.00  0.00    -0.668 OA 
HETATM   17  C   UNL     1     -12.575  13.167  64.729  1.00  0.00    -0.364 C  
HETATM   18  H   UNL     1     -11.269  11.007  62.456  1.00  0.00     0.000 HD 
HETATM   19  C   UNL     1     -11.624  12.712  65.867  1.00  0.00    -0.443 C  
HETATM   20  O   UNL     1     -13.525  12.136  64.451  1.00  0.00    -0.675 OA 
HETATM   21  H   UNL     1     -14.076  11.996  65.212  1.00  0.00     0.000 HD 
BRANCH  19  22
HETATM   22  C   UNL     1     -11.618  13.685  67.030  1.00  0.00    -0.389 C  
HETATM   23  C   UNL     1     -10.669  14.613  67.254  1.00  0.00    -0.290 C  
BRANCH  23  24
HETATM   24  C   UNL     1     -10.725  15.662  68.338  1.00  0.00    -0.271 C  
HETATM   25  F   UNL     1      -9.816  15.373  69.310  1.00  0.00    -0.201 F  
HETATM   26  F   UNL     1     -11.949  15.632  68.932  1.00  0.00    -0.359 F  
BRANCH  24  27
HETATM   27  C   UNL     1     -10.455  17.073  67.789  1.00  0.00    -0.349 C  
BRANCH  27  28
HETATM   28  O   UNL     1      -9.812  17.890  68.777  1.00  0.00    -0.344 OA 
BRANCH  28  29
HETATM   29  C   UNL     1      -8.845  18.734  68.301  1.00  0.00    -0.333 A  
HETATM   30  C   UNL     1      -9.158  19.397  67.112  1.00  0.00    -0.359 A  
HETATM   31  C   UNL     1      -8.246  20.284  66.536  1.00  0.00    -0.260 A  
HETATM   32  C   UNL     1      -7.022  20.525  67.156  1.00  0.00    -0.343 A  
HETATM   33  C   UNL     1      -6.713  19.883  68.354  1.00  0.00    -0.332 A  
HETATM   34  C   UNL     1      -7.622  18.990  68.928  1.00  0.00    -0.355 A  
ENDBRANCH  28  29
ENDBRANCH  27  28
ENDBRANCH  24  27
ENDBRANCH  23  24
ENDBRANCH  19  22
ENDBRANCH  12  13
ENDBRANCH  11  12
ENDBRANCH   9  10
ENDBRANCH   8   9
ENDBRANCH   7   8
ENDBRANCH   5   7
ENDBRANCH   4   5
ENDBRANCH   2   4
TORSDOF 13
ENDMDL
MODEL       81
REMARK 921   NORMALIZED FREE ENERGY PREDICTED BY IDOCK:   -5.26 KCAL/MOL
REMARK 922        TOTAL FREE ENERGY PREDICTED BY IDOCK:  -12.09 KCAL/MOL
REMARK 923 INTER-LIGAND FREE ENERGY PREDICTED BY IDOCK:  -10.53 KCAL/MOL
REMARK 924 INTRA-LIGAND FREE ENERGY PREDICTED BY IDOCK:   -1.55 KCAL/MOL
REMARK 927      BINDING AFFINITY PREDICTED BY RF-SCORE:    0.00 PKD
ROOT
HETATM    1  C   UNL     1     -13.288  13.371  72.138  1.00  0.00    -0.613 C  
HETATM    2  C   UNL     1     -13.914  14.724  71.815  1.00  0.00    -0.477 C  
HETATM    3  C   UNL     1     -13.417  15.793  72.780  1.00  0.00    -0.659 C  
ENDROOT
BRANCH   2   4
HETATM    4  O   UNL     1     -13.531  15.123  70.488  1.00  0.00    -0.239 OA 
BRANCH   4   5
HETATM    5  C   UNL     1     -12.232  14.880  70.155  1.00  0.00    -0.336 C  
HETATM    6  O   UNL     1     -11.264  15.492  70.583  1.00  0.00    -0.294 OA 
BRANCH   5   7
HETATM    7  C   UNL     1     -12.158  13.773  69.137  1.00  0.00    -0.374 C  
BRANCH   7   8
HETATM    8  C   UNL     1     -12.055  14.344  67.724  1.00  0.00    -0.304 C  
BRANCH   8   9
HETATM    9  C   UNL     1     -11.497  13.296  66.764  1.00  0.00    -0.387 C  
BRANCH   9  10
HETATM   10  C   UNL     1     -12.403  13.071  65.589  1.00  0.00    -0.504 C  
HETATM   11  C   UNL     1     -12.012  12.773  64.339  1.00  0.00    -0.464 C  
BRANCH  11  12
HETATM   12  C   UNL     1     -10.592  12.605  63.866  1.00  0.00    -0.460 C  
BRANCH  12  13
HETATM   13  C   UNL     1     -10.208  11.122  63.798  1.00  0.00    -0.434 C  
HETATM   14  C   UNL     1      -9.378  10.736  62.567  1.00  0.00    -0.278 C  
HETATM   15  C   UNL     1      -8.775   9.399  62.970  1.00  0.00    -0.225 C  
HETATM   16  O   UNL     1      -8.314  11.657  62.338  1.00  0.00    -0.636 OA 
HETATM   17  C   UNL     1      -8.339   9.635  64.415  1.00  0.00    -0.168 C  
HETATM   18  H   UNL     1      -7.799  11.417  61.575  1.00  0.00     0.000 HD 
HETATM   19  C   UNL     1      -9.339  10.666  65.000  1.00  0.00    -0.259 C  
HETATM   20  O   UNL     1      -7.017  10.177  64.437  1.00  0.00    -0.130 OA 
HETATM   21  H   UNL     1      -6.746  10.323  65.336  1.00  0.00     0.000 HD 
BRANCH  19  22
HETATM   22  C   UNL     1     -10.134  10.099  66.161  1.00  0.00    -0.314 C  
HETATM   23  C   UNL     1      -9.781  10.193  67.457  1.00  0.00    -0.190 C  
BRANCH  23  24
HETATM   24  C   UNL     1     -10.632   9.739  68.618  1.00  0.00    -0.221 C  
HETATM   25  F   UNL     1     -11.022   8.448  68.429  1.00  0.00    -0.153 F  
HETATM   26  F   UNL     1     -11.769  10.484  68.663  1.00  0.00    -0.324 F  
BRANCH  24  27
HETATM   27  C   UNL     1      -9.886   9.857  69.958  1.00  0.00    -0.243 C  
BRANCH  27  28
HETATM   28  O   UNL     1     -10.650   9.266  71.020  1.00  0.00    -0.263 OA 
BRANCH  28  29
HETATM   29  C   UNL     1      -9.924   8.564  71.944  1.00  0.00    -0.294 A  
HETATM   30  C   UNL     1      -8.543   8.545  71.735  1.00  0.00    -0.254 A  
HETATM   31  C   UNL     1      -7.703   7.861  72.617  1.00  0.00    -0.145 A  
HETATM   32  C   UNL     1      -8.241   7.205  73.721  1.00  0.00    -0.157 A  
HETATM   33  C   UNL     1      -9.617   7.237  73.947  1.00  0.00    -0.322 A  
HETATM   34  C   UNL     1     -10.458   7.917  73.061  1.00  0.00    -0.410 A  
ENDBRANCH  28  29
ENDBRANCH  27  28
ENDBRANCH  24  27
ENDBRANCH  23  24
ENDBRANCH  19  22
ENDBRANCH  12  13
ENDBRANCH  11  12
ENDBRANCH   9  10
ENDBRANCH   8   9
ENDBRANCH   7   8
ENDBRANCH   5   7
ENDBRANCH   4   5
ENDBRANCH   2   4
TORSDOF 13
ENDMDL
MODEL       82
REMARK 921   NORMALIZED FREE ENERGY PREDICTED BY IDOCK:   -5.25 KCAL/MOL
REMARK 922        TOTAL FREE ENERGY PREDICTED BY IDOCK:  -12.08 KCAL/MOL
REMARK 923 INTER-LIGAND FREE ENERGY PREDICTED BY IDOCK:   -9.14 KCAL/MOL
REMARK 924 INTRA-LIGAND FREE ENERGY PREDICTED BY IDOCK:   -2.95 KCAL/MOL
REMARK 927      BINDING AFFINITY PREDICTED BY RF-SCORE:    0.00 PKD
ROOT
HETATM    1  C   UNL     1     -11.716   9.307  71.617  1.00  0.00    -0.462 C  
HETATM    2  C   UNL     1     -12.678   8.218  72.080  1.00  0.00    -0.342 C  
HETATM    3  C   UNL     1     -14.123   8.682  71.947  1.00  0.00    -0.512 C  
ENDROOT
BRANCH   2   4
HETATM    4  O   UNL     1     -12.518   7.054  71.250  1.00  0.00    -0.364 OA 
BRANCH   4   5
HETATM    5  C   UNL     1     -11.642   6.119  71.715  1.00  0.00    -0.275 C  
HETATM    6  O   UNL     1     -11.605   5.691  72.859  1.00  0.00    -0.277 OA 
BRANCH   5   7
HETATM    7  C   UNL     1     -10.684   5.721  70.623  1.00  0.00    -0.351 C  
BRANCH   7   8
HETATM    8  C   UNL     1      -9.342   6.430  70.797  1.00  0.00    -0.165 C  
BRANCH   8   9
HETATM    9  C   UNL     1      -8.849   6.975  69.459  1.00  0.00    -0.133 C  
BRANCH   9  10
HETATM   10  C   UNL     1      -9.982   7.404  68.574  1.00  0.00    -0.172 C  
HETATM   11  C   UNL     1     -10.180   8.641  68.093  1.00  0.00    -0.250 C  
BRANCH  11  12
HETATM   12  C   UNL     1      -9.310   9.845  68.344  1.00  0.00    -0.135 C  
BRANCH  12  13
HETATM   13  C   UNL     1      -8.798  10.436  67.026  1.00  0.00    -0.143 C  
HETATM   14  C   UNL     1      -7.416   9.925  66.594  1.00  0.00    -0.099 C  
HETATM   15  C   UNL     1      -7.366  10.289  65.118  1.00  0.00    -0.127 C  
HETATM   16  O   UNL     1      -7.317   8.508  66.711  1.00  0.00    -0.081 OA 
HETATM   17  C   UNL     1      -8.758   9.904  64.617  1.00  0.00    -0.194 C  
HETATM   18  H   UNL     1      -6.462   8.192  66.443  1.00  0.00     0.000 HD 
HETATM   19  C   UNL     1      -9.717  10.111  65.818  1.00  0.00    -0.307 C  
HETATM   20  O   UNL     1      -8.765   8.530  64.224  1.00  0.00    -0.397 OA 
HETATM   21  H   UNL     1      -9.630   8.291  63.912  1.00  0.00     0.000 HD 
BRANCH  19  22
HETATM   22  C   UNL     1     -10.768  11.167  65.536  1.00  0.00    -0.251 C  
HETATM   23  C   UNL     1     -11.065  11.652  64.316  1.00  0.00    -0.406 C  
BRANCH  23  24
HETATM   24  C   UNL     1     -12.194  12.609  64.019  1.00  0.00    -0.463 C  
HETATM   25  F   UNL     1     -13.274  12.305  64.790  1.00  0.00    -0.462 F  
HETATM   26  F   UNL     1     -12.587  12.456  62.725  1.00  0.00    -0.322 F  
BRANCH  24  27
HETATM   27  C   UNL     1     -11.788  14.072  64.263  1.00  0.00    -0.410 C  
BRANCH  27  28
HETATM   28  O   UNL     1     -12.276  14.533  65.531  1.00  0.00    -0.353 OA 
BRANCH  28  29
HETATM   29  C   UNL     1     -11.414  14.376  66.583  1.00  0.00    -0.363 A  
HETATM   30  C   UNL     1     -10.103  14.799  66.354  1.00  0.00    -0.291 A  
HETATM   31  C   UNL     1      -9.139  14.689  67.358  1.00  0.00    -0.203 A  
HETATM   32  C   UNL     1      -9.486  14.170  68.603  1.00  0.00    -0.163 A  
HETATM   33  C   UNL     1     -10.799  13.765  68.845  1.00  0.00    -0.268 A  
HETATM   34  C   UNL     1     -11.763  13.869  67.838  1.00  0.00    -0.396 A  
ENDBRANCH  28  29
ENDBRANCH  27  28
ENDBRANCH  24  27
ENDBRANCH  23  24
ENDBRANCH  19  22
ENDBRANCH  12  13
ENDBRANCH  11  12
ENDBRANCH   9  10
ENDBRANCH   8   9
ENDBRANCH   7   8
ENDBRANCH   5   7
ENDBRANCH   4   5
ENDBRANCH   2   4
TORSDOF 13
ENDMDL
MODEL       83
REMARK 921   NORMALIZED FREE ENERGY PREDICTED BY IDOCK:   -5.25 KCAL/MOL
REMARK 922        TOTAL FREE ENERGY PREDICTED BY IDOCK:  -12.07 KCAL/MOL
REMARK 923 INTER-LIGAND FREE ENERGY PREDICTED BY IDOCK:   -9.61 KCAL/MOL
REMARK 924 INTRA-LIGAND FREE ENERGY PREDICTED BY IDOCK:   -2.46 KCAL/MOL
REMARK 927      BINDING AFFINITY PREDICTED BY RF-SCORE:    0.00 PKD
ROOT
HETATM    1  C   UNL     1      -9.842  18.324  67.417  1.00  0.00    -0.323 C  
HETATM    2  C   UNL     1      -9.481  17.474  66.203  1.00  0.00    -0.160 C  
HETATM    3  C   UNL     1      -8.014  17.064  66.247  1.00  0.00    -0.343 C  
ENDROOT
BRANCH   2   4
HETATM    4  O   UNL     1     -10.269  16.271  66.211  1.00  0.00    -0.296 OA 
BRANCH   4   5
HETATM    5  C   UNL     1     -10.933  15.998  65.053  1.00  0.00    -0.380 C  
HETATM    6  O   UNL     1     -11.295  16.828  64.231  1.00  0.00    -1.170 OA 
BRANCH   5   7
HETATM    7  C   UNL     1     -11.205  14.520  64.949  1.00  0.00    -0.395 C  
BRANCH   7   8
HETATM    8  C   UNL     1     -10.864  13.815  66.260  1.00  0.00    -0.283 C  
BRANCH   8   9
HETATM    9  C   UNL     1     -12.130  13.560  67.075  1.00  0.00    -0.401 C  
BRANCH   9  10
HETATM   10  C   UNL     1     -11.889  13.702  68.549  1.00  0.00    -0.406 C  
HETATM   11  C   UNL     1     -11.888  12.704  69.447  1.00  0.00    -0.356 C  
BRANCH  11  12
HETATM   12  C   UNL     1     -12.129  11.245  69.157  1.00  0.00    -0.348 C  
BRANCH  12  13
HETATM   13  C   UNL     1     -11.454  10.358  70.209  1.00  0.00    -0.406 C  
HETATM   14  C   UNL     1     -12.352   9.982  71.395  1.00  0.00    -0.415 C  
HETATM   15  C   UNL     1     -11.628   8.791  72.005  1.00  0.00    -0.436 C  
HETATM   16  O   UNL     1     -13.641   9.551  70.965  1.00  0.00    -0.556 OA 
HETATM   17  C   UNL     1     -11.217   7.970  70.782  1.00  0.00    -0.265 C  
HETATM   18  H   UNL     1     -14.197   9.317  71.700  1.00  0.00     0.000 HD 
HETATM   19  C   UNL     1     -10.985   8.993  69.639  1.00  0.00    -0.147 C  
HETATM   20  O   UNL     1     -12.274   7.077  70.425  1.00  0.00    -0.591 OA 
HETATM   21  H   UNL     1     -12.019   6.567  69.665  1.00  0.00     0.000 HD 
BRANCH  19  22
HETATM   22  C   UNL     1      -9.551   8.985  69.147  1.00  0.00    -0.161 C  
HETATM   23  C   UNL     1      -8.619   9.902  69.469  1.00  0.00    -0.194 C  
BRANCH  23  24
HETATM   24  C   UNL     1      -7.162   9.826  69.081  1.00  0.00    -0.073 C  
HETATM   25  F   UNL     1      -6.846   8.552  68.720  1.00  0.00    -0.057 F  
HETATM   26  F   UNL     1      -6.392  10.124  70.163  1.00  0.00    -0.058 F  
BRANCH  24  27
HETATM   27  C   UNL     1      -6.823  10.785  67.928  1.00  0.00    -0.072 C  
BRANCH  27  28
HETATM   28  O   UNL     1      -6.548  10.056  66.723  1.00  0.00    -0.069 OA 
BRANCH  28  29
HETATM   29  C   UNL     1      -7.485  10.184  65.733  1.00  0.00    -0.131 A  
HETATM   30  C   UNL     1      -7.043   9.875  64.445  1.00  0.00    -0.134 A  
HETATM   31  C   UNL     1      -7.915   9.968  63.358  1.00  0.00    -0.156 A  
HETATM   32  C   UNL     1      -9.238  10.355  63.558  1.00  0.00    -0.310 A  
HETATM   33  C   UNL     1      -9.690  10.644  64.845  1.00  0.00    -0.341 A  
HETATM   34  C   UNL     1      -8.817  10.557  65.932  1.00  0.00    -0.180 A  
ENDBRANCH  28  29
ENDBRANCH  27  28
ENDBRANCH  24  27
ENDBRANCH  23  24
ENDBRANCH  19  22
ENDBRANCH  12  13
ENDBRANCH  11  12
ENDBRANCH   9  10
ENDBRANCH   8   9
ENDBRANCH   7   8
ENDBRANCH   5   7
ENDBRANCH   4   5
ENDBRANCH   2   4
TORSDOF 13
ENDMDL
MODEL       84
REMARK 921   NORMALIZED FREE ENERGY PREDICTED BY IDOCK:   -5.24 KCAL/MOL
REMARK 922        TOTAL FREE ENERGY PREDICTED BY IDOCK:  -12.06 KCAL/MOL
REMARK 923 INTER-LIGAND FREE ENERGY PREDICTED BY IDOCK:   -8.73 KCAL/MOL
REMARK 924 INTRA-LIGAND FREE ENERGY PREDICTED BY IDOCK:   -3.33 KCAL/MOL
REMARK 927      BINDING AFFINITY PREDICTED BY RF-SCORE:    0.00 PKD
ROOT
HETATM    1  C   UNL     1     -11.153   6.231  68.961  1.00  0.00    -0.446 C  
HETATM    2  C   UNL     1     -10.276   6.257  67.714  1.00  0.00    -0.170 C  
HETATM    3  C   UNL     1     -10.193   4.873  67.083  1.00  0.00    -0.211 C  
ENDROOT
BRANCH   2   4
HETATM    4  O   UNL     1     -10.856   7.144  66.741  1.00  0.00    -0.320 OA 
BRANCH   4   5
HETATM    5  C   UNL     1     -10.380   8.420  66.755  1.00  0.00    -0.287 C  
HETATM    6  O   UNL     1     -11.009   9.407  67.111  1.00  0.00    -0.154 OA 
BRANCH   5   7
HETATM    7  C   UNL     1      -8.974   8.454  66.218  1.00  0.00    -0.213 C  
BRANCH   7   8
HETATM    8  C   UNL     1      -8.974   8.766  64.723  1.00  0.00    -0.016 C  
BRANCH   8   9
HETATM    9  C   UNL     1      -8.377  10.147  64.465  1.00  0.00    -0.168 C  
BRANCH   9  10
HETATM   10  C   UNL     1      -8.846  10.729  63.164  1.00  0.00    -0.209 C  
HETATM   11  C   UNL     1      -9.948  11.476  62.988  1.00  0.00    -0.352 C  
BRANCH  11  12
HETATM   12  C   UNL     1     -10.932  11.878  64.055  1.00  0.00    -0.445 C  
BRANCH  12  13
HETATM   13  C   UNL     1     -10.500  13.182  64.736  1.00  0.00    -0.390 C  
HETATM   14  C   UNL     1     -11.417  14.380  64.456  1.00  0.00    -0.345 C  
HETATM   15  C   UNL     1     -11.047  15.357  65.562  1.00  0.00    -0.301 C  
HETATM   16  O   UNL     1     -12.794  14.037  64.603  1.00  0.00    -0.661 OA 
HETATM   17  C   UNL     1     -10.947  14.462  66.797  1.00  0.00    -0.314 C  
HETATM   18  H   UNL     1     -13.362  14.779  64.430  1.00  0.00     0.000 HD 
HETATM   19  C   UNL     1     -10.476  13.076  66.285  1.00  0.00    -0.285 C  
HETATM   20  O   UNL     1     -12.233  14.340  67.409  1.00  0.00    -0.572 OA 
HETATM   21  H   UNL     1     -12.170  13.784  68.177  1.00  0.00     0.000 HD 
BRANCH  19  22
HETATM   22  C   UNL     1      -9.129  12.682  66.859  1.00  0.00    -0.218 C  
HETATM   23  C   UNL     1      -8.947  12.038  68.027  1.00  0.00    -0.187 C  
BRANCH  23  24
HETATM   24  C   UNL     1      -7.618  11.535  68.538  1.00  0.00    -0.130 C  
HETATM   25  F   UNL     1      -6.802  12.588  68.818  1.00  0.00    -0.074 F  
HETATM   26  F   UNL     1      -7.002  10.816  67.561  1.00  0.00    -0.077 F  
BRANCH  24  27
HETATM   27  C   UNL     1      -7.778  10.663  69.794  1.00  0.00    -0.004 C  
BRANCH  27  28
HETATM   28  O   UNL     1      -8.549   9.488  69.505  1.00  0.00    -0.142 OA 
BRANCH  28  29
HETATM   29  C   UNL     1      -9.590   9.245  70.361  1.00  0.00    -0.244 A  
HETATM   30  C   UNL     1      -9.334   8.315  71.370  1.00  0.00    -0.223 A  
HETATM   31  C   UNL     1     -10.323   7.992  72.302  1.00  0.00    -0.336 A  
HETATM   32  C   UNL     1     -11.570   8.609  72.236  1.00  0.00    -0.424 A  
HETATM   33  C   UNL     1     -11.825   9.554  71.243  1.00  0.00    -0.450 A  
HETATM   34  C   UNL     1     -10.837   9.874  70.307  1.00  0.00    -0.367 A  
ENDBRANCH  28  29
ENDBRANCH  27  28
ENDBRANCH  24  27
ENDBRANCH  23  24
ENDBRANCH  19  22
ENDBRANCH  12  13
ENDBRANCH  11  12
ENDBRANCH   9  10
ENDBRANCH   8   9
ENDBRANCH   7   8
ENDBRANCH   5   7
ENDBRANCH   4   5
ENDBRANCH   2   4
TORSDOF 13
ENDMDL
MODEL       85
REMARK 921   NORMALIZED FREE ENERGY PREDICTED BY IDOCK:   -5.23 KCAL/MOL
REMARK 922        TOTAL FREE ENERGY PREDICTED BY IDOCK:  -12.05 KCAL/MOL
REMARK 923 INTER-LIGAND FREE ENERGY PREDICTED BY IDOCK:   -9.20 KCAL/MOL
REMARK 924 INTRA-LIGAND FREE ENERGY PREDICTED BY IDOCK:   -2.85 KCAL/MOL
REMARK 927      BINDING AFFINITY PREDICTED BY RF-SCORE:    0.00 PKD
ROOT
HETATM    1  C   UNL     1     -10.204   9.178  68.692  1.00  0.00    -0.225 C  
HETATM    2  C   UNL     1      -8.698   9.352  68.519  1.00  0.00    -0.128 C  
HETATM    3  C   UNL     1      -8.240   8.788  67.179  1.00  0.00    -0.104 C  
ENDROOT
BRANCH   2   4
HETATM    4  O   UNL     1      -8.374  10.753  68.535  1.00  0.00    -0.123 OA 
BRANCH   4   5
HETATM    5  C   UNL     1      -7.312  11.100  69.315  1.00  0.00    -0.097 C  
HETATM    6  O   UNL     1      -7.038  10.605  70.399  1.00  0.00    -0.249 OA 
BRANCH   5   7
HETATM    7  C   UNL     1      -6.545  12.224  68.672  1.00  0.00    -0.078 C  
BRANCH   7   8
HETATM    8  C   UNL     1      -7.387  12.908  67.597  1.00  0.00    -0.145 C  
BRANCH   8   9
HETATM    9  C   UNL     1      -7.015  14.385  67.486  1.00  0.00    -0.182 C  
BRANCH   9  10
HETATM   10  C   UNL     1      -6.682  14.983  68.821  1.00  0.00    -0.099 C  
HETATM   11  C   UNL     1      -6.748  16.286  69.138  1.00  0.00    -0.196 C  
BRANCH  11  12
HETATM   12  C   UNL     1      -7.165  17.406  68.222  1.00  0.00    -0.214 C  
BRANCH  12  13
HETATM   13  C   UNL     1      -8.571  17.906  68.572  1.00  0.00    -0.298 C  
HETATM   14  C   UNL     1      -8.682  19.427  68.741  1.00  0.00    -0.337 C  
HETATM   15  C   UNL     1     -10.178  19.674  68.624  1.00  0.00    -0.498 C  
HETATM   16  O   UNL     1      -8.028  20.125  67.682  1.00  0.00    -0.293 OA 
HETATM   17  C   UNL     1     -10.588  18.782  67.453  1.00  0.00    -0.443 C  
HETATM   18  H   UNL     1      -8.097  21.067  67.787  1.00  0.00     0.000 HD 
HETATM   19  C   UNL     1      -9.623  17.568  67.483  1.00  0.00    -0.265 C  
HETATM   20  O   UNL     1     -10.428  19.496  66.225  1.00  0.00    -0.446 OA 
HETATM   21  H   UNL     1     -10.683  18.942  65.497  1.00  0.00     0.000 HD 
BRANCH  19  22
HETATM   22  C   UNL     1     -10.357  16.261  67.713  1.00  0.00    -0.287 C  
HETATM   23  C   UNL     1     -10.481  15.275  66.804  1.00  0.00    -0.293 C  
BRANCH  23  24
HETATM   24  C   UNL     1     -11.102  13.926  67.072  1.00  0.00    -0.301 C  
HETATM   25  F   UNL     1     -10.644  13.018  66.166  1.00  0.00    -0.266 F  
HETATM   26  F   UNL     1     -12.449  14.005  66.894  1.00  0.00    -0.456 F  
BRANCH  24  27
HETATM   27  C   UNL     1     -10.801  13.426  68.495  1.00  0.00    -0.265 C  
BRANCH  27  28
HETATM   28  O   UNL     1     -11.951  12.785  69.064  1.00  0.00    -0.292 OA 
BRANCH  28  29
HETATM   29  C   UNL     1     -12.513  13.430  70.133  1.00  0.00    -0.174 A  
HETATM   30  C   UNL     1     -12.992  12.603  71.150  1.00  0.00    -0.239 A  
HETATM   31  C   UNL     1     -13.584  13.153  72.290  1.00  0.00    -0.677 A  
HETATM   32  C   UNL     1     -13.685  14.536  72.423  1.00  0.00    -0.583 A  
HETATM   33  C   UNL     1     -13.189  15.368  71.419  1.00  0.00    -0.578 A  
HETATM   34  C   UNL     1     -12.603  14.818  70.276  1.00  0.00    -0.365 A  
ENDBRANCH  28  29
ENDBRANCH  27  28
ENDBRANCH  24  27
ENDBRANCH  23  24
ENDBRANCH  19  22
ENDBRANCH  12  13
ENDBRANCH  11  12
ENDBRANCH   9  10
ENDBRANCH   8   9
ENDBRANCH   7   8
ENDBRANCH   5   7
ENDBRANCH   4   5
ENDBRANCH   2   4
TORSDOF 13
ENDMDL
MODEL       86
REMARK 921   NORMALIZED FREE ENERGY PREDICTED BY IDOCK:   -5.23 KCAL/MOL
REMARK 922        TOTAL FREE ENERGY PREDICTED BY IDOCK:  -12.04 KCAL/MOL
REMARK 923 INTER-LIGAND FREE ENERGY PREDICTED BY IDOCK:   -9.97 KCAL/MOL
REMARK 924 INTRA-LIGAND FREE ENERGY PREDICTED BY IDOCK:   -2.07 KCAL/MOL
REMARK 927      BINDING AFFINITY PREDICTED BY RF-SCORE:    0.00 PKD
ROOT
HETATM    1  C   UNL     1      -7.076   5.974  70.457  1.00  0.00    -0.071 C  
HETATM    2  C   UNL     1      -8.334   6.836  70.450  1.00  0.00    -0.130 C  
HETATM    3  C   UNL     1      -9.239   6.460  69.283  1.00  0.00    -0.135 C  
ENDROOT
BRANCH   2   4
HETATM    4  O   UNL     1      -9.073   6.613  71.663  1.00  0.00    -0.142 OA 
BRANCH   4   5
HETATM    5  C   UNL     1      -9.441   7.737  72.340  1.00  0.00    -0.178 C  
HETATM    6  O   UNL     1      -8.754   8.740  72.474  1.00  0.00    -0.406 OA 
BRANCH   5   7
HETATM    7  C   UNL     1     -10.805   7.550  72.948  1.00  0.00    -0.425 C  
BRANCH   7   8
HETATM    8  C   UNL     1     -11.635   6.567  72.125  1.00  0.00    -0.349 C  
BRANCH   8   9
HETATM    9  C   UNL     1     -12.877   7.255  71.563  1.00  0.00    -0.430 C  
BRANCH   9  10
HETATM   10  C   UNL     1     -13.219   8.505  72.321  1.00  0.00    -0.361 C  
HETATM   11  C   UNL     1     -13.307   9.740  71.803  1.00  0.00    -0.506 C  
BRANCH  11  12
HETATM   12  C   UNL     1     -13.080  10.121  70.363  1.00  0.00    -0.060 C  
BRANCH  12  13
HETATM   13  C   UNL     1     -11.686  10.727  70.169  1.00  0.00    -0.425 C  
HETATM   14  C   UNL     1     -10.682   9.803  69.467  1.00  0.00    -0.233 C  
HETATM   15  C   UNL     1      -9.596  10.765  69.010  1.00  0.00    -0.193 C  
HETATM   16  O   UNL     1     -11.250   9.187  68.312  1.00  0.00    -0.471 OA 
HETATM   17  C   UNL     1     -10.389  11.952  68.464  1.00  0.00    -0.218 C  
HETATM   18  H   UNL     1     -10.628   8.615  67.877  1.00  0.00     0.000 HD 
HETATM   19  C   UNL     1     -11.699  12.008  69.294  1.00  0.00    -0.389 C  
HETATM   20  O   UNL     1     -10.699  11.731  67.087  1.00  0.00    -0.221 OA 
HETATM   21  H   UNL     1     -11.191  12.469  66.747  1.00  0.00     0.000 HD 
BRANCH  19  22
HETATM   22  C   UNL     1     -11.822  13.298  70.082  1.00  0.00    -0.333 C  
HETATM   23  C   UNL     1     -11.318  14.486  69.700  1.00  0.00    -0.314 C  
BRANCH  23  24
HETATM   24  C   UNL     1     -11.546  15.793  70.421  1.00  0.00    -0.360 C  
HETATM   25  F   UNL     1     -11.119  15.691  71.710  1.00  0.00    -0.412 F  
HETATM   26  F   UNL     1     -12.881  16.051  70.475  1.00  0.00    -0.419 F  
BRANCH  24  27
HETATM   27  C   UNL     1     -10.824  16.963  69.733  1.00  0.00    -0.035 C  
BRANCH  27  28
HETATM   28  O   UNL     1     -10.784  16.774  68.312  1.00  0.00    -0.335 OA 
BRANCH  28  29
HETATM   29  C   UNL     1     -10.076  17.715  67.614  1.00  0.00    -0.339 A  
HETATM   30  C   UNL     1     -10.711  18.948  67.454  1.00  0.00    -0.519 A  
HETATM   31  C   UNL     1     -10.080  19.984  66.761  1.00  0.00    -0.607 A  
HETATM   32  C   UNL     1      -8.803  19.795  66.238  1.00  0.00    -0.417 A  
HETATM   33  C   UNL     1      -8.155  18.573  66.413  1.00  0.00    -0.295 A  
HETATM   34  C   UNL     1      -8.788  17.534  67.101  1.00  0.00    -0.246 A  
ENDBRANCH  28  29
ENDBRANCH  27  28
ENDBRANCH  24  27
ENDBRANCH  23  24
ENDBRANCH  19  22
ENDBRANCH  12  13
ENDBRANCH  11  12
ENDBRANCH   9  10
ENDBRANCH   8   9
ENDBRANCH   7   8
ENDBRANCH   5   7
ENDBRANCH   4   5
ENDBRANCH   2   4
TORSDOF 13
ENDMDL
MODEL       87
REMARK 921   NORMALIZED FREE ENERGY PREDICTED BY IDOCK:   -5.23 KCAL/MOL
REMARK 922        TOTAL FREE ENERGY PREDICTED BY IDOCK:  -12.04 KCAL/MOL
REMARK 923 INTER-LIGAND FREE ENERGY PREDICTED BY IDOCK:   -9.73 KCAL/MOL
REMARK 924 INTRA-LIGAND FREE ENERGY PREDICTED BY IDOCK:   -2.31 KCAL/MOL
REMARK 927      BINDING AFFINITY PREDICTED BY RF-SCORE:    0.00 PKD
ROOT
HETATM    1  C   UNL     1     -11.103  15.965  64.915  1.00  0.00    -0.400 C  
HETATM    2  C   UNL     1     -11.465  14.497  65.116  1.00  0.00    -0.368 C  
HETATM    3  C   UNL     1     -12.266  14.309  66.398  1.00  0.00    -0.426 C  
ENDROOT
BRANCH   2   4
HETATM    4  O   UNL     1     -12.285  14.053  64.021  1.00  0.00    -0.578 OA 
BRANCH   4   5
HETATM    5  C   UNL     1     -12.106  12.757  63.643  1.00  0.00    -0.543 C  
HETATM    6  O   UNL     1     -12.988  12.001  63.261  1.00  0.00    -0.736 OA 
BRANCH   5   7
HETATM    7  C   UNL     1     -10.662  12.365  63.811  1.00  0.00    -0.492 C  
BRANCH   7   8
HETATM    8  C   UNL     1     -10.501  10.848  63.736  1.00  0.00    -0.329 C  
BRANCH   8   9
HETATM    9  C   UNL     1      -9.745  10.330  64.957  1.00  0.00    -0.370 C  
BRANCH   9  10
HETATM   10  C   UNL     1      -9.963  11.197  66.163  1.00  0.00    -0.273 C  
HETATM   11  C   UNL     1     -10.373  10.777  67.370  1.00  0.00    -0.251 C  
BRANCH  11  12
HETATM   12  C   UNL     1     -10.697   9.358  67.758  1.00  0.00    -0.290 C  
BRANCH  12  13
HETATM   13  C   UNL     1     -10.670   9.185  69.280  1.00  0.00    -0.199 C  
HETATM   14  C   UNL     1     -11.521  10.203  70.052  1.00  0.00    -0.277 C  
HETATM   15  C   UNL     1     -11.679   9.548  71.416  1.00  0.00    -0.465 C  
HETATM   16  O   UNL     1     -12.816  10.353  69.474  1.00  0.00    -0.632 OA 
HETATM   17  C   UNL     1     -11.965   8.087  71.070  1.00  0.00    -0.245 C  
HETATM   18  H   UNL     1     -13.343  10.983  69.952  1.00  0.00     0.000 HD 
HETATM   19  C   UNL     1     -11.213   7.807  69.743  1.00  0.00    -0.017 C  
HETATM   20  O   UNL     1     -13.369   7.904  70.879  1.00  0.00    -0.534 OA 
HETATM   21  H   UNL     1     -13.547   6.996  70.665  1.00  0.00     0.000 HD 
BRANCH  19  22
HETATM   22  C   UNL     1     -10.147   6.741  69.903  1.00  0.00    -0.195 C  
HETATM   23  C   UNL     1     -10.359   5.415  69.799  1.00  0.00    -0.375 C  
BRANCH  23  24
HETATM   24  C   UNL     1      -9.278   4.362  69.835  1.00  0.00    -0.133 C  
HETATM   25  F   UNL     1      -8.135   4.854  69.282  1.00  0.00    -0.075 F  
HETATM   26  F   UNL     1      -9.655   3.303  69.067  1.00  0.00    -0.226 F  
BRANCH  24  27
HETATM   27  C   UNL     1      -8.989   3.882  71.266  1.00  0.00    -0.107 C  
BRANCH  27  28
HETATM   28  O   UNL     1      -7.899   4.617  71.840  1.00  0.00    -0.093 OA 
BRANCH  28  29
HETATM   29  C   UNL     1      -8.251   5.747  72.528  1.00  0.00    -0.117 A  
HETATM   30  C   UNL     1      -7.520   6.895  72.213  1.00  0.00    -0.087 A  
HETATM   31  C   UNL     1      -7.795   8.106  72.851  1.00  0.00    -0.202 A  
HETATM   32  C   UNL     1      -8.814   8.178  73.798  1.00  0.00    -0.265 A  
HETATM   33  C   UNL     1      -9.561   7.040  74.102  1.00  0.00    -0.298 A  
HETATM   34  C   UNL     1      -9.282   5.826  73.468  1.00  0.00    -0.131 A  
ENDBRANCH  28  29
ENDBRANCH  27  28
ENDBRANCH  24  27
ENDBRANCH  23  24
ENDBRANCH  19  22
ENDBRANCH  12  13
ENDBRANCH  11  12
ENDBRANCH   9  10
ENDBRANCH   8   9
ENDBRANCH   7   8
ENDBRANCH   5   7
ENDBRANCH   4   5
ENDBRANCH   2   4
TORSDOF 13
ENDMDL
MODEL       88
REMARK 921   NORMALIZED FREE ENERGY PREDICTED BY IDOCK:   -5.23 KCAL/MOL
REMARK 922        TOTAL FREE ENERGY PREDICTED BY IDOCK:  -12.04 KCAL/MOL
REMARK 923 INTER-LIGAND FREE ENERGY PREDICTED BY IDOCK:   -9.85 KCAL/MOL
REMARK 924 INTRA-LIGAND FREE ENERGY PREDICTED BY IDOCK:   -2.19 KCAL/MOL
REMARK 927      BINDING AFFINITY PREDICTED BY RF-SCORE:    0.00 PKD
ROOT
HETATM    1  C   UNL     1     -10.981   6.121  72.281  1.00  0.00    -0.302 C  
HETATM    2  C   UNL     1     -11.586   7.359  71.628  1.00  0.00    -0.270 C  
HETATM    3  C   UNL     1     -10.778   8.603  71.977  1.00  0.00    -0.427 C  
ENDROOT
BRANCH   2   4
HETATM    4  O   UNL     1     -11.556   7.208  70.198  1.00  0.00    -0.249 OA 
BRANCH   4   5
HETATM    5  C   UNL     1     -10.324   7.304  69.624  1.00  0.00    -0.221 C  
HETATM    6  O   UNL     1      -9.331   6.678  69.968  1.00  0.00    -0.157 OA 
BRANCH   5   7
HETATM    7  C   UNL     1     -10.343   8.338  68.529  1.00  0.00    -0.230 C  
BRANCH   7   8
HETATM    8  C   UNL     1     -10.631   7.688  67.178  1.00  0.00    -0.410 C  
BRANCH   8   9
HETATM    9  C   UNL     1      -9.328   7.390  66.439  1.00  0.00    -0.206 C  
BRANCH   9  10
HETATM   10  C   UNL     1      -8.345   8.518  66.557  1.00  0.00    -0.113 C  
HETATM   11  C   UNL     1      -8.335   9.635  65.813  1.00  0.00    -0.132 C  
BRANCH  11  12
HETATM   12  C   UNL     1      -9.304   9.981  64.713  1.00  0.00    -0.330 C  
BRANCH  12  13
HETATM   13  C   UNL     1      -9.870  11.393  64.904  1.00  0.00    -0.301 C  
HETATM   14  C   UNL     1     -10.229  12.116  63.599  1.00  0.00    -0.433 C  
HETATM   15  C   UNL     1     -11.147  13.233  64.072  1.00  0.00    -0.342 C  
HETATM   16  O   UNL     1     -10.965  11.275  62.714  1.00  0.00    -0.723 OA 
HETATM   17  C   UNL     1     -12.049  12.536  65.090  1.00  0.00    -0.446 C  
HETATM   18  H   UNL     1     -11.188  11.723  61.906  1.00  0.00     0.000 HD 
HETATM   19  C   UNL     1     -11.188  11.411  65.723  1.00  0.00    -0.157 C  
HETATM   20  O   UNL     1     -13.176  11.964  64.423  1.00  0.00    -0.545 OA 
HETATM   21  H   UNL     1     -13.736  11.530  65.056  1.00  0.00     0.000 HD 
BRANCH  19  22
HETATM   22  C   UNL     1     -10.990  11.613  67.213  1.00  0.00    -0.318 C  
HETATM   23  C   UNL     1     -11.981  11.662  68.123  1.00  0.00    -0.214 C  
BRANCH  23  24
HETATM   24  C   UNL     1     -11.778  11.737  69.618  1.00  0.00    -0.344 C  
HETATM   25  F   UNL     1     -10.566  11.211  69.947  1.00  0.00    -0.209 F  
HETATM   26  F   UNL     1     -12.714  10.971  70.239  1.00  0.00    -0.358 F  
BRANCH  24  27
HETATM   27  C   UNL     1     -11.867  13.181  70.138  1.00  0.00    -0.257 C  
BRANCH  27  28
HETATM   28  O   UNL     1     -12.481  14.038  69.164  1.00  0.00    -0.238 OA 
BRANCH  28  29
HETATM   29  C   UNL     1     -11.695  15.059  68.703  1.00  0.00    -0.337 A  
HETATM   30  C   UNL     1     -11.298  15.992  69.664  1.00  0.00    -0.332 A  
HETATM   31  C   UNL     1     -10.492  17.075  69.307  1.00  0.00    -0.293 A  
HETATM   32  C   UNL     1     -10.066  17.222  67.989  1.00  0.00    -0.324 A  
HETATM   33  C   UNL     1     -10.441  16.282  67.030  1.00  0.00    -0.306 A  
HETATM   34  C   UNL     1     -11.253  15.201  67.385  1.00  0.00    -0.323 A  
ENDBRANCH  28  29
ENDBRANCH  27  28
ENDBRANCH  24  27
ENDBRANCH  23  24
ENDBRANCH  19  22
ENDBRANCH  12  13
ENDBRANCH  11  12
ENDBRANCH   9  10
ENDBRANCH   8   9
ENDBRANCH   7   8
ENDBRANCH   5   7
ENDBRANCH   4   5
ENDBRANCH   2   4
TORSDOF 13
ENDMDL
MODEL       89
REMARK 921   NORMALIZED FREE ENERGY PREDICTED BY IDOCK:   -5.22 KCAL/MOL
REMARK 922        TOTAL FREE ENERGY PREDICTED BY IDOCK:  -12.03 KCAL/MOL
REMARK 923 INTER-LIGAND FREE ENERGY PREDICTED BY IDOCK:  -10.02 KCAL/MOL
REMARK 924 INTRA-LIGAND FREE ENERGY PREDICTED BY IDOCK:   -2.01 KCAL/MOL
REMARK 927      BINDING AFFINITY PREDICTED BY RF-SCORE:    0.00 PKD
ROOT
HETATM    1  C   UNL     1      -7.792  18.904  66.264  1.00  0.00    -0.299 C  
HETATM    2  C   UNL     1      -8.133  17.423  66.135  1.00  0.00    -0.220 C  
HETATM    3  C   UNL     1      -7.791  16.676  67.418  1.00  0.00    -0.188 C  
ENDROOT
BRANCH   2   4
HETATM    4  O   UNL     1      -9.546  17.276  65.910  1.00  0.00    -0.500 OA 
BRANCH   4   5
HETATM    5  C   UNL     1     -10.313  17.202  67.033  1.00  0.00    -0.308 C  
HETATM    6  O   UNL     1     -10.499  18.114  67.826  1.00  0.00    -0.380 OA 
BRANCH   5   7
HETATM    7  C   UNL     1     -10.866  15.810  67.190  1.00  0.00    -0.289 C  
BRANCH   7   8
HETATM    8  C   UNL     1     -11.517  15.637  68.560  1.00  0.00    -0.380 C  
BRANCH   8   9
HETATM    9  C   UNL     1     -11.096  14.311  69.189  1.00  0.00    -0.291 C  
BRANCH   9  10
HETATM   10  C   UNL     1     -12.014  13.900  70.302  1.00  0.00    -0.401 C  
HETATM   11  C   UNL     1     -12.525  12.673  70.489  1.00  0.00    -0.273 C  
BRANCH  11  12
HETATM   12  C   UNL     1     -12.282  11.466  69.621  1.00  0.00    -0.316 C  
BRANCH  12  13
HETATM   13  C   UNL     1     -11.342  10.473  70.314  1.00  0.00    -0.407 C  
HETATM   14  C   UNL     1     -11.961   9.739  71.511  1.00  0.00    -0.407 C  
HETATM   15  C   UNL     1     -11.029   8.552  71.700  1.00  0.00    -0.362 C  
HETATM   16  O   UNL     1     -13.264   9.244  71.211  1.00  0.00    -0.434 OA 
HETATM   17  C   UNL     1     -10.785   8.070  70.271  1.00  0.00    -0.239 C  
HETATM   18  H   UNL     1     -13.647   8.789  71.952  1.00  0.00     0.000 HD 
HETATM   19  C   UNL     1     -10.868   9.332  69.374  1.00  0.00    -0.184 C  
HETATM   20  O   UNL     1     -11.804   7.141  69.895  1.00  0.00    -0.552 OA 
HETATM   21  H   UNL     1     -11.652   6.841  69.007  1.00  0.00     0.000 HD 
BRANCH  19  22
HETATM   22  C   UNL     1      -9.558   9.616  68.664  1.00  0.00    -0.154 C  
HETATM   23  C   UNL     1      -9.188   9.084  67.484  1.00  0.00    -0.152 C  
BRANCH  23  24
HETATM   24  C   UNL     1      -7.943   9.461  66.718  1.00  0.00    -0.108 C  
HETATM   25  F   UNL     1      -7.702   8.541  65.745  1.00  0.00    -0.088 F  
HETATM   26  F   UNL     1      -6.871   9.428  67.556  1.00  0.00    -0.071 F  
BRANCH  24  27
HETATM   27  C   UNL     1      -8.058  10.858  66.085  1.00  0.00    -0.160 C  
BRANCH  27  28
HETATM   28  O   UNL     1      -8.804  10.803  64.861  1.00  0.00    -0.192 OA 
BRANCH  28  29
HETATM   29  C   UNL     1      -9.980  11.504  64.858  1.00  0.00    -0.259 A  
HETATM   30  C   UNL     1     -10.469  11.853  63.598  1.00  0.00    -0.493 A  
HETATM   31  C   UNL     1     -11.663  12.568  63.475  1.00  0.00    -0.595 A  
HETATM   32  C   UNL     1     -12.381  12.923  64.614  1.00  0.00    -0.501 A  
HETATM   33  C   UNL     1     -11.909  12.559  65.874  1.00  0.00    -0.489 A  
HETATM   34  C   UNL     1     -10.712  11.849  65.998  1.00  0.00    -0.326 A  
ENDBRANCH  28  29
ENDBRANCH  27  28
ENDBRANCH  24  27
ENDBRANCH  23  24
ENDBRANCH  19  22
ENDBRANCH  12  13
ENDBRANCH  11  12
ENDBRANCH   9  10
ENDBRANCH   8   9
ENDBRANCH   7   8
ENDBRANCH   5   7
ENDBRANCH   4   5
ENDBRANCH   2   4
TORSDOF 13
ENDMDL
MODEL       90
REMARK 921   NORMALIZED FREE ENERGY PREDICTED BY IDOCK:   -5.21 KCAL/MOL
REMARK 922        TOTAL FREE ENERGY PREDICTED BY IDOCK:  -12.01 KCAL/MOL
REMARK 923 INTER-LIGAND FREE ENERGY PREDICTED BY IDOCK:   -9.16 KCAL/MOL
REMARK 924 INTRA-LIGAND FREE ENERGY PREDICTED BY IDOCK:   -2.86 KCAL/MOL
REMARK 927      BINDING AFFINITY PREDICTED BY RF-SCORE:    0.00 PKD
ROOT
HETATM    1  C   UNL     1      -9.823  16.366  66.162  1.00  0.00    -0.362 C  
HETATM    2  C   UNL     1     -10.871  15.415  65.594  1.00  0.00    -0.355 C  
HETATM    3  C   UNL     1     -11.480  15.981  64.318  1.00  0.00    -0.162 C  
ENDROOT
BRANCH   2   4
HETATM    4  O   UNL     1     -10.249  14.162  65.260  1.00  0.00    -0.352 OA 
BRANCH   4   5
HETATM    5  C   UNL     1     -11.095  13.100  65.142  1.00  0.00    -0.287 C  
HETATM    6  O   UNL     1     -11.082  12.282  64.233  1.00  0.00    -0.305 OA 
BRANCH   5   7
HETATM    7  C   UNL     1     -12.090  13.105  66.271  1.00  0.00    -0.460 C  
BRANCH   7   8
HETATM    8  C   UNL     1     -11.387  12.907  67.613  1.00  0.00    -0.349 C  
BRANCH   8   9
HETATM    9  C   UNL     1     -11.903  11.649  68.306  1.00  0.00    -0.335 C  
BRANCH   9  10
HETATM   10  C   UNL     1     -11.749  11.724  69.797  1.00  0.00    -0.408 C  
HETATM   11  C   UNL     1     -11.888  10.702  70.656  1.00  0.00    -0.463 C  
BRANCH  11  12
HETATM   12  C   UNL     1     -12.229   9.279  70.298  1.00  0.00     0.236 C  
BRANCH  12  13
HETATM   13  C   UNL     1     -11.350   8.292  71.076  1.00  0.00    -0.299 C  
HETATM   14  C   UNL     1     -11.416   8.448  72.602  1.00  0.00    -0.289 C  
HETATM   15  C   UNL     1     -10.855   7.125  73.102  1.00  0.00    -0.373 C  
HETATM   16  O   UNL     1     -12.761   8.568  73.062  1.00  0.00    -0.679 OA 
HETATM   17  C   UNL     1     -11.520   6.097  72.188  1.00  0.00    -0.311 C  
HETATM   18  H   UNL     1     -12.801   8.663  74.007  1.00  0.00     0.000 HD 
HETATM   19  C   UNL     1     -11.738   6.810  70.828  1.00  0.00    -0.439 C  
HETATM   20  O   UNL     1     -12.781   5.708  72.738  1.00  0.00    -0.467 OA 
HETATM   21  H   UNL     1     -13.194   5.069  72.170  1.00  0.00     0.000 HD 
BRANCH  19  22
HETATM   22  C   UNL     1     -10.967   6.146  69.704  1.00  0.00    -0.459 C  
HETATM   23  C   UNL     1     -11.057   6.483  68.403  1.00  0.00    -0.340 C  
BRANCH  23  24
HETATM   24  C   UNL     1     -10.199   5.908  67.302  1.00  0.00    -0.200 C  
HETATM   25  F   UNL     1     -10.990   5.429  66.302  1.00  0.00    -0.328 F  
HETATM   26  F   UNL     1      -9.498   4.846  67.783  1.00  0.00    -0.125 F  
BRANCH  24  27
HETATM   27  C   UNL     1      -9.224   6.950  66.728  1.00  0.00    -0.152 C  
BRANCH  27  28
HETATM   28  O   UNL     1      -9.873   8.219  66.563  1.00  0.00    -0.240 OA 
BRANCH  28  29
HETATM   29  C   UNL     1      -9.213   9.290  67.103  1.00  0.00    -0.130 A  
HETATM   30  C   UNL     1      -8.834   9.150  68.440  1.00  0.00    -0.129 A  
HETATM   31  C   UNL     1      -8.152  10.179  69.093  1.00  0.00    -0.134 A  
HETATM   32  C   UNL     1      -7.833  11.348  68.406  1.00  0.00    -0.135 A  
HETATM   33  C   UNL     1      -8.191  11.485  67.065  1.00  0.00    -0.167 A  
HETATM   34  C   UNL     1      -8.878  10.458  66.413  1.00  0.00    -0.159 A  
ENDBRANCH  28  29
ENDBRANCH  27  28
ENDBRANCH  24  27
ENDBRANCH  23  24
ENDBRANCH  19  22
ENDBRANCH  12  13
ENDBRANCH  11  12
ENDBRANCH   9  10
ENDBRANCH   8   9
ENDBRANCH   7   8
ENDBRANCH   5   7
ENDBRANCH   4   5
ENDBRANCH   2   4
TORSDOF 13
ENDMDL
MODEL       91
REMARK 921   NORMALIZED FREE ENERGY PREDICTED BY IDOCK:   -5.20 KCAL/MOL
REMARK 922        TOTAL FREE ENERGY PREDICTED BY IDOCK:  -11.98 KCAL/MOL
REMARK 923 INTER-LIGAND FREE ENERGY PREDICTED BY IDOCK:  -10.27 KCAL/MOL
REMARK 924 INTRA-LIGAND FREE ENERGY PREDICTED BY IDOCK:   -1.72 KCAL/MOL
REMARK 927      BINDING AFFINITY PREDICTED BY RF-SCORE:    0.00 PKD
ROOT
HETATM    1  C   UNL     1     -13.892  13.691  72.290  1.00  0.00    -0.689 C  
HETATM    2  C   UNL     1     -14.088  15.198  72.169  1.00  0.00    -0.554 C  
HETATM    3  C   UNL     1     -13.246  15.938  73.201  1.00  0.00    -0.692 C  
ENDROOT
BRANCH   2   4
HETATM    4  O   UNL     1     -13.657  15.632  70.866  1.00  0.00    -0.568 OA 
BRANCH   4   5
HETATM    5  C   UNL     1     -12.376  15.308  70.535  1.00  0.00    -0.387 C  
HETATM    6  O   UNL     1     -11.390  15.993  70.765  1.00  0.00    -0.369 OA 
BRANCH   5   7
HETATM    7  C   UNL     1     -12.351  13.998  69.792  1.00  0.00    -0.344 C  
BRANCH   7   8
HETATM    8  C   UNL     1     -11.609  14.144  68.465  1.00  0.00    -0.351 C  
BRANCH   8   9
HETATM    9  C   UNL     1     -12.062  13.069  67.479  1.00  0.00    -0.279 C  
BRANCH   9  10
HETATM   10  C   UNL     1     -11.438  13.249  66.126  1.00  0.00    -0.359 C  
HETATM   11  C   UNL     1     -10.269  12.726  65.722  1.00  0.00    -0.302 C  
BRANCH  11  12
HETATM   12  C   UNL     1      -9.351  11.858  66.542  1.00  0.00    -0.222 C  
BRANCH  12  13
HETATM   13  C   UNL     1     -10.031  10.535  66.912  1.00  0.00    -0.246 C  
HETATM   14  C   UNL     1      -9.802   9.399  65.906  1.00  0.00    -0.291 C  
HETATM   15  C   UNL     1     -10.168   8.158  66.707  1.00  0.00    -0.372 C  
HETATM   16  O   UNL     1      -8.431   9.299  65.526  1.00  0.00    -0.126 OA 
HETATM   17  C   UNL     1      -9.517   8.415  68.065  1.00  0.00    -0.143 C  
HETATM   18  H   UNL     1      -8.289   8.595  64.903  1.00  0.00     0.000 HD 
HETATM   19  C   UNL     1      -9.532   9.954  68.262  1.00  0.00    -0.147 C  
HETATM   20  O   UNL     1      -8.168   7.943  68.050  1.00  0.00    -0.124 OA 
HETATM   21  H   UNL     1      -7.764   8.102  68.895  1.00  0.00     0.000 HD 
BRANCH  19  22
HETATM   22  C   UNL     1     -10.361  10.369  69.461  1.00  0.00    -0.264 C  
HETATM   23  C   UNL     1     -11.626   9.975  69.699  1.00  0.00    -0.156 C  
BRANCH  23  24
HETATM   24  C   UNL     1     -12.407  10.286  70.953  1.00  0.00    -0.373 C  
HETATM   25  F   UNL     1     -13.644  10.750  70.624  1.00  0.00    -0.164 F  
HETATM   26  F   UNL     1     -11.786  11.288  71.633  1.00  0.00    -0.089 F  
BRANCH  24  27
HETATM   27  C   UNL     1     -12.548   9.056  71.864  1.00  0.00    -0.382 C  
BRANCH  27  28
HETATM   28  O   UNL     1     -11.896   7.916  71.286  1.00  0.00    -0.288 OA 
BRANCH  28  29
HETATM   29  C   UNL     1     -11.414   6.999  72.181  1.00  0.00    -0.274 A  
HETATM   30  C   UNL     1     -10.688   7.528  73.250  1.00  0.00    -0.437 A  
HETATM   31  C   UNL     1     -10.151   6.686  74.226  1.00  0.00    -0.378 A  
HETATM   32  C   UNL     1     -10.352   5.310  74.144  1.00  0.00    -0.308 A  
HETATM   33  C   UNL     1     -11.093   4.777  73.091  1.00  0.00    -0.388 A  
HETATM   34  C   UNL     1     -11.626   5.620  72.110  1.00  0.00    -0.202 A  
ENDBRANCH  28  29
ENDBRANCH  27  28
ENDBRANCH  24  27
ENDBRANCH  23  24
ENDBRANCH  19  22
ENDBRANCH  12  13
ENDBRANCH  11  12
ENDBRANCH   9  10
ENDBRANCH   8   9
ENDBRANCH   7   8
ENDBRANCH   5   7
ENDBRANCH   4   5
ENDBRANCH   2   4
TORSDOF 13
ENDMDL
MODEL       92
REMARK 921   NORMALIZED FREE ENERGY PREDICTED BY IDOCK:   -5.20 KCAL/MOL
REMARK 922        TOTAL FREE ENERGY PREDICTED BY IDOCK:  -11.98 KCAL/MOL
REMARK 923 INTER-LIGAND FREE ENERGY PREDICTED BY IDOCK:  -10.36 KCAL/MOL
REMARK 924 INTRA-LIGAND FREE ENERGY PREDICTED BY IDOCK:   -1.62 KCAL/MOL
REMARK 927      BINDING AFFINITY PREDICTED BY RF-SCORE:    0.00 PKD
ROOT
HETATM    1  C   UNL     1     -11.630   7.789  72.756  1.00  0.00    -0.368 C  
HETATM    2  C   UNL     1     -10.326   7.094  73.131  1.00  0.00    -0.295 C  
HETATM    3  C   UNL     1     -10.572   5.629  73.469  1.00  0.00    -0.300 C  
ENDROOT
BRANCH   2   4
HETATM    4  O   UNL     1      -9.423   7.136  72.012  1.00  0.00    -0.139 OA 
BRANCH   4   5
HETATM    5  C   UNL     1      -8.390   8.018  72.125  1.00  0.00    -0.143 C  
HETATM    6  O   UNL     1      -8.179   8.741  73.088  1.00  0.00    -0.411 OA 
BRANCH   5   7
HETATM    7  C   UNL     1      -7.566   8.013  70.865  1.00  0.00    -0.078 C  
BRANCH   7   8
HETATM    8  C   UNL     1      -8.442   8.291  69.645  1.00  0.00    -0.125 C  
BRANCH   8   9
HETATM    9  C   UNL     1      -9.045   9.691  69.729  1.00  0.00    -0.232 C  
BRANCH   9  10
HETATM   10  C   UNL     1      -8.208  10.708  69.011  1.00  0.00    -0.151 C  
HETATM   11  C   UNL     1      -8.475  11.242  67.809  1.00  0.00    -0.126 C  
BRANCH  11  12
HETATM   12  C   UNL     1      -9.664  10.927  66.939  1.00  0.00    -0.210 C  
BRANCH  12  13
HETATM   13  C   UNL     1      -9.580  11.674  65.603  1.00  0.00    -0.252 C  
HETATM   14  C   UNL     1      -9.368  10.770  64.381  1.00  0.00    -0.242 C  
HETATM   15  C   UNL     1      -9.771  11.668  63.221  1.00  0.00    -0.390 C  
HETATM   16  O   UNL     1     -10.241   9.643  64.401  1.00  0.00    -0.258 OA 
HETATM   17  C   UNL     1     -11.040  12.348  63.732  1.00  0.00    -0.445 C  
HETATM   18  H   UNL     1     -10.109   9.083  63.643  1.00  0.00     0.000 HD 
HETATM   19  C   UNL     1     -10.873  12.466  65.270  1.00  0.00    -0.324 C  
HETATM   20  O   UNL     1     -12.177  11.537  63.430  1.00  0.00    -0.748 OA 
HETATM   21  H   UNL     1     -12.966  11.961  63.747  1.00  0.00     0.000 HD 
BRANCH  19  22
HETATM   22  C   UNL     1     -10.855  13.909  65.735  1.00  0.00    -0.289 C  
HETATM   23  C   UNL     1     -10.538  14.315  66.979  1.00  0.00    -0.280 C  
BRANCH  23  24
HETATM   24  C   UNL     1     -10.398  15.755  67.408  1.00  0.00    -0.282 C  
HETATM   25  F   UNL     1     -10.737  16.579  66.379  1.00  0.00    -0.311 F  
HETATM   26  F   UNL     1      -9.095  16.015  67.699  1.00  0.00    -0.193 F  
BRANCH  24  27
HETATM   27  C   UNL     1     -11.272  16.078  68.631  1.00  0.00    -0.366 C  
BRANCH  27  28
HETATM   28  O   UNL     1     -11.781  14.876  69.227  1.00  0.00    -0.285 OA 
BRANCH  28  29
HETATM   29  C   UNL     1     -12.162  14.986  70.537  1.00  0.00    -0.337 A  
HETATM   30  C   UNL     1     -12.872  13.899  71.049  1.00  0.00    -0.394 A  
HETATM   31  C   UNL     1     -13.309  13.901  72.376  1.00  0.00    -0.629 A  
HETATM   32  C   UNL     1     -13.022  14.986  73.201  1.00  0.00    -0.631 A  
HETATM   33  C   UNL     1     -12.294  16.065  72.702  1.00  0.00    -0.594 A  
HETATM   34  C   UNL     1     -11.862  16.066  71.372  1.00  0.00    -0.531 A  
ENDBRANCH  28  29
ENDBRANCH  27  28
ENDBRANCH  24  27
ENDBRANCH  23  24
ENDBRANCH  19  22
ENDBRANCH  12  13
ENDBRANCH  11  12
ENDBRANCH   9  10
ENDBRANCH   8   9
ENDBRANCH   7   8
ENDBRANCH   5   7
ENDBRANCH   4   5
ENDBRANCH   2   4
TORSDOF 13
ENDMDL
MODEL       93
REMARK 921   NORMALIZED FREE ENERGY PREDICTED BY IDOCK:   -5.19 KCAL/MOL
REMARK 922        TOTAL FREE ENERGY PREDICTED BY IDOCK:  -11.97 KCAL/MOL
REMARK 923 INTER-LIGAND FREE ENERGY PREDICTED BY IDOCK:   -9.69 KCAL/MOL
REMARK 924 INTRA-LIGAND FREE ENERGY PREDICTED BY IDOCK:   -2.28 KCAL/MOL
REMARK 927      BINDING AFFINITY PREDICTED BY RF-SCORE:    0.00 PKD
ROOT
HETATM    1  C   UNL     1      -7.589  12.940  68.221  1.00  0.00    -0.134 C  
HETATM    2  C   UNL     1      -7.490  11.439  67.970  1.00  0.00    -0.100 C  
HETATM    3  C   UNL     1      -7.004  11.159  66.553  1.00  0.00    -0.126 C  
ENDROOT
BRANCH   2   4
HETATM    4  O   UNL     1      -6.533  10.866  68.879  1.00  0.00    -0.044 OA 
BRANCH   4   5
HETATM    5  C   UNL     1      -7.061  10.145  69.907  1.00  0.00    -0.144 C  
HETATM    6  O   UNL     1      -6.646  10.142  71.057  1.00  0.00    -0.331 OA 
BRANCH   5   7
HETATM    7  C   UNL     1      -8.209   9.304  69.413  1.00  0.00    -0.114 C  
BRANCH   7   8
HETATM    8  C   UNL     1      -9.358   9.314  70.418  1.00  0.00    -0.295 C  
BRANCH   8   9
HETATM    9  C   UNL     1     -10.695   9.133  69.703  1.00  0.00    -0.236 C  
BRANCH   9  10
HETATM   10  C   UNL     1     -11.425  10.434  69.537  1.00  0.00    -0.311 C  
HETATM   11  C   UNL     1     -11.516  11.146  68.403  1.00  0.00    -0.377 C  
BRANCH  11  12
HETATM   12  C   UNL     1     -10.907  10.786  67.073  1.00  0.00    -0.311 C  
BRANCH  12  13
HETATM   13  C   UNL     1     -10.637  12.041  66.236  1.00  0.00    -0.287 C  
HETATM   14  C   UNL     1     -10.192  11.760  64.794  1.00  0.00    -0.282 C  
HETATM   15  C   UNL     1     -10.438  13.090  64.098  1.00  0.00    -0.395 C  
HETATM   16  O   UNL     1     -11.009  10.771  64.172  1.00  0.00    -0.339 OA 
HETATM   17  C   UNL     1     -11.800  13.521  64.640  1.00  0.00    -0.394 C  
HETATM   18  H   UNL     1     -10.733  10.597  63.279  1.00  0.00     0.000 HD 
HETATM   19  C   UNL     1     -11.890  12.943  66.077  1.00  0.00    -0.485 C  
HETATM   20  O   UNL     1     -12.838  12.966  63.830  1.00  0.00    -0.683 OA 
HETATM   21  H   UNL     1     -13.685  13.234  64.167  1.00  0.00     0.000 HD 
BRANCH  19  22
HETATM   22  C   UNL     1     -12.007  14.033  67.125  1.00  0.00    -0.465 C  
HETATM   23  C   UNL     1     -10.967  14.644  67.722  1.00  0.00    -0.291 C  
BRANCH  23  24
HETATM   24  C   UNL     1     -11.081  15.813  68.672  1.00  0.00    -0.327 C  
HETATM   25  F   UNL     1     -10.232  15.639  69.722  1.00  0.00    -0.232 F  
HETATM   26  F   UNL     1     -12.338  15.851  69.191  1.00  0.00    -0.348 F  
BRANCH  24  27
HETATM   27  C   UNL     1     -10.770  17.149  67.978  1.00  0.00    -0.372 C  
BRANCH  27  28
HETATM   28  O   UNL     1      -9.843  17.923  68.754  1.00  0.00    -0.344 OA 
BRANCH  28  29
HETATM   29  C   UNL     1      -8.948  18.664  68.030  1.00  0.00    -0.302 A  
HETATM   30  C   UNL     1      -7.796  19.052  68.717  1.00  0.00    -0.378 A  
HETATM   31  C   UNL     1      -6.812  19.809  68.076  1.00  0.00    -0.297 A  
HETATM   32  C   UNL     1      -6.970  20.168  66.740  1.00  0.00    -0.268 A  
HETATM   33  C   UNL     1      -8.109  19.765  66.043  1.00  0.00    -0.334 A  
HETATM   34  C   UNL     1      -9.096  19.012  66.685  1.00  0.00    -0.346 A  
ENDBRANCH  28  29
ENDBRANCH  27  28
ENDBRANCH  24  27
ENDBRANCH  23  24
ENDBRANCH  19  22
ENDBRANCH  12  13
ENDBRANCH  11  12
ENDBRANCH   9  10
ENDBRANCH   8   9
ENDBRANCH   7   8
ENDBRANCH   5   7
ENDBRANCH   4   5
ENDBRANCH   2   4
TORSDOF 13
ENDMDL
MODEL       94
REMARK 921   NORMALIZED FREE ENERGY PREDICTED BY IDOCK:   -5.17 KCAL/MOL
REMARK 922        TOTAL FREE ENERGY PREDICTED BY IDOCK:  -11.94 KCAL/MOL
REMARK 923 INTER-LIGAND FREE ENERGY PREDICTED BY IDOCK:   -9.89 KCAL/MOL
REMARK 924 INTRA-LIGAND FREE ENERGY PREDICTED BY IDOCK:   -2.04 KCAL/MOL
REMARK 927      BINDING AFFINITY PREDICTED BY RF-SCORE:    0.00 PKD
ROOT
HETATM    1  C   UNL     1     -11.937  17.086  73.024  1.00  0.00     0.238 C  
HETATM    2  C   UNL     1     -12.188  15.582  73.048  1.00  0.00    -0.454 C  
HETATM    3  C   UNL     1     -12.406  15.092  74.474  1.00  0.00    -0.514 C  
ENDROOT
BRANCH   2   4
HETATM    4  O   UNL     1     -13.380  15.284  72.300  1.00  0.00    -0.358 OA 
BRANCH   4   5
HETATM    5  C   UNL     1     -13.287  14.229  71.443  1.00  0.00    -0.340 C  
HETATM    6  O   UNL     1     -13.568  13.070  71.713  1.00  0.00    -0.362 OA 
BRANCH   5   7
HETATM    7  C   UNL     1     -12.734  14.686  70.119  1.00  0.00    -0.268 C  
BRANCH   7   8
HETATM    8  C   UNL     1     -11.597  13.774  69.664  1.00  0.00    -0.343 C  
BRANCH   8   9
HETATM    9  C   UNL     1     -10.357  14.596  69.320  1.00  0.00    -0.183 C  
BRANCH   9  10
HETATM   10  C   UNL     1     -10.697  15.818  68.517  1.00  0.00    -0.274 C  
HETATM   11  C   UNL     1     -10.504  15.972  67.198  1.00  0.00    -0.308 C  
BRANCH  11  12
HETATM   12  C   UNL     1      -9.908  14.956  66.260  1.00  0.00    -0.315 C  
BRANCH  12  13
HETATM   13  C   UNL     1     -10.889  13.807  66.001  1.00  0.00    -0.282 C  
HETATM   14  C   UNL     1     -12.164  14.216  65.251  1.00  0.00    -0.434 C  
HETATM   15  C   UNL     1     -12.701  12.886  64.744  1.00  0.00    -0.442 C  
HETATM   16  O   UNL     1     -11.873  15.041  64.125  1.00  0.00    -0.690 OA 
HETATM   17  C   UNL     1     -11.447  12.175  64.237  1.00  0.00    -0.367 C  
HETATM   18  H   UNL     1     -12.663  15.293  63.661  1.00  0.00     0.000 HD 
HETATM   19  C   UNL     1     -10.281  12.677  65.127  1.00  0.00    -0.300 C  
HETATM   20  O   UNL     1     -11.207  12.535  62.875  1.00  0.00    -0.655 OA 
HETATM   21  H   UNL     1     -10.428  12.093  62.560  1.00  0.00     0.000 HD 
BRANCH  19  22
HETATM   22  C   UNL     1      -9.642  11.554  65.920  1.00  0.00    -0.254 C  
HETATM   23  C   UNL     1     -10.173  10.328  66.087  1.00  0.00    -0.285 C  
BRANCH  23  24
HETATM   24  C   UNL     1      -9.481   9.173  66.770  1.00  0.00    -0.175 C  
HETATM   25  F   UNL     1      -8.385   9.622  67.441  1.00  0.00    -0.112 F  
HETATM   26  F   UNL     1      -9.029   8.299  65.831  1.00  0.00    -0.168 F  
BRANCH  24  27
HETATM   27  C   UNL     1     -10.415   8.440  67.747  1.00  0.00    -0.220 C  
BRANCH  27  28
HETATM   28  O   UNL     1     -10.704   9.260  68.889  1.00  0.00    -0.215 OA 
BRANCH  28  29
HETATM   29  C   UNL     1     -10.687   8.613  70.095  1.00  0.00    -0.234 A  
HETATM   30  C   UNL     1     -10.021   9.281  71.125  1.00  0.00    -0.356 A  
HETATM   31  C   UNL     1      -9.944   8.715  72.400  1.00  0.00    -0.320 A  
HETATM   32  C   UNL     1     -10.545   7.485  72.654  1.00  0.00    -0.338 A  
HETATM   33  C   UNL     1     -11.229   6.823  71.635  1.00  0.00    -0.293 A  
HETATM   34  C   UNL     1     -11.302   7.386  70.357  1.00  0.00    -0.273 A  
ENDBRANCH  28  29
ENDBRANCH  27  28
ENDBRANCH  24  27
ENDBRANCH  23  24
ENDBRANCH  19  22
ENDBRANCH  12  13
ENDBRANCH  11  12
ENDBRANCH   9  10
ENDBRANCH   8   9
ENDBRANCH   7   8
ENDBRANCH   5   7
ENDBRANCH   4   5
ENDBRANCH   2   4
TORSDOF 13
ENDMDL
MODEL       95
REMARK 921   NORMALIZED FREE ENERGY PREDICTED BY IDOCK:   -5.16 KCAL/MOL
REMARK 922        TOTAL FREE ENERGY PREDICTED BY IDOCK:  -11.92 KCAL/MOL
REMARK 923 INTER-LIGAND FREE ENERGY PREDICTED BY IDOCK:   -8.75 KCAL/MOL
REMARK 924 INTRA-LIGAND FREE ENERGY PREDICTED BY IDOCK:   -3.17 KCAL/MOL
REMARK 927      BINDING AFFINITY PREDICTED BY RF-SCORE:    0.00 PKD
ROOT
HETATM    1  C   UNL     1     -12.134  15.559  63.831  1.00  0.00     0.210 C  
HETATM    2  C   UNL     1     -11.432  14.608  64.794  1.00  0.00    -0.410 C  
HETATM    3  C   UNL     1     -11.301  15.237  66.175  1.00  0.00    -0.160 C  
ENDROOT
BRANCH   2   4
HETATM    4  O   UNL     1     -12.212  13.408  64.935  1.00  0.00    -0.371 OA 
BRANCH   4   5
HETATM    5  C   UNL     1     -11.873  12.387  64.098  1.00  0.00    -0.413 C  
HETATM    6  O   UNL     1     -12.629  11.833  63.313  1.00  0.00    -0.561 OA 
BRANCH   5   7
HETATM    7  C   UNL     1     -10.435  11.998  64.315  1.00  0.00    -0.369 C  
BRANCH   7   8
HETATM    8  C   UNL     1     -10.330  10.846  65.312  1.00  0.00    -0.334 C  
BRANCH   8   9
HETATM    9  C   UNL     1     -10.239  11.380  66.739  1.00  0.00    -0.258 C  
BRANCH   9  10
HETATM   10  C   UNL     1     -11.542  11.253  67.472  1.00  0.00    -0.257 C  
HETATM   11  C   UNL     1     -11.946  12.018  68.498  1.00  0.00    -0.273 C  
BRANCH  11  12
HETATM   12  C   UNL     1     -11.176  13.153  69.120  1.00  0.00    -0.303 C  
BRANCH  12  13
HETATM   13  C   UNL     1     -12.124  14.241  69.638  1.00  0.00    -0.396 C  
HETATM   14  C   UNL     1     -13.059  13.786  70.765  1.00  0.00    -0.096 C  
HETATM   15  C   UNL     1     -13.526  15.101  71.371  1.00  0.00    -0.561 C  
HETATM   16  O   UNL     1     -12.359  13.053  71.769  1.00  0.00    -0.050 OA 
HETATM   17  C   UNL     1     -12.244  15.931  71.431  1.00  0.00    -0.448 C  
HETATM   18  H   UNL     1     -12.939  12.772  72.468  1.00  0.00     0.000 HD 
HETATM   19  C   UNL     1     -11.375  15.462  70.235  1.00  0.00    -0.332 C  
HETATM   20  O   UNL     1     -11.559  15.671  72.658  1.00  0.00    -0.449 OA 
HETATM   21  H   UNL     1     -10.763  16.187  72.696  1.00  0.00     0.000 HD 
BRANCH  19  22
HETATM   22  C   UNL     1     -11.118  16.579  69.243  1.00  0.00    -0.260 C  
HETATM   23  C   UNL     1     -10.218  17.567  69.408  1.00  0.00    -0.089 C  
BRANCH  23  24
HETATM   24  C   UNL     1      -9.873  18.605  68.368  1.00  0.00    -0.384 C  
HETATM   25  F   UNL     1      -9.583  19.789  68.975  1.00  0.00    -0.416 F  
HETATM   26  F   UNL     1     -10.959  18.831  67.580  1.00  0.00    -0.473 F  
BRANCH  24  27
HETATM   27  C   UNL     1      -8.684  18.173  67.495  1.00  0.00    -0.249 C  
BRANCH  27  28
HETATM   28  O   UNL     1      -7.677  17.527  68.287  1.00  0.00    -0.228 OA 
BRANCH  28  29
HETATM   29  C   UNL     1      -7.644  16.162  68.195  1.00  0.00    -0.137 A  
HETATM   30  C   UNL     1      -7.231  15.492  69.349  1.00  0.00    -0.204 A  
HETATM   31  C   UNL     1      -7.162  14.097  69.369  1.00  0.00    -0.011 A  
HETATM   32  C   UNL     1      -7.520  13.365  68.239  1.00  0.00    -0.129 A  
HETATM   33  C   UNL     1      -7.953  14.028  67.091  1.00  0.00    -0.083 A  
HETATM   34  C   UNL     1      -8.016  15.424  67.068  1.00  0.00    -0.259 A  
ENDBRANCH  28  29
ENDBRANCH  27  28
ENDBRANCH  24  27
ENDBRANCH  23  24
ENDBRANCH  19  22
ENDBRANCH  12  13
ENDBRANCH  11  12
ENDBRANCH   9  10
ENDBRANCH   8   9
ENDBRANCH   7   8
ENDBRANCH   5   7
ENDBRANCH   4   5
ENDBRANCH   2   4
TORSDOF 13
ENDMDL
MODEL       96
REMARK 921   NORMALIZED FREE ENERGY PREDICTED BY IDOCK:   -5.16 KCAL/MOL
REMARK 922        TOTAL FREE ENERGY PREDICTED BY IDOCK:  -11.92 KCAL/MOL
REMARK 923 INTER-LIGAND FREE ENERGY PREDICTED BY IDOCK:   -9.42 KCAL/MOL
REMARK 924 INTRA-LIGAND FREE ENERGY PREDICTED BY IDOCK:   -2.50 KCAL/MOL
REMARK 927      BINDING AFFINITY PREDICTED BY RF-SCORE:    0.00 PKD
ROOT
HETATM    1  C   UNL     1      -9.411   2.673  68.887  1.00  0.00    -0.223 C  
HETATM    2  C   UNL     1      -8.783   3.893  68.221  1.00  0.00    -0.101 C  
HETATM    3  C   UNL     1      -7.303   3.655  67.945  1.00  0.00    -0.062 C  
ENDROOT
BRANCH   2   4
HETATM    4  O   UNL     1      -9.428   4.132  66.958  1.00  0.00    -0.166 OA 
BRANCH   4   5
HETATM    5  C   UNL     1      -9.141   5.328  66.371  1.00  0.00    -0.137 C  
HETATM    6  O   UNL     1      -8.463   5.479  65.364  1.00  0.00    -0.136 OA 
BRANCH   5   7
HETATM    7  C   UNL     1      -9.738   6.454  67.173  1.00  0.00    -0.170 C  
BRANCH   7   8
HETATM    8  C   UNL     1      -8.643   7.289  67.832  1.00  0.00    -0.120 C  
BRANCH   8   9
HETATM    9  C   UNL     1      -8.737   8.745  67.381  1.00  0.00    -0.132 C  
BRANCH   9  10
HETATM   10  C   UNL     1      -9.707   8.922  66.250  1.00  0.00    -0.345 C  
HETATM   11  C   UNL     1      -9.860  10.032  65.510  1.00  0.00    -0.373 C  
BRANCH  11  12
HETATM   12  C   UNL     1      -9.093  11.319  65.666  1.00  0.00    -0.203 C  
BRANCH  12  13
HETATM   13  C   UNL     1     -10.045  12.508  65.831  1.00  0.00    -0.270 C  
HETATM   14  C   UNL     1     -10.275  13.322  64.550  1.00  0.00    -0.310 C  
HETATM   15  C   UNL     1     -11.543  14.101  64.866  1.00  0.00    -0.379 C  
HETATM   16  O   UNL     1     -10.534  12.480  63.429  1.00  0.00    -0.421 OA 
HETATM   17  C   UNL     1     -12.433  13.059  65.542  1.00  0.00    -0.438 C  
HETATM   18  H   UNL     1     -10.677  12.984  62.636  1.00  0.00     0.000 HD 
HETATM   19  C   UNL     1     -11.472  12.085  66.273  1.00  0.00    -0.408 C  
HETATM   20  O   UNL     1     -13.180  12.348  64.552  1.00  0.00    -0.834 OA 
HETATM   21  H   UNL     1     -13.733  11.701  64.972  1.00  0.00     0.000 HD 
BRANCH  19  22
HETATM   22  C   UNL     1     -11.684  12.091  67.774  1.00  0.00    -0.379 C  
HETATM   23  C   UNL     1     -11.835  10.992  68.537  1.00  0.00    -0.286 C  
BRANCH  23  24
HETATM   24  C   UNL     1     -11.921  10.992  70.044  1.00  0.00    -0.351 C  
HETATM   25  F   UNL     1     -13.156  10.574  70.437  1.00  0.00    -0.397 F  
HETATM   26  F   UNL     1     -11.779  12.265  70.504  1.00  0.00    -0.370 F  
BRANCH  24  27
HETATM   27  C   UNL     1     -10.850  10.092  70.682  1.00  0.00    -0.235 C  
BRANCH  27  28
HETATM   28  O   UNL     1     -10.914   8.763  70.144  1.00  0.00    -0.239 OA 
BRANCH  28  29
HETATM   29  C   UNL     1     -10.855   7.754  71.067  1.00  0.00    -0.239 A  
HETATM   30  C   UNL     1     -10.742   8.162  72.397  1.00  0.00    -0.404 A  
HETATM   31  C   UNL     1     -10.677   7.217  73.424  1.00  0.00    -0.415 A  
HETATM   32  C   UNL     1     -10.741   5.859  73.124  1.00  0.00    -0.288 A  
HETATM   33  C   UNL     1     -10.875   5.445  71.800  1.00  0.00    -0.242 A  
HETATM   34  C   UNL     1     -10.935   6.390  70.771  1.00  0.00    -0.346 A  
ENDBRANCH  28  29
ENDBRANCH  27  28
ENDBRANCH  24  27
ENDBRANCH  23  24
ENDBRANCH  19  22
ENDBRANCH  12  13
ENDBRANCH  11  12
ENDBRANCH   9  10
ENDBRANCH   8   9
ENDBRANCH   7   8
ENDBRANCH   5   7
ENDBRANCH   4   5
ENDBRANCH   2   4
TORSDOF 13
ENDMDL
MODEL       97
REMARK 921   NORMALIZED FREE ENERGY PREDICTED BY IDOCK:   -5.16 KCAL/MOL
REMARK 922        TOTAL FREE ENERGY PREDICTED BY IDOCK:  -11.92 KCAL/MOL
REMARK 923 INTER-LIGAND FREE ENERGY PREDICTED BY IDOCK:  -10.02 KCAL/MOL
REMARK 924 INTRA-LIGAND FREE ENERGY PREDICTED BY IDOCK:   -1.90 KCAL/MOL
REMARK 927      BINDING AFFINITY PREDICTED BY RF-SCORE:    0.00 PKD
ROOT
HETATM    1  C   UNL     1     -11.268   6.275  69.552  1.00  0.00    -0.500 C  
HETATM    2  C   UNL     1     -10.939   5.969  71.009  1.00  0.00    -0.286 C  
HETATM    3  C   UNL     1     -10.015   4.762  71.113  1.00  0.00    -0.273 C  
ENDROOT
BRANCH   2   4
HETATM    4  O   UNL     1     -10.254   7.092  71.591  1.00  0.00    -0.193 OA 
BRANCH   4   5
HETATM    5  C   UNL     1     -11.048   8.137  71.959  1.00  0.00    -0.306 C  
HETATM    6  O   UNL     1     -12.077   8.048  72.613  1.00  0.00    -0.328 OA 
BRANCH   5   7
HETATM    7  C   UNL     1     -10.503   9.423  71.397  1.00  0.00    -0.358 C  
BRANCH   7   8
HETATM    8  C   UNL     1      -9.320   9.150  70.470  1.00  0.00    -0.287 C  
BRANCH   8   9
HETATM    9  C   UNL     1      -9.380  10.059  69.245  1.00  0.00    -0.224 C  
BRANCH   9  10
HETATM   10  C   UNL     1     -10.787  10.459  68.910  1.00  0.00    -0.273 C  
HETATM   11  C   UNL     1     -11.253  10.746  67.684  1.00  0.00    -0.370 C  
BRANCH  11  12
HETATM   12  C   UNL     1     -10.461  10.726  66.403  1.00  0.00    -0.293 C  
BRANCH  12  13
HETATM   13  C   UNL     1     -10.283  12.143  65.846  1.00  0.00    -0.272 C  
HETATM   14  C   UNL     1     -11.246  12.504  64.707  1.00  0.00    -0.306 C  
HETATM   15  C   UNL     1     -11.172  14.023  64.669  1.00  0.00    -0.377 C  
HETATM   16  O   UNL     1     -12.588  12.128  65.010  1.00  0.00    -0.514 OA 
HETATM   17  C   UNL     1     -11.207  14.411  66.147  1.00  0.00    -0.336 C  
HETATM   18  H   UNL     1     -13.184  12.352  64.305  1.00  0.00     0.000 HD 
HETATM   19  C   UNL     1     -10.523  13.247  66.910  1.00  0.00    -0.261 C  
HETATM   20  O   UNL     1     -12.563  14.541  66.578  1.00  0.00    -0.461 OA 
HETATM   21  H   UNL     1     -12.585  14.782  67.497  1.00  0.00     0.000 HD 
BRANCH  19  22
HETATM   22  C   UNL     1      -9.268  13.697  67.632  1.00  0.00    -0.213 C  
HETATM   23  C   UNL     1      -8.556  14.799  67.329  1.00  0.00    -0.230 C  
BRANCH  23  24
HETATM   24  C   UNL     1      -7.381  15.314  68.124  1.00  0.00    -0.114 C  
HETATM   25  F   UNL     1      -6.426  15.793  67.280  1.00  0.00    -0.180 F  
HETATM   26  F   UNL     1      -6.812  14.283  68.807  1.00  0.00    -0.081 F  
BRANCH  24  27
HETATM   27  C   UNL     1      -7.793  16.418  69.111  1.00  0.00    -0.214 C  
BRANCH  27  28
HETATM   28  O   UNL     1      -9.158  16.808  68.900  1.00  0.00    -0.254 OA 
BRANCH  28  29
HETATM   29  C   UNL     1      -9.334  17.958  68.179  1.00  0.00    -0.286 A  
HETATM   30  C   UNL     1     -10.313  17.900  67.184  1.00  0.00    -0.371 A  
HETATM   31  C   UNL     1     -10.580  19.017  66.389  1.00  0.00    -0.492 A  
HETATM   32  C   UNL     1      -9.880  20.203  66.597  1.00  0.00    -0.588 A  
HETATM   33  C   UNL     1      -8.916  20.274  67.602  1.00  0.00    -0.393 A  
HETATM   34  C   UNL     1      -8.644  19.155  68.395  1.00  0.00    -0.387 A  
ENDBRANCH  28  29
ENDBRANCH  27  28
ENDBRANCH  24  27
ENDBRANCH  23  24
ENDBRANCH  19  22
ENDBRANCH  12  13
ENDBRANCH  11  12
ENDBRANCH   9  10
ENDBRANCH   8   9
ENDBRANCH   7   8
ENDBRANCH   5   7
ENDBRANCH   4   5
ENDBRANCH   2   4
TORSDOF 13
ENDMDL
MODEL       98
REMARK 921   NORMALIZED FREE ENERGY PREDICTED BY IDOCK:   -5.15 KCAL/MOL
REMARK 922        TOTAL FREE ENERGY PREDICTED BY IDOCK:  -11.90 KCAL/MOL
REMARK 923 INTER-LIGAND FREE ENERGY PREDICTED BY IDOCK:   -8.96 KCAL/MOL
REMARK 924 INTRA-LIGAND FREE ENERGY PREDICTED BY IDOCK:   -2.93 KCAL/MOL
REMARK 927      BINDING AFFINITY PREDICTED BY RF-SCORE:    0.00 PKD
ROOT
HETATM    1  C   UNL     1     -11.835  13.900  66.644  1.00  0.00    -0.447 C  
HETATM    2  C   UNL     1     -11.765  13.674  65.138  1.00  0.00    -0.331 C  
HETATM    3  C   UNL     1     -12.047  14.968  64.384  1.00  0.00    -0.373 C  
ENDROOT
BRANCH   2   4
HETATM    4  O   UNL     1     -10.441  13.242  64.780  1.00  0.00    -0.348 OA 
BRANCH   4   5
HETATM    5  C   UNL     1     -10.342  11.955  64.344  1.00  0.00    -0.299 C  
HETATM    6  O   UNL     1     -10.906  11.494  63.362  1.00  0.00    -0.389 OA 
BRANCH   5   7
HETATM    7  C   UNL     1      -9.473  11.158  65.280  1.00  0.00    -0.257 C  
BRANCH   7   8
HETATM    8  C   UNL     1      -9.985   9.725  65.405  1.00  0.00    -0.302 C  
BRANCH   8   9
HETATM    9  C   UNL     1      -9.206   8.970  66.479  1.00  0.00    -0.226 C  
BRANCH   9  10
HETATM   10  C   UNL     1     -10.112   8.208  67.401  1.00  0.00    -0.298 C  
HETATM   11  C   UNL     1     -10.500   8.600  68.625  1.00  0.00    -0.208 C  
BRANCH  11  12
HETATM   12  C   UNL     1     -10.106   9.878  69.318  1.00  0.00    -0.214 C  
BRANCH  12  13
HETATM   13  C   UNL     1     -10.932  10.089  70.592  1.00  0.00    -0.392 C  
HETATM   14  C   UNL     1     -11.890  11.287  70.538  1.00  0.00    -0.324 C  
HETATM   15  C   UNL     1     -12.860  10.997  71.673  1.00  0.00    -0.540 C  
HETATM   16  O   UNL     1     -12.626  11.319  69.317  1.00  0.00    -0.289 OA 
HETATM   17  C   UNL     1     -13.143   9.503  71.517  1.00  0.00    -0.389 C  
HETATM   18  H   UNL     1     -13.220  12.061  69.284  1.00  0.00     0.000 HD 
HETATM   19  C   UNL     1     -11.850   8.883  70.925  1.00  0.00    -0.283 C  
HETATM   20  O   UNL     1     -14.230   9.311  70.610  1.00  0.00    -0.422 OA 
HETATM   21  H   UNL     1     -14.406   8.382  70.513  1.00  0.00     0.000 HD 
BRANCH  19  22
HETATM   22  C   UNL     1     -11.224   7.865  71.858  1.00  0.00    -0.320 C  
HETATM   23  C   UNL     1     -11.794   6.702  72.226  1.00  0.00    -0.289 C  
BRANCH  23  24
HETATM   24  C   UNL     1     -11.121   5.634  73.054  1.00  0.00    -0.282 C  
HETATM   25  F   UNL     1     -12.002   4.630  73.317  1.00  0.00    -0.391 F  
HETATM   26  F   UNL     1     -10.759   6.157  74.257  1.00  0.00    -0.261 F  
BRANCH  24  27
HETATM   27  C   UNL     1      -9.881   5.057  72.351  1.00  0.00    -0.169 C  
BRANCH  27  28
HETATM   28  O   UNL     1     -10.149   4.813  70.962  1.00  0.00    -0.207 OA 
BRANCH  28  29
HETATM   29  C   UNL     1      -9.181   5.240  70.094  1.00  0.00    -0.139 A  
HETATM   30  C   UNL     1      -9.181   4.621  68.842  1.00  0.00    -0.181 A  
HETATM   31  C   UNL     1      -8.239   4.980  67.876  1.00  0.00    -0.097 A  
HETATM   32  C   UNL     1      -7.302   5.973  68.153  1.00  0.00    -0.085 A  
HETATM   33  C   UNL     1      -7.310   6.610  69.393  1.00  0.00    -0.092 A  
HETATM   34  C   UNL     1      -8.249   6.246  70.363  1.00  0.00    -0.121 A  
ENDBRANCH  28  29
ENDBRANCH  27  28
ENDBRANCH  24  27
ENDBRANCH  23  24
ENDBRANCH  19  22
ENDBRANCH  12  13
ENDBRANCH  11  12
ENDBRANCH   9  10
ENDBRANCH   8   9
ENDBRANCH   7   8
ENDBRANCH   5   7
ENDBRANCH   4   5
ENDBRANCH   2   4
TORSDOF 13
ENDMDL
MODEL       99
REMARK 921   NORMALIZED FREE ENERGY PREDICTED BY IDOCK:   -5.14 KCAL/MOL
REMARK 922        TOTAL FREE ENERGY PREDICTED BY IDOCK:  -11.89 KCAL/MOL
REMARK 923 INTER-LIGAND FREE ENERGY PREDICTED BY IDOCK:   -9.69 KCAL/MOL
REMARK 924 INTRA-LIGAND FREE ENERGY PREDICTED BY IDOCK:   -2.19 KCAL/MOL
REMARK 927      BINDING AFFINITY PREDICTED BY RF-SCORE:    0.00 PKD
ROOT
HETATM    1  C   UNL     1      -8.928  17.743  66.575  1.00  0.00    -0.280 C  
HETATM    2  C   UNL     1      -9.621  17.816  67.931  1.00  0.00    -0.280 C  
HETATM    3  C   UNL     1     -10.012  19.250  68.263  1.00  0.00    -0.497 C  
ENDROOT
BRANCH   2   4
HETATM    4  O   UNL     1     -10.829  17.035  67.893  1.00  0.00    -0.357 OA 
BRANCH   4   5
HETATM    5  C   UNL     1     -10.919  16.050  68.831  1.00  0.00    -0.309 C  
HETATM    6  O   UNL     1     -10.336  16.040  69.906  1.00  0.00    -0.283 OA 
BRANCH   5   7
HETATM    7  C   UNL     1     -11.807  14.941  68.332  1.00  0.00    -0.309 C  
BRANCH   7   8
HETATM    8  C   UNL     1     -11.031  13.630  68.235  1.00  0.00    -0.275 C  
BRANCH   8   9
HETATM    9  C   UNL     1     -11.836  12.486  68.848  1.00  0.00    -0.346 C  
BRANCH   9  10
HETATM   10  C   UNL     1     -12.187  12.751  70.282  1.00  0.00    -0.351 C  
HETATM   11  C   UNL     1     -12.653  11.848  71.159  1.00  0.00    -0.390 C  
BRANCH  11  12
HETATM   12  C   UNL     1     -12.917  10.391  70.881  1.00  0.00    -0.475 C  
BRANCH  12  13
HETATM   13  C   UNL     1     -11.885   9.502  71.584  1.00  0.00    -0.468 C  
HETATM   14  C   UNL     1     -12.485   8.479  72.558  1.00  0.00    -0.294 C  
HETATM   15  C   UNL     1     -11.351   7.482  72.743  1.00  0.00    -0.388 C  
HETATM   16  O   UNL     1     -13.597   7.794  71.986  1.00  0.00    -0.468 OA 
HETATM   17  C   UNL     1     -10.819   7.293  71.323  1.00  0.00    -0.235 C  
HETATM   18  H   UNL     1     -13.968   7.160  72.590  1.00  0.00     0.000 HD 
HETATM   19  C   UNL     1     -11.053   8.643  70.596  1.00  0.00    -0.282 C  
HETATM   20  O   UNL     1     -11.553   6.257  70.667  1.00  0.00    -0.353 OA 
HETATM   21  H   UNL     1     -11.221   6.139  69.785  1.00  0.00     0.000 HD 
BRANCH  19  22
HETATM   22  C   UNL     1      -9.754   9.287  70.154  1.00  0.00    -0.252 C  
HETATM   23  C   UNL     1      -9.620  10.110  69.096  1.00  0.00    -0.222 C  
BRANCH  23  24
HETATM   24  C   UNL     1      -8.356  10.849  68.731  1.00  0.00    -0.151 C  
HETATM   25  F   UNL     1      -7.381  10.575  69.641  1.00  0.00    -0.102 F  
HETATM   26  F   UNL     1      -8.582  12.189  68.798  1.00  0.00    -0.133 F  
BRANCH  24  27
HETATM   27  C   UNL     1      -7.860  10.481  67.323  1.00  0.00    -0.107 C  
BRANCH  27  28
HETATM   28  O   UNL     1      -8.836   9.690  66.630  1.00  0.00    -0.135 OA 
BRANCH  28  29
HETATM   29  C   UNL     1      -9.506  10.333  65.624  1.00  0.00    -0.221 A  
HETATM   30  C   UNL     1      -9.024  10.097  64.334  1.00  0.00    -0.264 A  
HETATM   31  C   UNL     1      -9.632  10.699  63.231  1.00  0.00    -0.382 A  
HETATM   32  C   UNL     1     -10.736  11.529  63.412  1.00  0.00    -0.444 A  
HETATM   33  C   UNL     1     -11.235  11.752  64.694  1.00  0.00    -0.349 A  
HETATM   34  C   UNL     1     -10.623  11.154  65.800  1.00  0.00    -0.289 A  
ENDBRANCH  28  29
ENDBRANCH  27  28
ENDBRANCH  24  27
ENDBRANCH  23  24
ENDBRANCH  19  22
ENDBRANCH  12  13
ENDBRANCH  11  12
ENDBRANCH   9  10
ENDBRANCH   8   9
ENDBRANCH   7   8
ENDBRANCH   5   7
ENDBRANCH   4   5
ENDBRANCH   2   4
TORSDOF 13
ENDMDL
MODEL      100
REMARK 921   NORMALIZED FREE ENERGY PREDICTED BY IDOCK:   -5.13 KCAL/MOL
REMARK 922        TOTAL FREE ENERGY PREDICTED BY IDOCK:  -11.87 KCAL/MOL
REMARK 923 INTER-LIGAND FREE ENERGY PREDICTED BY IDOCK:  -10.73 KCAL/MOL
REMARK 924 INTRA-LIGAND FREE ENERGY PREDICTED BY IDOCK:   -1.14 KCAL/MOL
REMARK 927      BINDING AFFINITY PREDICTED BY RF-SCORE:    0.00 PKD
ROOT
HETATM    1  C   UNL     1     -13.304   9.931  71.636  1.00  0.00    -0.481 C  
HETATM    2  C   UNL     1     -13.077   8.465  71.991  1.00  0.00    -0.352 C  
HETATM    3  C   UNL     1     -14.274   7.618  71.577  1.00  0.00    -0.564 C  
ENDROOT
BRANCH   2   4
HETATM    4  O   UNL     1     -11.929   7.973  71.277  1.00  0.00    -0.292 OA 
BRANCH   4   5
HETATM    5  C   UNL     1     -11.061   7.223  72.011  1.00  0.00    -0.244 C  
HETATM    6  O   UNL     1     -11.021   7.177  73.232  1.00  0.00    -0.322 OA 
BRANCH   5   7
HETATM    7  C   UNL     1     -10.115   6.488  71.099  1.00  0.00    -0.206 C  
BRANCH   7   8
HETATM    8  C   UNL     1      -9.043   7.433  70.558  1.00  0.00    -0.157 C  
BRANCH   8   9
HETATM    9  C   UNL     1      -9.131   7.525  69.036  1.00  0.00    -0.140 C  
BRANCH   9  10
HETATM   10  C   UNL     1     -10.295   8.359  68.589  1.00  0.00    -0.222 C  
HETATM   11  C   UNL     1     -10.533   8.771  67.334  1.00  0.00    -0.349 C  
BRANCH  11  12
HETATM   12  C   UNL     1      -9.682   8.481  66.125  1.00  0.00    -0.259 C  
BRANCH  12  13
HETATM   13  C   UNL     1      -9.151   9.779  65.504  1.00  0.00    -0.242 C  
HETATM   14  C   UNL     1      -8.213   9.573  64.307  1.00  0.00    -0.157 C  
HETATM   15  C   UNL     1      -8.215  10.939  63.636  1.00  0.00     0.187 C  
HETATM   16  O   UNL     1      -8.734   8.619  63.385  1.00  0.00    -0.419 OA 
HETATM   17  C   UNL     1      -9.689  11.341  63.672  1.00  0.00    -0.321 C  
HETATM   18  H   UNL     1      -8.152   8.492  62.644  1.00  0.00     0.000 HD 
HETATM   19  C   UNL     1     -10.279  10.689  64.949  1.00  0.00    -0.395 C  
HETATM   20  O   UNL     1     -10.356  10.831  62.516  1.00  0.00    -0.748 OA 
HETATM   21  H   UNL     1     -11.272  11.082  62.538  1.00  0.00     0.000 HD 
BRANCH  19  22
HETATM   22  C   UNL     1     -10.785  11.722  65.937  1.00  0.00    -0.328 C  
HETATM   23  C   UNL     1     -10.611  13.052  65.821  1.00  0.00    -0.291 C  
BRANCH  23  24
HETATM   24  C   UNL     1     -11.220  14.087  66.735  1.00  0.00    -0.315 C  
HETATM   25  F   UNL     1     -11.032  13.723  68.034  1.00  0.00    -0.238 F  
HETATM   26  F   UNL     1     -12.565  14.130  66.536  1.00  0.00    -0.480 F  
BRANCH  24  27
HETATM   27  C   UNL     1     -10.621  15.484  66.504  1.00  0.00    -0.307 C  
BRANCH  27  28
HETATM   28  O   UNL     1     -10.717  16.284  67.691  1.00  0.00    -0.313 OA 
BRANCH  28  29
HETATM   29  C   UNL     1     -10.475  17.620  67.519  1.00  0.00    -0.365 A  
HETATM   30  C   UNL     1     -10.528  18.076  66.200  1.00  0.00    -0.336 A  
HETATM   31  C   UNL     1     -10.300  19.422  65.907  1.00  0.00    -0.536 A  
HETATM   32  C   UNL     1     -10.033  20.323  66.936  1.00  0.00    -0.592 A  
HETATM   33  C   UNL     1     -10.001  19.878  68.257  1.00  0.00    -0.552 A  
HETATM   34  C   UNL     1     -10.223  18.529  68.550  1.00  0.00    -0.389 A  
ENDBRANCH  28  29
ENDBRANCH  27  28
ENDBRANCH  24  27
ENDBRANCH  23  24
ENDBRANCH  19  22
ENDBRANCH  12  13
ENDBRANCH  11  12
ENDBRANCH   9  10
ENDBRANCH   8   9
ENDBRANCH   7   8
ENDBRANCH   5   7
ENDBRANCH   4   5
ENDBRANCH   2   4
TORSDOF 13
ENDMDL
MODEL      101
REMARK 921   NORMALIZED FREE ENERGY PREDICTED BY IDOCK:   -5.12 KCAL/MOL
REMARK 922        TOTAL FREE ENERGY PREDICTED BY IDOCK:  -11.85 KCAL/MOL
REMARK 923 INTER-LIGAND FREE ENERGY PREDICTED BY IDOCK:  -10.43 KCAL/MOL
REMARK 924 INTRA-LIGAND FREE ENERGY PREDICTED BY IDOCK:   -1.42 KCAL/MOL
REMARK 927      BINDING AFFINITY PREDICTED BY RF-SCORE:    0.00 PKD
ROOT
HETATM    1  C   UNL     1      -7.826   4.288  66.783  1.00  0.00    -0.097 C  
HETATM    2  C   UNL     1      -9.159   3.547  66.805  1.00  0.00    -0.164 C  
HETATM    3  C   UNL     1      -9.497   3.086  68.217  1.00  0.00    -0.216 C  
ENDROOT
BRANCH   2   4
HETATM    4  O   UNL     1     -10.206   4.435  66.375  1.00  0.00    -0.240 OA 
BRANCH   4   5
HETATM    5  C   UNL     1      -9.897   5.762  66.403  1.00  0.00    -0.138 C  
HETATM    6  O   UNL     1      -9.074   6.313  65.686  1.00  0.00    -0.090 OA 
BRANCH   5   7
HETATM    7  C   UNL     1     -10.683   6.452  67.486  1.00  0.00    -0.396 C  
BRANCH   7   8
HETATM    8  C   UNL     1     -10.647   7.967  67.298  1.00  0.00    -0.360 C  
BRANCH   8   9
HETATM    9  C   UNL     1      -9.731   8.612  68.335  1.00  0.00    -0.176 C  
BRANCH   9  10
HETATM   10  C   UNL     1      -9.133   7.599  69.266  1.00  0.00    -0.145 C  
HETATM   11  C   UNL     1      -9.300   7.557  70.597  1.00  0.00    -0.163 C  
BRANCH  11  12
HETATM   12  C   UNL     1     -10.116   8.516  71.423  1.00  0.00    -0.302 C  
BRANCH  12  13
HETATM   13  C   UNL     1     -11.593   8.472  71.014  1.00  0.00    -0.317 C  
HETATM   14  C   UNL     1     -12.344   7.217  71.478  1.00  0.00    -0.370 C  
HETATM   15  C   UNL     1     -13.803   7.630  71.355  1.00  0.00    -0.413 C  
HETATM   16  O   UNL     1     -12.076   6.916  72.846  1.00  0.00    -0.432 OA 
HETATM   17  C   UNL     1     -13.813   9.048  71.925  1.00  0.00    -0.423 C  
HETATM   18  H   UNL     1     -12.542   6.138  73.132  1.00  0.00     0.000 HD 
HETATM   19  C   UNL     1     -12.419   9.647  71.603  1.00  0.00    -0.494 C  
HETATM   20  O   UNL     1     -14.001   8.997  73.341  1.00  0.00    -1.220 OA 
HETATM   21  H   UNL     1     -14.008   9.878  73.695  1.00  0.00     0.000 HD 
BRANCH  19  22
HETATM   22  C   UNL     1     -12.513  10.857  70.693  1.00  0.00    -0.460 C  
HETATM   23  C   UNL     1     -11.553  11.256  69.837  1.00  0.00    -0.413 C  
BRANCH  23  24
HETATM   24  C   UNL     1     -11.696  12.383  68.843  1.00  0.00    -0.324 C  
HETATM   25  F   UNL     1     -12.298  13.450  69.437  1.00  0.00    -0.332 F  
HETATM   26  F   UNL     1     -12.515  11.990  67.830  1.00  0.00    -0.097 F  
BRANCH  24  27
HETATM   27  C   UNL     1     -10.338  12.817  68.267  1.00  0.00    -0.243 C  
BRANCH  27  28
HETATM   28  O   UNL     1     -10.510  13.510  67.022  1.00  0.00    -0.262 OA 
BRANCH  28  29
HETATM   29  C   UNL     1     -10.462  12.724  65.903  1.00  0.00    -0.277 A  
HETATM   30  C   UNL     1      -9.737  11.537  66.033  1.00  0.00    -0.253 A  
HETATM   31  C   UNL     1      -9.624  10.656  64.955  1.00  0.00    -0.323 A  
HETATM   32  C   UNL     1     -10.248  10.952  63.745  1.00  0.00    -0.407 A  
HETATM   33  C   UNL     1     -10.990  12.125  63.615  1.00  0.00    -0.527 A  
HETATM   34  C   UNL     1     -11.099  13.010  64.692  1.00  0.00    -0.357 A  
ENDBRANCH  28  29
ENDBRANCH  27  28
ENDBRANCH  24  27
ENDBRANCH  23  24
ENDBRANCH  19  22
ENDBRANCH  12  13
ENDBRANCH  11  12
ENDBRANCH   9  10
ENDBRANCH   8   9
ENDBRANCH   7   8
ENDBRANCH   5   7
ENDBRANCH   4   5
ENDBRANCH   2   4
TORSDOF 13
ENDMDL
MODEL      102
REMARK 921   NORMALIZED FREE ENERGY PREDICTED BY IDOCK:   -5.12 KCAL/MOL
REMARK 922        TOTAL FREE ENERGY PREDICTED BY IDOCK:  -11.84 KCAL/MOL
REMARK 923 INTER-LIGAND FREE ENERGY PREDICTED BY IDOCK:   -9.75 KCAL/MOL
REMARK 924 INTRA-LIGAND FREE ENERGY PREDICTED BY IDOCK:   -2.09 KCAL/MOL
REMARK 927      BINDING AFFINITY PREDICTED BY RF-SCORE:    0.00 PKD
ROOT
HETATM    1  C   UNL     1      -7.743   3.847  68.672  1.00  0.00    -0.060 C  
HETATM    2  C   UNL     1      -8.567   3.347  67.490  1.00  0.00    -0.103 C  
HETATM    3  C   UNL     1      -8.865   1.859  67.632  1.00  0.00    -0.150 C  
ENDROOT
BRANCH   2   4
HETATM    4  O   UNL     1      -9.826   4.041  67.458  1.00  0.00    -0.163 OA 
BRANCH   4   5
HETATM    5  C   UNL     1     -10.143   4.626  66.269  1.00  0.00    -0.265 C  
HETATM    6  O   UNL     1      -9.881   4.171  65.164  1.00  0.00    -0.183 OA 
BRANCH   5   7
HETATM    7  C   UNL     1     -10.821   5.948  66.507  1.00  0.00    -0.214 C  
BRANCH   7   8
HETATM    8  C   UNL     1      -9.790   7.056  66.712  1.00  0.00    -0.250 C  
BRANCH   8   9
HETATM    9  C   UNL     1     -10.242   8.009  67.816  1.00  0.00    -0.282 C  
BRANCH   9  10
HETATM   10  C   UNL     1      -9.344   7.947  69.016  1.00  0.00    -0.151 C  
HETATM   11  C   UNL     1      -9.452   7.081  70.037  1.00  0.00    -0.161 C  
BRANCH  11  12
HETATM   12  C   UNL     1     -10.494   6.003  70.183  1.00  0.00    -0.309 C  
BRANCH  12  13
HETATM   13  C   UNL     1     -10.997   5.919  71.628  1.00  0.00    -0.327 C  
HETATM   14  C   UNL     1     -10.370   4.790  72.457  1.00  0.00    -0.201 C  
HETATM   15  C   UNL     1     -10.676   5.208  73.887  1.00  0.00    -0.342 C  
HETATM   16  O   UNL     1      -8.953   4.742  72.296  1.00  0.00    -0.125 OA 
HETATM   17  C   UNL     1     -10.378   6.707  73.883  1.00  0.00    -0.360 C  
HETATM   18  H   UNL     1      -8.565   4.043  72.810  1.00  0.00     0.000 HD 
HETATM   19  C   UNL     1     -10.699   7.202  72.448  1.00  0.00    -0.273 C  
HETATM   20  O   UNL     1      -8.996   6.924  74.171  1.00  0.00    -0.163 OA 
HETATM   21  H   UNL     1      -8.811   7.856  74.169  1.00  0.00     0.000 HD 
BRANCH  19  22
HETATM   22  C   UNL     1     -11.820   8.223  72.433  1.00  0.00    -0.461 C  
HETATM   23  C   UNL     1     -11.890   9.281  71.603  1.00  0.00    -0.453 C  
BRANCH  23  24
HETATM   24  C   UNL     1     -13.065  10.224  71.503  1.00  0.00    -0.433 C  
HETATM   25  F   UNL     1     -13.785  10.190  72.657  1.00  0.00    -0.353 F  
HETATM   26  F   UNL     1     -13.898   9.803  70.513  1.00  0.00    -0.277 F  
BRANCH  24  27
HETATM   27  C   UNL     1     -12.620  11.669  71.220  1.00  0.00    -0.320 C  
BRANCH  27  28
HETATM   28  O   UNL     1     -13.436  12.604  71.941  1.00  0.00    -0.444 OA 
BRANCH  28  29
HETATM   29  C   UNL     1     -12.932  13.873  72.031  1.00  0.00    -0.349 A  
HETATM   30  C   UNL     1     -13.079  14.491  73.275  1.00  0.00    -0.440 A  
HETATM   31  C   UNL     1     -12.599  15.786  73.483  1.00  0.00    -0.680 A  
HETATM   32  C   UNL     1     -11.956  16.464  72.450  1.00  0.00    -0.553 A  
HETATM   33  C   UNL     1     -11.788  15.845  71.212  1.00  0.00    -0.502 A  
HETATM   34  C   UNL     1     -12.273  14.551  71.002  1.00  0.00    -0.407 A  
ENDBRANCH  28  29
ENDBRANCH  27  28
ENDBRANCH  24  27
ENDBRANCH  23  24
ENDBRANCH  19  22
ENDBRANCH  12  13
ENDBRANCH  11  12
ENDBRANCH   9  10
ENDBRANCH   8   9
ENDBRANCH   7   8
ENDBRANCH   5   7
ENDBRANCH   4   5
ENDBRANCH   2   4
TORSDOF 13
ENDMDL
MODEL      103
REMARK 921   NORMALIZED FREE ENERGY PREDICTED BY IDOCK:   -5.11 KCAL/MOL
REMARK 922        TOTAL FREE ENERGY PREDICTED BY IDOCK:  -11.83 KCAL/MOL
REMARK 923 INTER-LIGAND FREE ENERGY PREDICTED BY IDOCK:   -9.08 KCAL/MOL
REMARK 924 INTRA-LIGAND FREE ENERGY PREDICTED BY IDOCK:   -2.75 KCAL/MOL
REMARK 927      BINDING AFFINITY PREDICTED BY RF-SCORE:    0.00 PKD
ROOT
HETATM    1  C   UNL     1     -10.836  11.352  63.893  1.00  0.00    -0.463 C  
HETATM    2  C   UNL     1      -9.562  10.543  63.674  1.00  0.00    -0.320 C  
HETATM    3  C   UNL     1      -8.868  10.967  62.386  1.00  0.00    -0.358 C  
ENDROOT
BRANCH   2   4
HETATM    4  O   UNL     1      -8.650  10.785  64.760  1.00  0.00    -0.161 OA 
BRANCH   4   5
HETATM    5  C   UNL     1      -8.076   9.675  65.302  1.00  0.00    -0.125 C  
HETATM    6  O   UNL     1      -6.908   9.579  65.652  1.00  0.00    -0.082 OA 
BRANCH   5   7
HETATM    7  C   UNL     1      -9.080   8.554  65.365  1.00  0.00    -0.103 C  
BRANCH   7   8
HETATM    8  C   UNL     1      -9.613   8.385  66.787  1.00  0.00    -0.283 C  
BRANCH   8   9
HETATM    9  C   UNL     1     -10.528   9.550  67.157  1.00  0.00    -0.322 C  
BRANCH   9  10
HETATM   10  C   UNL     1     -10.600   9.760  68.641  1.00  0.00    -0.249 C  
HETATM   11  C   UNL     1      -9.553   9.824  69.479  1.00  0.00    -0.225 C  
BRANCH  11  12
HETATM   12  C   UNL     1      -8.101   9.698  69.101  1.00  0.00    -0.104 C  
BRANCH  12  13
HETATM   13  C   UNL     1      -7.392  11.054  69.186  1.00  0.00    -0.121 C  
HETATM   14  C   UNL     1      -5.860  10.971  69.210  1.00  0.00    -0.043 C  
HETATM   15  C   UNL     1      -5.437  12.385  68.841  1.00  0.00    -0.058 C  
HETATM   16  O   UNL     1      -5.363  10.080  68.213  1.00  0.00    -0.036 OA 
HETATM   17  C   UNL     1      -6.384  12.744  67.697  1.00  0.00    -0.153 C  
HETATM   18  H   UNL     1      -4.414  10.029  68.229  1.00  0.00     0.000 HD 
HETATM   19  C   UNL     1      -7.703  11.976  67.976  1.00  0.00    -0.132 C  
HETATM   20  O   UNL     1      -5.826  12.310  66.455  1.00  0.00    -0.488 OA 
HETATM   21  H   UNL     1      -6.415  12.534  65.744  1.00  0.00     0.000 HD 
BRANCH  19  22
HETATM   22  C   UNL     1      -8.875  12.912  68.195  1.00  0.00    -0.194 C  
HETATM   23  C   UNL     1      -9.856  13.142  67.302  1.00  0.00    -0.232 C  
BRANCH  23  24
HETATM   24  C   UNL     1     -11.087  13.976  67.566  1.00  0.00    -0.298 C  
HETATM   25  F   UNL     1     -12.200  13.196  67.482  1.00  0.00    -0.375 F  
HETATM   26  F   UNL     1     -11.205  14.924  66.597  1.00  0.00    -0.325 F  
BRANCH  24  27
HETATM   27  C   UNL     1     -11.039  14.653  68.945  1.00  0.00    -0.254 C  
BRANCH  27  28
HETATM   28  O   UNL     1     -12.283  15.305  69.237  1.00  0.00    -0.272 OA 
BRANCH  28  29
HETATM   29  C   UNL     1     -12.534  15.521  70.566  1.00  0.00    -0.427 A  
HETATM   30  C   UNL     1     -13.859  15.333  70.965  1.00  0.00    -0.414 A  
HETATM   31  C   UNL     1     -14.229  15.523  72.298  1.00  0.00    -0.617 A  
HETATM   32  C   UNL     1     -13.271  15.888  73.241  1.00  0.00    -0.698 A  
HETATM   33  C   UNL     1     -11.943  16.057  72.853  1.00  0.00    -0.611 A  
HETATM   34  C   UNL     1     -11.573  15.872  71.517  1.00  0.00    -0.537 A  
ENDBRANCH  28  29
ENDBRANCH  27  28
ENDBRANCH  24  27
ENDBRANCH  23  24
ENDBRANCH  19  22
ENDBRANCH  12  13
ENDBRANCH  11  12
ENDBRANCH   9  10
ENDBRANCH   8   9
ENDBRANCH   7   8
ENDBRANCH   5   7
ENDBRANCH   4   5
ENDBRANCH   2   4
TORSDOF 13
ENDMDL
MODEL      104
REMARK 921   NORMALIZED FREE ENERGY PREDICTED BY IDOCK:   -5.11 KCAL/MOL
REMARK 922        TOTAL FREE ENERGY PREDICTED BY IDOCK:  -11.83 KCAL/MOL
REMARK 923 INTER-LIGAND FREE ENERGY PREDICTED BY IDOCK:   -9.58 KCAL/MOL
REMARK 924 INTRA-LIGAND FREE ENERGY PREDICTED BY IDOCK:   -2.24 KCAL/MOL
REMARK 927      BINDING AFFINITY PREDICTED BY RF-SCORE:    0.00 PKD
ROOT
HETATM    1  C   UNL     1     -10.147  18.480  68.320  1.00  0.00    -0.424 C  
HETATM    2  C   UNL     1     -10.462  19.070  66.949  1.00  0.00    -0.426 C  
HETATM    3  C   UNL     1     -10.384  20.591  66.984  1.00  0.00    -0.189 C  
ENDROOT
BRANCH   2   4
HETATM    4  O   UNL     1      -9.490  18.607  65.995  1.00  0.00    -0.486 OA 
BRANCH   4   5
HETATM    5  C   UNL     1      -9.559  17.281  65.686  1.00  0.00     0.221 C  
HETATM    6  O   UNL     1      -8.630  16.488  65.757  1.00  0.00    -0.442 OA 
BRANCH   5   7
HETATM    7  C   UNL     1     -10.938  16.937  65.191  1.00  0.00    -0.060 C  
BRANCH   7   8
HETATM    8  C   UNL     1     -11.020  15.462  64.802  1.00  0.00    -0.411 C  
BRANCH   8   9
HETATM    9  C   UNL     1     -11.611  14.640  65.945  1.00  0.00    -0.327 C  
BRANCH   9  10
HETATM   10  C   UNL     1     -12.622  13.643  65.457  1.00  0.00    -0.541 C  
HETATM   11  C   UNL     1     -12.349  12.442  64.924  1.00  0.00    -0.475 C  
BRANCH  11  12
HETATM   12  C   UNL     1     -10.979  11.853  64.708  1.00  0.00    -0.366 C  
BRANCH  12  13
HETATM   13  C   UNL     1     -10.481  11.143  65.972  1.00  0.00    -0.312 C  
HETATM   14  C   UNL     1     -10.158   9.655  65.781  1.00  0.00    -0.204 C  
HETATM   15  C   UNL     1      -9.294   9.337  66.991  1.00  0.00    -0.183 C  
HETATM   16  O   UNL     1      -9.383   9.430  64.604  1.00  0.00    -0.411 OA 
HETATM   17  C   UNL     1      -8.359  10.543  67.078  1.00  0.00    -0.128 C  
HETATM   18  H   UNL     1      -9.183   8.509  64.486  1.00  0.00     0.000 HD 
HETATM   19  C   UNL     1      -9.165  11.749  66.528  1.00  0.00    -0.206 C  
HETATM   20  O   UNL     1      -7.207  10.319  66.263  1.00  0.00    -0.105 OA 
HETATM   21  H   UNL     1      -6.626  11.069  66.318  1.00  0.00     0.000 HD 
BRANCH  19  22
HETATM   22  C   UNL     1      -9.371  12.825  67.576  1.00  0.00    -0.189 C  
HETATM   23  C   UNL     1      -8.456  13.750  67.922  1.00  0.00    -0.176 C  
BRANCH  23  24
HETATM   24  C   UNL     1      -8.704  14.896  68.874  1.00  0.00    -0.180 C  
HETATM   25  F   UNL     1      -8.125  16.031  68.391  1.00  0.00    -0.143 F  
HETATM   26  F   UNL     1      -8.102  14.632  70.065  1.00  0.00     0.041 F  
BRANCH  24  27
HETATM   27  C   UNL     1     -10.204  15.143  69.099  1.00  0.00    -0.249 C  
BRANCH  27  28
HETATM   28  O   UNL     1     -10.449  15.619  70.431  1.00  0.00    -0.315 OA 
BRANCH  28  29
HETATM   29  C   UNL     1     -11.439  14.967  71.114  1.00  0.00    -0.309 A  
HETATM   30  C   UNL     1     -11.793  15.531  72.342  1.00  0.00    -0.570 A  
HETATM   31  C   UNL     1     -12.795  14.950  73.124  1.00  0.00    -0.619 A  
HETATM   32  C   UNL     1     -13.457  13.811  72.673  1.00  0.00    -0.638 A  
HETATM   33  C   UNL     1     -13.123  13.256  71.438  1.00  0.00    -0.361 A  
HETATM   34  C   UNL     1     -12.117  13.833  70.658  1.00  0.00    -0.405 A  
ENDBRANCH  28  29
ENDBRANCH  27  28
ENDBRANCH  24  27
ENDBRANCH  23  24
ENDBRANCH  19  22
ENDBRANCH  12  13
ENDBRANCH  11  12
ENDBRANCH   9  10
ENDBRANCH   8   9
ENDBRANCH   7   8
ENDBRANCH   5   7
ENDBRANCH   4   5
ENDBRANCH   2   4
TORSDOF 13
ENDMDL
MODEL      105
REMARK 921   NORMALIZED FREE ENERGY PREDICTED BY IDOCK:   -5.10 KCAL/MOL
REMARK 922        TOTAL FREE ENERGY PREDICTED BY IDOCK:  -11.82 KCAL/MOL
REMARK 923 INTER-LIGAND FREE ENERGY PREDICTED BY IDOCK:   -9.73 KCAL/MOL
REMARK 924 INTRA-LIGAND FREE ENERGY PREDICTED BY IDOCK:   -2.09 KCAL/MOL
REMARK 927      BINDING AFFINITY PREDICTED BY RF-SCORE:    0.00 PKD
ROOT
HETATM    1  C   UNL     1     -12.126   6.568  72.068  1.00  0.00    -0.358 C  
HETATM    2  C   UNL     1     -10.766   6.438  71.392  1.00  0.00    -0.245 C  
HETATM    3  C   UNL     1      -9.643   6.507  72.419  1.00  0.00    -0.148 C  
ENDROOT
BRANCH   2   4
HETATM    4  O   UNL     1     -10.677   5.160  70.737  1.00  0.00    -0.187 OA 
BRANCH   4   5
HETATM    5  C   UNL     1      -9.949   5.141  69.585  1.00  0.00    -0.243 C  
HETATM    6  O   UNL     1      -8.940   4.477  69.396  1.00  0.00    -0.086 OA 
BRANCH   5   7
HETATM    7  C   UNL     1     -10.538   6.101  68.586  1.00  0.00    -0.324 C  
BRANCH   7   8
HETATM    8  C   UNL     1      -9.445   6.962  67.955  1.00  0.00    -0.120 C  
BRANCH   8   9
HETATM    9  C   UNL     1     -10.062   8.062  67.094  1.00  0.00    -0.334 C  
BRANCH   9  10
HETATM   10  C   UNL     1      -9.139   8.499  65.994  1.00  0.00    -0.246 C  
HETATM   11  C   UNL     1      -9.332   9.543  65.172  1.00  0.00    -0.316 C  
BRANCH  11  12
HETATM   12  C   UNL     1     -10.510  10.481  65.187  1.00  0.00    -0.225 C  
BRANCH  12  13
HETATM   13  C   UNL     1     -10.290  11.624  66.184  1.00  0.00    -0.280 C  
HETATM   14  C   UNL     1      -9.953  12.975  65.539  1.00  0.00    -0.214 C  
HETATM   15  C   UNL     1     -10.235  13.966  66.659  1.00  0.00    -0.276 C  
HETATM   16  O   UNL     1     -10.823  13.271  64.448  1.00  0.00    -0.367 OA 
HETATM   17  C   UNL     1     -11.550  13.458  67.249  1.00  0.00    -0.360 C  
HETATM   18  H   UNL     1     -10.615  14.108  64.049  1.00  0.00     0.000 HD 
HETATM   19  C   UNL     1     -11.541  11.920  67.053  1.00  0.00    -0.365 C  
HETATM   20  O   UNL     1     -12.650  14.030  66.539  1.00  0.00    -0.501 OA 
HETATM   21  H   UNL     1     -13.467  13.715  66.906  1.00  0.00     0.000 HD 
BRANCH  19  22
HETATM   22  C   UNL     1     -11.571  11.174  68.373  1.00  0.00    -0.376 C  
HETATM   23  C   UNL     1     -12.495  11.347  69.336  1.00  0.00    -0.042 C  
BRANCH  23  24
HETATM   24  C   UNL     1     -12.597  10.519  70.594  1.00  0.00    -0.369 C  
HETATM   25  F   UNL     1     -11.658   9.533  70.576  1.00  0.00    -0.277 F  
HETATM   26  F   UNL     1     -13.808   9.899  70.629  1.00  0.00    -0.353 F  
BRANCH  24  27
HETATM   27  C   UNL     1     -12.420  11.372  71.861  1.00  0.00     0.177 C  
BRANCH  27  28
HETATM   28  O   UNL     1     -13.411  12.408  71.921  1.00  0.00    -0.468 OA 
BRANCH  28  29
HETATM   29  C   UNL     1     -12.930  13.686  71.823  1.00  0.00    -0.353 A  
HETATM   30  C   UNL     1     -12.786  14.369  73.033  1.00  0.00    -0.521 A  
HETATM   31  C   UNL     1     -12.301  15.678  73.052  1.00  0.00    -0.570 A  
HETATM   32  C   UNL     1     -11.943  16.305  71.862  1.00  0.00    -0.513 A  
HETATM   33  C   UNL     1     -12.064  15.622  70.653  1.00  0.00    -0.443 A  
HETATM   34  C   UNL     1     -12.555  14.313  70.632  1.00  0.00    -0.424 A  
ENDBRANCH  28  29
ENDBRANCH  27  28
ENDBRANCH  24  27
ENDBRANCH  23  24
ENDBRANCH  19  22
ENDBRANCH  12  13
ENDBRANCH  11  12
ENDBRANCH   9  10
ENDBRANCH   8   9
ENDBRANCH   7   8
ENDBRANCH   5   7
ENDBRANCH   4   5
ENDBRANCH   2   4
TORSDOF 13
ENDMDL
MODEL      106
REMARK 921   NORMALIZED FREE ENERGY PREDICTED BY IDOCK:   -5.10 KCAL/MOL
REMARK 922        TOTAL FREE ENERGY PREDICTED BY IDOCK:  -11.81 KCAL/MOL
REMARK 923 INTER-LIGAND FREE ENERGY PREDICTED BY IDOCK:   -8.98 KCAL/MOL
REMARK 924 INTRA-LIGAND FREE ENERGY PREDICTED BY IDOCK:   -2.83 KCAL/MOL
REMARK 927      BINDING AFFINITY PREDICTED BY RF-SCORE:    0.00 PKD
ROOT
HETATM    1  C   UNL     1     -12.004  15.508  64.540  1.00  0.00    -0.172 C  
HETATM    2  C   UNL     1     -10.931  15.964  65.524  1.00  0.00    -0.241 C  
HETATM    3  C   UNL     1      -9.739  15.016  65.500  1.00  0.00    -0.294 C  
ENDROOT
BRANCH   2   4
HETATM    4  O   UNL     1     -10.458  17.268  65.144  1.00  0.00    -0.656 OA 
BRANCH   4   5
HETATM    5  C   UNL     1     -10.134  18.097  66.176  1.00  0.00    -0.336 C  
HETATM    6  O   UNL     1     -10.909  18.847  66.752  1.00  0.00    -0.370 OA 
BRANCH   5   7
HETATM    7  C   UNL     1      -8.662  17.996  66.478  1.00  0.00    -0.279 C  
BRANCH   7   8
HETATM    8  C   UNL     1      -8.295  18.870  67.675  1.00  0.00    -0.296 C  
BRANCH   8   9
HETATM    9  C   UNL     1      -7.740  18.014  68.811  1.00  0.00    -0.273 C  
BRANCH   9  10
HETATM   10  C   UNL     1      -7.941  16.548  68.561  1.00  0.00    -0.216 C  
HETATM   11  C   UNL     1      -8.981  15.813  68.984  1.00  0.00    -0.246 C  
BRANCH  11  12
HETATM   12  C   UNL     1     -10.151  16.307  69.793  1.00  0.00    -0.119 C  
BRANCH  12  13
HETATM   13  C   UNL     1     -10.915  15.138  70.425  1.00  0.00    -0.268 C  
HETATM   14  C   UNL     1     -11.353  15.375  71.877  1.00  0.00    -0.384 C  
HETATM   15  C   UNL     1     -12.428  14.319  72.084  1.00  0.00    -0.306 C  
HETATM   16  O   UNL     1     -11.947  16.660  72.047  1.00  0.00    -0.635 OA 
HETATM   17  C   UNL     1     -13.237  14.388  70.789  1.00  0.00    -0.231 C  
HETATM   18  H   UNL     1     -12.218  16.806  72.946  1.00  0.00     0.000 HD 
HETATM   19  C   UNL     1     -12.235  14.804  69.680  1.00  0.00    -0.310 C  
HETATM   20  O   UNL     1     -14.260  15.378  70.913  1.00  0.00    -0.833 OA 
HETATM   21  H   UNL     1     -14.763  15.420  70.108  1.00  0.00     0.000 HD 
BRANCH  19  22
HETATM   22  C   UNL     1     -12.092  13.740  68.610  1.00  0.00    -0.333 C  
HETATM   23  C   UNL     1     -11.257  12.686  68.676  1.00  0.00    -0.323 C  
BRANCH  23  24
HETATM   24  C   UNL     1     -11.204  11.561  67.670  1.00  0.00    -0.281 C  
HETATM   25  F   UNL     1     -11.684  11.991  66.471  1.00  0.00    -0.399 F  
HETATM   26  F   UNL     1     -12.024  10.554  68.077  1.00  0.00    -0.252 F  
BRANCH  24  27
HETATM   27  C   UNL     1      -9.777  11.020  67.487  1.00  0.00    -0.172 C  
BRANCH  27  28
HETATM   28  O   UNL     1      -8.877  12.072  67.108  1.00  0.00    -0.174 OA 
BRANCH  28  29
HETATM   29  C   UNL     1      -7.685  12.094  67.780  1.00  0.00    -0.139 A  
HETATM   30  C   UNL     1      -7.685  11.461  69.025  1.00  0.00    -0.064 A  
HETATM   31  C   UNL     1      -6.522  11.420  69.798  1.00  0.00    -0.133 A  
HETATM   32  C   UNL     1      -5.348  11.999  69.320  1.00  0.00    -0.056 A  
HETATM   33  C   UNL     1      -5.337  12.614  68.069  1.00  0.00    -0.087 A  
HETATM   34  C   UNL     1      -6.502  12.661  67.298  1.00  0.00    -0.102 A  
ENDBRANCH  28  29
ENDBRANCH  27  28
ENDBRANCH  24  27
ENDBRANCH  23  24
ENDBRANCH  19  22
ENDBRANCH  12  13
ENDBRANCH  11  12
ENDBRANCH   9  10
ENDBRANCH   8   9
ENDBRANCH   7   8
ENDBRANCH   5   7
ENDBRANCH   4   5
ENDBRANCH   2   4
TORSDOF 13
ENDMDL
MODEL      107
REMARK 921   NORMALIZED FREE ENERGY PREDICTED BY IDOCK:   -5.08 KCAL/MOL
REMARK 922        TOTAL FREE ENERGY PREDICTED BY IDOCK:  -11.78 KCAL/MOL
REMARK 923 INTER-LIGAND FREE ENERGY PREDICTED BY IDOCK:  -10.00 KCAL/MOL
REMARK 924 INTRA-LIGAND FREE ENERGY PREDICTED BY IDOCK:   -1.78 KCAL/MOL
REMARK 927      BINDING AFFINITY PREDICTED BY RF-SCORE:    0.00 PKD
ROOT
HETATM    1  C   UNL     1     -10.504  20.068  65.629  1.00  0.00    -0.405 C  
HETATM    2  C   UNL     1      -9.833  18.928  66.389  1.00  0.00    -0.375 C  
HETATM    3  C   UNL     1     -10.478  17.593  66.039  1.00  0.00    -0.278 C  
ENDROOT
BRANCH   2   4
HETATM    4  O   UNL     1      -8.447  18.854  66.012  1.00  0.00    -0.468 OA 
BRANCH   4   5
HETATM    5  C   UNL     1      -7.558  19.240  66.970  1.00  0.00    -0.235 C  
HETATM    6  O   UNL     1      -7.077  20.359  67.081  1.00  0.00    -0.252 OA 
BRANCH   5   7
HETATM    7  C   UNL     1      -7.209  18.070  67.852  1.00  0.00    -0.222 C  
BRANCH   7   8
HETATM    8  C   UNL     1      -6.354  17.058  67.093  1.00  0.00    -0.215 C  
BRANCH   8   9
HETATM    9  C   UNL     1      -6.860  15.639  67.341  1.00  0.00    -0.231 C  
BRANCH   9  10
HETATM   10  C   UNL     1      -8.235  15.425  66.778  1.00  0.00    -0.252 C  
HETATM   11  C   UNL     1      -8.936  14.281  66.824  1.00  0.00    -0.249 C  
BRANCH  11  12
HETATM   12  C   UNL     1      -8.485  12.985  67.444  1.00  0.00    -0.200 C  
BRANCH  12  13
HETATM   13  C   UNL     1      -9.405  11.830  67.032  1.00  0.00    -0.187 C  
HETATM   14  C   UNL     1      -9.112  11.248  65.643  1.00  0.00    -0.189 C  
HETATM   15  C   UNL     1      -9.814   9.899  65.685  1.00  0.00    -0.368 C  
HETATM   16  O   UNL     1      -7.717  11.021  65.449  1.00  0.00    -0.360 OA 
HETATM   17  C   UNL     1      -9.457   9.364  67.071  1.00  0.00    -0.155 C  
HETATM   18  H   UNL     1      -7.536  10.660  64.588  1.00  0.00     0.000 HD 
HETATM   19  C   UNL     1      -9.306  10.608  67.984  1.00  0.00    -0.151 C  
HETATM   20  O   UNL     1      -8.218   8.656  67.009  1.00  0.00    -0.105 OA 
HETATM   21  H   UNL     1      -7.996   8.322  67.870  1.00  0.00     0.000 HD 
BRANCH  19  22
HETATM   22  C   UNL     1     -10.320  10.616  69.112  1.00  0.00    -0.242 C  
HETATM   23  C   UNL     1     -10.927   9.524  69.612  1.00  0.00    -0.233 C  
BRANCH  23  24
HETATM   24  C   UNL     1     -11.839   9.517  70.814  1.00  0.00    -0.277 C  
HETATM   25  F   UNL     1     -11.119   9.766  71.943  1.00  0.00    -0.380 F  
HETATM   26  F   UNL     1     -12.377   8.276  70.965  1.00  0.00    -0.305 F  
BRANCH  24  27
HETATM   27  C   UNL     1     -12.967  10.554  70.687  1.00  0.00    -0.285 C  
BRANCH  27  28
HETATM   28  O   UNL     1     -13.024  11.391  71.851  1.00  0.00    -0.453 OA 
BRANCH  28  29
HETATM   29  C   UNL     1     -13.077  12.736  71.604  1.00  0.00    -0.331 A  
HETATM   30  C   UNL     1     -12.198  13.202  70.625  1.00  0.00    -0.402 A  
HETATM   31  C   UNL     1     -12.168  14.557  70.289  1.00  0.00    -0.391 A  
HETATM   32  C   UNL     1     -13.030  15.451  70.922  1.00  0.00    -0.539 A  
HETATM   33  C   UNL     1     -13.924  14.988  71.885  1.00  0.00    -0.604 A  
HETATM   34  C   UNL     1     -13.951  13.632  72.226  1.00  0.00    -0.661 A  
ENDBRANCH  28  29
ENDBRANCH  27  28
ENDBRANCH  24  27
ENDBRANCH  23  24
ENDBRANCH  19  22
ENDBRANCH  12  13
ENDBRANCH  11  12
ENDBRANCH   9  10
ENDBRANCH   8   9
ENDBRANCH   7   8
ENDBRANCH   5   7
ENDBRANCH   4   5
ENDBRANCH   2   4
TORSDOF 13
ENDMDL
MODEL      108
REMARK 921   NORMALIZED FREE ENERGY PREDICTED BY IDOCK:   -5.08 KCAL/MOL
REMARK 922        TOTAL FREE ENERGY PREDICTED BY IDOCK:  -11.78 KCAL/MOL
REMARK 923 INTER-LIGAND FREE ENERGY PREDICTED BY IDOCK:  -10.02 KCAL/MOL
REMARK 924 INTRA-LIGAND FREE ENERGY PREDICTED BY IDOCK:   -1.76 KCAL/MOL
REMARK 927      BINDING AFFINITY PREDICTED BY RF-SCORE:    0.00 PKD
ROOT
HETATM    1  C   UNL     1     -11.612   8.561  72.432  1.00  0.00    -0.425 C  
HETATM    2  C   UNL     1     -11.049   8.335  71.033  1.00  0.00    -0.251 C  
HETATM    3  C   UNL     1      -9.941   9.336  70.729  1.00  0.00    -0.357 C  
ENDROOT
BRANCH   2   4
HETATM    4  O   UNL     1     -10.477   7.018  70.955  1.00  0.00    -0.212 OA 
BRANCH   4   5
HETATM    5  C   UNL     1     -10.570   6.410  69.739  1.00  0.00    -0.254 C  
HETATM    6  O   UNL     1     -11.588   6.321  69.067  1.00  0.00    -0.278 OA 
BRANCH   5   7
HETATM    7  C   UNL     1      -9.242   5.813  69.357  1.00  0.00    -0.144 C  
BRANCH   7   8
HETATM    8  C   UNL     1      -9.095   5.748  67.838  1.00  0.00    -0.109 C  
BRANCH   8   9
HETATM    9  C   UNL     1      -7.912   6.598  67.379  1.00  0.00    -0.114 C  
BRANCH   9  10
HETATM   10  C   UNL     1      -8.036   8.024  67.827  1.00  0.00    -0.128 C  
HETATM   11  C   UNL     1      -8.570   9.029  67.115  1.00  0.00    -0.119 C  
BRANCH  11  12
HETATM   12  C   UNL     1      -9.149   8.929  65.728  1.00  0.00    -0.276 C  
BRANCH  12  13
HETATM   13  C   UNL     1      -9.130  10.291  65.025  1.00  0.00    -0.244 C  
HETATM   14  C   UNL     1      -8.768  10.233  63.535  1.00  0.00    -0.206 C  
HETATM   15  C   UNL     1      -9.256  11.577  63.015  1.00  0.00    -0.224 C  
HETATM   16  O   UNL     1      -9.485   9.203  62.858  1.00  0.00    -0.446 OA 
HETATM   17  C   UNL     1     -10.617  11.739  63.692  1.00  0.00    -0.439 C  
HETATM   18  H   UNL     1      -9.261   9.168  61.935  1.00  0.00     0.000 HD 
HETATM   19  C   UNL     1     -10.507  11.007  65.055  1.00  0.00    -0.344 C  
HETATM   20  O   UNL     1     -11.628  11.123  62.892  1.00  0.00    -0.784 OA 
HETATM   21  H   UNL     1     -12.474  11.224  63.312  1.00  0.00     0.000 HD 
BRANCH  19  22
HETATM   22  C   UNL     1     -10.691  11.951  66.227  1.00  0.00    -0.309 C  
HETATM   23  C   UNL     1      -9.890  12.995  66.511  1.00  0.00    -0.263 C  
BRANCH  23  24
HETATM   24  C   UNL     1     -10.144  14.007  67.602  1.00  0.00    -0.241 C  
HETATM   25  F   UNL     1      -9.409  13.692  68.704  1.00  0.00    -0.198 F  
HETATM   26  F   UNL     1     -11.450  13.947  67.978  1.00  0.00    -0.269 F  
BRANCH  24  27
HETATM   27  C   UNL     1      -9.804  15.437  67.151  1.00  0.00    -0.221 C  
BRANCH  27  28
HETATM   28  O   UNL     1     -10.841  16.352  67.533  1.00  0.00    -0.315 OA 
BRANCH  28  29
HETATM   29  C   UNL     1     -10.507  17.678  67.466  1.00  0.00    -0.365 A  
HETATM   30  C   UNL     1     -10.201  18.283  68.687  1.00  0.00    -0.377 A  
HETATM   31  C   UNL     1      -9.844  19.632  68.738  1.00  0.00    -0.519 A  
HETATM   32  C   UNL     1      -9.776  20.379  67.564  1.00  0.00    -0.571 A  
HETATM   33  C   UNL     1     -10.059  19.775  66.340  1.00  0.00    -0.600 A  
HETATM   34  C   UNL     1     -10.423  18.427  66.289  1.00  0.00    -0.421 A  
ENDBRANCH  28  29
ENDBRANCH  27  28
ENDBRANCH  24  27
ENDBRANCH  23  24
ENDBRANCH  19  22
ENDBRANCH  12  13
ENDBRANCH  11  12
ENDBRANCH   9  10
ENDBRANCH   8   9
ENDBRANCH   7   8
ENDBRANCH   5   7
ENDBRANCH   4   5
ENDBRANCH   2   4
TORSDOF 13
ENDMDL
MODEL      109
REMARK 921   NORMALIZED FREE ENERGY PREDICTED BY IDOCK:   -5.08 KCAL/MOL
REMARK 922        TOTAL FREE ENERGY PREDICTED BY IDOCK:  -11.77 KCAL/MOL
REMARK 923 INTER-LIGAND FREE ENERGY PREDICTED BY IDOCK:   -9.65 KCAL/MOL
REMARK 924 INTRA-LIGAND FREE ENERGY PREDICTED BY IDOCK:   -2.12 KCAL/MOL
REMARK 927      BINDING AFFINITY PREDICTED BY RF-SCORE:    0.00 PKD
ROOT
HETATM    1  C   UNL     1     -12.196  15.927  72.682  1.00  0.00    -0.603 C  
HETATM    2  C   UNL     1     -12.223  14.590  71.949  1.00  0.00    -0.285 C  
HETATM    3  C   UNL     1     -13.310  13.685  72.515  1.00  0.00    -0.638 C  
ENDROOT
BRANCH   2   4
HETATM    4  O   UNL     1     -12.522  14.813  70.560  1.00  0.00    -0.315 OA 
BRANCH   4   5
HETATM    5  C   UNL     1     -11.575  14.381  69.680  1.00  0.00    -0.292 C  
HETATM    6  O   UNL     1     -11.498  13.251  69.220  1.00  0.00    -0.269 OA 
BRANCH   5   7
HETATM    7  C   UNL     1     -10.597  15.488  69.390  1.00  0.00    -0.250 C  
BRANCH   7   8
HETATM    8  C   UNL     1      -9.234  14.918  69.003  1.00  0.00    -0.176 C  
BRANCH   8   9
HETATM    9  C   UNL     1      -8.744  15.543  67.699  1.00  0.00    -0.183 C  
BRANCH   9  10
HETATM   10  C   UNL     1      -9.728  16.530  67.143  1.00  0.00    -0.246 C  
HETATM   11  C   UNL     1     -10.366  16.428  65.967  1.00  0.00    -0.365 C  
BRANCH  11  12
HETATM   12  C   UNL     1     -10.223  15.308  64.970  1.00  0.00    -0.324 C  
BRANCH  12  13
HETATM   13  C   UNL     1     -11.113  14.119  65.348  1.00  0.00    -0.321 C  
HETATM   14  C   UNL     1     -12.527  14.168  64.753  1.00  0.00    -0.373 C  
HETATM   15  C   UNL     1     -13.003  12.730  64.891  1.00  0.00    -0.187 C  
HETATM   16  O   UNL     1     -12.504  14.501  63.366  1.00  0.00    -1.080 OA 
HETATM   17  C   UNL     1     -11.783  11.916  64.463  1.00  0.00    -0.248 C  
HETATM   18  H   UNL     1     -13.380  14.531  62.998  1.00  0.00     0.000 HD 
HETATM   19  C   UNL     1     -10.544  12.758  64.865  1.00  0.00    -0.336 C  
HETATM   20  O   UNL     1     -11.802  11.729  63.046  1.00  0.00    -0.799 OA 
HETATM   21  H   UNL     1     -11.043  11.223  62.780  1.00  0.00     0.000 HD 
BRANCH  19  22
HETATM   22  C   UNL     1      -9.677  12.049  65.887  1.00  0.00    -0.256 C  
HETATM   23  C   UNL     1     -10.081  11.028  66.666  1.00  0.00    -0.262 C  
BRANCH  23  24
HETATM   24  C   UNL     1      -9.186  10.242  67.592  1.00  0.00    -0.144 C  
HETATM   25  F   UNL     1      -9.832  10.002  68.767  1.00  0.00    -0.150 F  
HETATM   26  F   UNL     1      -8.089  10.986  67.899  1.00  0.00    -0.106 F  
BRANCH  24  27
HETATM   27  C   UNL     1      -8.744   8.907  66.970  1.00  0.00    -0.123 C  
BRANCH  27  28
HETATM   28  O   UNL     1      -9.559   7.827  67.447  1.00  0.00    -0.140 OA 
BRANCH  28  29
HETATM   29  C   UNL     1      -9.392   6.634  66.797  1.00  0.00    -0.158 A  
HETATM   30  C   UNL     1     -10.540   5.847  66.680  1.00  0.00    -0.330 A  
HETATM   31  C   UNL     1     -10.488   4.611  66.032  1.00  0.00    -0.303 A  
HETATM   32  C   UNL     1      -9.288   4.163  65.484  1.00  0.00    -0.162 A  
HETATM   33  C   UNL     1      -8.143   4.954  65.579  1.00  0.00    -0.113 A  
HETATM   34  C   UNL     1      -8.194   6.188  66.232  1.00  0.00    -0.116 A  
ENDBRANCH  28  29
ENDBRANCH  27  28
ENDBRANCH  24  27
ENDBRANCH  23  24
ENDBRANCH  19  22
ENDBRANCH  12  13
ENDBRANCH  11  12
ENDBRANCH   9  10
ENDBRANCH   8   9
ENDBRANCH   7   8
ENDBRANCH   5   7
ENDBRANCH   4   5
ENDBRANCH   2   4
TORSDOF 13
ENDMDL
MODEL      110
REMARK 921   NORMALIZED FREE ENERGY PREDICTED BY IDOCK:   -5.07 KCAL/MOL
REMARK 922        TOTAL FREE ENERGY PREDICTED BY IDOCK:  -11.76 KCAL/MOL
REMARK 923 INTER-LIGAND FREE ENERGY PREDICTED BY IDOCK:  -10.39 KCAL/MOL
REMARK 924 INTRA-LIGAND FREE ENERGY PREDICTED BY IDOCK:   -1.37 KCAL/MOL
REMARK 927      BINDING AFFINITY PREDICTED BY RF-SCORE:    0.00 PKD
ROOT
HETATM    1  C   UNL     1      -8.566   7.919  74.054  1.00  0.00    -0.322 C  
HETATM    2  C   UNL     1      -9.483   6.810  73.549  1.00  0.00    -0.163 C  
HETATM    3  C   UNL     1      -9.378   5.576  74.436  1.00  0.00    -0.133 C  
ENDROOT
BRANCH   2   4
HETATM    4  O   UNL     1     -10.848   7.262  73.594  1.00  0.00    -0.356 OA 
BRANCH   4   5
HETATM    5  C   UNL     1     -11.390   7.607  72.393  1.00  0.00    -0.329 C  
HETATM    6  O   UNL     1     -12.025   8.628  72.168  1.00  0.00    -0.343 OA 
BRANCH   5   7
HETATM    7  C   UNL     1     -11.140   6.519  71.382  1.00  0.00    -0.315 C  
BRANCH   7   8
HETATM    8  C   UNL     1     -11.948   6.767  70.110  1.00  0.00    -0.244 C  
BRANCH   8   9
HETATM    9  C   UNL     1     -11.158   6.326  68.880  1.00  0.00    -0.434 C  
BRANCH   9  10
HETATM   10  C   UNL     1      -9.810   6.982  68.813  1.00  0.00    -0.152 C  
HETATM   11  C   UNL     1      -9.453   7.963  67.970  1.00  0.00    -0.159 C  
BRANCH  11  12
HETATM   12  C   UNL     1     -10.328   8.601  66.923  1.00  0.00    -0.355 C  
BRANCH  12  13
HETATM   13  C   UNL     1      -9.604   9.765  66.237  1.00  0.00    -0.271 C  
HETATM   14  C   UNL     1      -8.394   9.351  65.389  1.00  0.00    -0.137 C  
HETATM   15  C   UNL     1      -8.168  10.566  64.503  1.00  0.00    -0.077 C  
HETATM   16  O   UNL     1      -8.692   8.235  64.553  1.00  0.00    -0.400 OA 
HETATM   17  C   UNL     1      -9.584  10.952  64.074  1.00  0.00    -0.278 C  
HETATM   18  H   UNL     1      -7.943   7.979  64.028  1.00  0.00     0.000 HD 
HETATM   19  C   UNL     1     -10.512  10.543  65.248  1.00  0.00    -0.232 C  
HETATM   20  O   UNL     1      -9.945  10.227  62.897  1.00  0.00    -0.494 OA 
HETATM   21  H   UNL     1     -10.824  10.468  62.630  1.00  0.00     0.000 HD 
BRANCH  19  22
HETATM   22  C   UNL     1     -11.218  11.737  65.861  1.00  0.00    -0.345 C  
HETATM   23  C   UNL     1     -10.935  13.025  65.588  1.00  0.00    -0.296 C  
BRANCH  23  24
HETATM   24  C   UNL     1     -11.719  14.209  66.101  1.00  0.00    -0.393 C  
HETATM   25  F   UNL     1     -11.963  14.060  67.432  1.00  0.00    -0.369 F  
HETATM   26  F   UNL     1     -12.932  14.247  65.487  1.00  0.00    -0.514 F  
BRANCH  24  27
HETATM   27  C   UNL     1     -10.980  15.535  65.862  1.00  0.00    -0.264 C  
BRANCH  27  28
HETATM   28  O   UNL     1     -10.335  15.984  67.063  1.00  0.00    -0.281 OA 
BRANCH  28  29
HETATM   29  C   UNL     1     -10.253  17.342  67.213  1.00  0.00    -0.320 A  
HETATM   30  C   UNL     1     -10.399  18.086  66.040  1.00  0.00    -0.333 A  
HETATM   31  C   UNL     1     -10.336  19.480  66.075  1.00  0.00    -0.604 A  
HETATM   32  C   UNL     1     -10.141  20.138  67.287  1.00  0.00    -0.572 A  
HETATM   33  C   UNL     1     -10.016  19.402  68.464  1.00  0.00    -0.520 A  
HETATM   34  C   UNL     1     -10.073  18.006  68.429  1.00  0.00    -0.392 A  
ENDBRANCH  28  29
ENDBRANCH  27  28
ENDBRANCH  24  27
ENDBRANCH  23  24
ENDBRANCH  19  22
ENDBRANCH  12  13
ENDBRANCH  11  12
ENDBRANCH   9  10
ENDBRANCH   8   9
ENDBRANCH   7   8
ENDBRANCH   5   7
ENDBRANCH   4   5
ENDBRANCH   2   4
TORSDOF 13
ENDMDL
MODEL      111
REMARK 921   NORMALIZED FREE ENERGY PREDICTED BY IDOCK:   -5.07 KCAL/MOL
REMARK 922        TOTAL FREE ENERGY PREDICTED BY IDOCK:  -11.75 KCAL/MOL
REMARK 923 INTER-LIGAND FREE ENERGY PREDICTED BY IDOCK:  -10.17 KCAL/MOL
REMARK 924 INTRA-LIGAND FREE ENERGY PREDICTED BY IDOCK:   -1.59 KCAL/MOL
REMARK 927      BINDING AFFINITY PREDICTED BY RF-SCORE:    0.00 PKD
ROOT
HETATM    1  C   UNL     1      -7.155   5.517  66.529  1.00  0.00    -0.069 C  
HETATM    2  C   UNL     1      -7.205   6.706  67.483  1.00  0.00    -0.090 C  
HETATM    3  C   UNL     1      -7.247   8.018  66.710  1.00  0.00    -0.082 C  
ENDROOT
BRANCH   2   4
HETATM    4  O   UNL     1      -8.403   6.630  68.277  1.00  0.00    -0.117 OA 
BRANCH   4   5
HETATM    5  C   UNL     1      -8.358   7.291  69.468  1.00  0.00    -0.133 C  
HETATM    6  O   UNL     1      -7.507   7.136  70.333  1.00  0.00    -0.081 OA 
BRANCH   5   7
HETATM    7  C   UNL     1      -9.544   8.211  69.593  1.00  0.00    -0.168 C  
BRANCH   7   8
HETATM    8  C   UNL     1      -9.367   9.163  70.774  1.00  0.00    -0.325 C  
BRANCH   8   9
HETATM    9  C   UNL     1     -10.710   9.431  71.450  1.00  0.00    -0.407 C  
BRANCH   9  10
HETATM   10  C   UNL     1     -11.755   9.872  70.468  1.00  0.00    -0.373 C  
HETATM   11  C   UNL     1     -12.501  10.985  70.558  1.00  0.00    -0.432 C  
BRANCH  11  12
HETATM   12  C   UNL     1     -12.439  12.011  71.658  1.00  0.00    -0.078 C  
BRANCH  12  13
HETATM   13  C   UNL     1     -13.151  13.304  71.243  1.00  0.00    -0.299 C  
HETATM   14  C   UNL     1     -13.848  14.044  72.393  1.00  0.00    -0.551 C  
HETATM   15  C   UNL     1     -14.053  15.440  71.823  1.00  0.00    -0.630 C  
HETATM   16  O   UNL     1     -13.007  14.147  73.541  1.00  0.00    -0.468 OA 
HETATM   17  C   UNL     1     -12.724  15.731  71.128  1.00  0.00    -0.431 C  
HETATM   18  H   UNL     1     -13.439  14.606  74.252  1.00  0.00     0.000 HD 
HETATM   19  C   UNL     1     -12.186  14.360  70.641  1.00  0.00    -0.414 C  
HETATM   20  O   UNL     1     -11.807  16.305  72.063  1.00  0.00    -0.505 OA 
HETATM   21  H   UNL     1     -10.981  16.487  71.631  1.00  0.00     0.000 HD 
BRANCH  19  22
HETATM   22  C   UNL     1     -12.061  14.298  69.132  1.00  0.00    -0.337 C  
HETATM   23  C   UNL     1     -10.933  14.547  68.440  1.00  0.00    -0.255 C  
BRANCH  23  24
HETATM   24  C   UNL     1     -10.776  14.365  66.949  1.00  0.00    -0.292 C  
HETATM   25  F   UNL     1     -12.002  14.272  66.363  1.00  0.00    -0.371 F  
HETATM   26  F   UNL     1     -10.140  13.187  66.704  1.00  0.00    -0.243 F  
BRANCH  24  27
HETATM   27  C   UNL     1      -9.988  15.518  66.308  1.00  0.00    -0.293 C  
BRANCH  27  28
HETATM   28  O   UNL     1      -9.275  16.265  67.305  1.00  0.00    -0.205 OA 
BRANCH  28  29
HETATM   29  C   UNL     1      -9.548  17.606  67.341  1.00  0.00    -0.267 A  
HETATM   30  C   UNL     1     -10.285  18.098  66.262  1.00  0.00    -0.401 A  
HETATM   31  C   UNL     1     -10.625  19.451  66.195  1.00  0.00    -0.571 A  
HETATM   32  C   UNL     1     -10.241  20.315  67.218  1.00  0.00    -0.495 A  
HETATM   33  C   UNL     1      -9.524  19.826  68.308  1.00  0.00    -0.440 A  
HETATM   34  C   UNL     1      -9.178  18.473  68.372  1.00  0.00    -0.347 A  
ENDBRANCH  28  29
ENDBRANCH  27  28
ENDBRANCH  24  27
ENDBRANCH  23  24
ENDBRANCH  19  22
ENDBRANCH  12  13
ENDBRANCH  11  12
ENDBRANCH   9  10
ENDBRANCH   8   9
ENDBRANCH   7   8
ENDBRANCH   5   7
ENDBRANCH   4   5
ENDBRANCH   2   4
TORSDOF 13
ENDMDL
MODEL      112
REMARK 921   NORMALIZED FREE ENERGY PREDICTED BY IDOCK:   -5.06 KCAL/MOL
REMARK 922        TOTAL FREE ENERGY PREDICTED BY IDOCK:  -11.74 KCAL/MOL
REMARK 923 INTER-LIGAND FREE ENERGY PREDICTED BY IDOCK:   -9.16 KCAL/MOL
REMARK 924 INTRA-LIGAND FREE ENERGY PREDICTED BY IDOCK:   -2.58 KCAL/MOL
REMARK 927      BINDING AFFINITY PREDICTED BY RF-SCORE:    0.00 PKD
ROOT
HETATM    1  C   UNL     1      -9.462   5.459  68.577  1.00  0.00    -0.156 C  
HETATM    2  C   UNL     1      -9.491   5.828  67.098  1.00  0.00    -0.117 C  
HETATM    3  C   UNL     1     -10.663   5.152  66.396  1.00  0.00    -0.275 C  
ENDROOT
BRANCH   2   4
HETATM    4  O   UNL     1      -9.665   7.249  66.963  1.00  0.00    -0.158 OA 
BRANCH   4   5
HETATM    5  C   UNL     1      -8.734   7.883  66.197  1.00  0.00    -0.158 C  
HETATM    6  O   UNL     1      -8.536   7.680  65.007  1.00  0.00    -0.069 OA 
BRANCH   5   7
HETATM    7  C   UNL     1      -7.938   8.844  67.041  1.00  0.00    -0.102 C  
BRANCH   7   8
HETATM    8  C   UNL     1      -8.805   9.434  68.151  1.00  0.00    -0.124 C  
BRANCH   8   9
HETATM    9  C   UNL     1      -8.015   9.529  69.453  1.00  0.00    -0.099 C  
BRANCH   9  10
HETATM   10  C   UNL     1      -8.030   8.237  70.216  1.00  0.00    -0.102 C  
HETATM   11  C   UNL     1      -8.824   7.948  71.259  1.00  0.00    -0.152 C  
BRANCH  11  12
HETATM   12  C   UNL     1      -9.854   8.859  71.874  1.00  0.00    -0.364 C  
BRANCH  12  13
HETATM   13  C   UNL     1     -11.234   8.628  71.247  1.00  0.00    -0.338 C  
HETATM   14  C   UNL     1     -11.914   7.318  71.668  1.00  0.00    -0.308 C  
HETATM   15  C   UNL     1     -13.369   7.557  71.297  1.00  0.00    -0.312 C  
HETATM   16  O   UNL     1     -11.838   7.113  73.077  1.00  0.00    -0.522 OA 
HETATM   17  C   UNL     1     -13.619   8.989  71.767  1.00  0.00    -0.413 C  
HETATM   18  H   UNL     1     -12.259   6.302  73.338  1.00  0.00     0.000 HD 
HETATM   19  C   UNL     1     -12.262   9.728  71.625  1.00  0.00    -0.488 C  
HETATM   20  O   UNL     1     -14.025   8.983  73.137  1.00  0.00    -1.130 OA 
HETATM   21  H   UNL     1     -14.180   9.873  73.429  1.00  0.00     0.000 HD 
BRANCH  19  22
HETATM   22  C   UNL     1     -12.336  10.875  70.636  1.00  0.00    -0.470 C  
HETATM   23  C   UNL     1     -11.431  11.121  69.670  1.00  0.00    -0.383 C  
BRANCH  23  24
HETATM   24  C   UNL     1     -11.568  12.186  68.609  1.00  0.00    -0.321 C  
HETATM   25  F   UNL     1     -12.360  11.732  67.598  1.00  0.00    -0.161 F  
HETATM   26  F   UNL     1     -10.348  12.437  68.062  1.00  0.00    -0.194 F  
BRANCH  24  27
HETATM   27  C   UNL     1     -12.156  13.489  69.173  1.00  0.00    -0.288 C  
BRANCH  27  28
HETATM   28  O   UNL     1     -11.170  14.210  69.925  1.00  0.00    -0.210 OA 
BRANCH  28  29
HETATM   29  C   UNL     1     -10.630  15.298  69.292  1.00  0.00    -0.256 A  
HETATM   30  C   UNL     1      -9.255  15.473  69.466  1.00  0.00    -0.265 A  
HETATM   31  C   UNL     1      -8.598  16.547  68.863  1.00  0.00    -0.241 A  
HETATM   32  C   UNL     1      -9.311  17.444  68.071  1.00  0.00    -0.276 A  
HETATM   33  C   UNL     1     -10.680  17.263  67.877  1.00  0.00    -0.351 A  
HETATM   34  C   UNL     1     -11.339  16.191  68.485  1.00  0.00    -0.359 A  
ENDBRANCH  28  29
ENDBRANCH  27  28
ENDBRANCH  24  27
ENDBRANCH  23  24
ENDBRANCH  19  22
ENDBRANCH  12  13
ENDBRANCH  11  12
ENDBRANCH   9  10
ENDBRANCH   8   9
ENDBRANCH   7   8
ENDBRANCH   5   7
ENDBRANCH   4   5
ENDBRANCH   2   4
TORSDOF 13
ENDMDL
MODEL      113
REMARK 921   NORMALIZED FREE ENERGY PREDICTED BY IDOCK:   -5.06 KCAL/MOL
REMARK 922        TOTAL FREE ENERGY PREDICTED BY IDOCK:  -11.74 KCAL/MOL
REMARK 923 INTER-LIGAND FREE ENERGY PREDICTED BY IDOCK:   -9.44 KCAL/MOL
REMARK 924 INTRA-LIGAND FREE ENERGY PREDICTED BY IDOCK:   -2.30 KCAL/MOL
REMARK 927      BINDING AFFINITY PREDICTED BY RF-SCORE:    0.00 PKD
ROOT
HETATM    1  C   UNL     1      -6.829   8.564  66.335  1.00  0.00    -0.074 C  
HETATM    2  C   UNL     1      -7.024  10.026  65.948  1.00  0.00    -0.113 C  
HETATM    3  C   UNL     1      -6.092  10.412  64.807  1.00  0.00    -0.103 C  
ENDROOT
BRANCH   2   4
HETATM    4  O   UNL     1      -8.374  10.223  65.493  1.00  0.00    -0.151 OA 
BRANCH   4   5
HETATM    5  C   UNL     1      -9.170  10.957  66.320  1.00  0.00    -0.177 C  
HETATM    6  O   UNL     1      -8.840  11.985  66.893  1.00  0.00    -0.186 OA 
BRANCH   5   7
HETATM    7  C   UNL     1     -10.512  10.290  66.471  1.00  0.00    -0.241 C  
BRANCH   7   8
HETATM    8  C   UNL     1     -10.730   9.835  67.913  1.00  0.00    -0.312 C  
BRANCH   8   9
HETATM    9  C   UNL     1     -10.372   8.358  68.067  1.00  0.00    -0.270 C  
BRANCH   9  10
HETATM   10  C   UNL     1      -9.256   8.149  69.048  1.00  0.00    -0.148 C  
HETATM   11  C   UNL     1      -9.132   7.111  69.890  1.00  0.00    -0.141 C  
BRANCH  11  12
HETATM   12  C   UNL     1     -10.084   5.952  70.021  1.00  0.00    -0.258 C  
BRANCH  12  13
HETATM   13  C   UNL     1     -10.713   5.914  71.419  1.00  0.00    -0.319 C  
HETATM   14  C   UNL     1     -10.121   4.852  72.355  1.00  0.00    -0.187 C  
HETATM   15  C   UNL     1     -10.571   5.323  73.729  1.00  0.00    -0.330 C  
HETATM   16  O   UNL     1      -8.695   4.857  72.323  1.00  0.00    -0.122 OA 
HETATM   17  C   UNL     1     -10.331   6.831  73.677  1.00  0.00    -0.344 C  
HETATM   18  H   UNL     1      -8.329   4.199  72.903  1.00  0.00     0.000 HD 
HETATM   19  C   UNL     1     -10.539   7.246  72.197  1.00  0.00    -0.242 C  
HETATM   20  O   UNL     1      -8.990   7.120  74.076  1.00  0.00    -0.175 OA 
HETATM   21  H   UNL     1      -8.841   8.058  74.044  1.00  0.00     0.000 HD 
BRANCH  19  22
HETATM   22  C   UNL     1     -11.692   8.217  72.032  1.00  0.00    -0.389 C  
HETATM   23  C   UNL     1     -11.572   9.497  71.632  1.00  0.00    -0.451 C  
BRANCH  23  24
HETATM   24  C   UNL     1     -12.728  10.425  71.348  1.00  0.00    -0.446 C  
HETATM   25  F   UNL     1     -13.532  10.512  72.443  1.00  0.00    -0.495 F  
HETATM   26  F   UNL     1     -13.491   9.903  70.349  1.00  0.00    -0.256 F  
BRANCH  24  27
HETATM   27  C   UNL     1     -12.252  11.832  70.949  1.00  0.00    -0.276 C  
BRANCH  27  28
HETATM   28  O   UNL     1     -13.272  12.807  71.206  1.00  0.00    -0.220 OA 
BRANCH  28  29
HETATM   29  C   UNL     1     -12.824  14.016  71.666  1.00  0.00    -0.352 A  
HETATM   30  C   UNL     1     -13.352  14.425  72.893  1.00  0.00    -0.575 A  
HETATM   31  C   UNL     1     -12.963  15.641  73.460  1.00  0.00    -0.679 A  
HETATM   32  C   UNL     1     -12.033  16.447  72.808  1.00  0.00    -0.585 A  
HETATM   33  C   UNL     1     -11.487  16.035  71.594  1.00  0.00    -0.443 A  
HETATM   34  C   UNL     1     -11.880  14.821  71.023  1.00  0.00    -0.383 A  
ENDBRANCH  28  29
ENDBRANCH  27  28
ENDBRANCH  24  27
ENDBRANCH  23  24
ENDBRANCH  19  22
ENDBRANCH  12  13
ENDBRANCH  11  12
ENDBRANCH   9  10
ENDBRANCH   8   9
ENDBRANCH   7   8
ENDBRANCH   5   7
ENDBRANCH   4   5
ENDBRANCH   2   4
TORSDOF 13
ENDMDL
MODEL      114
REMARK 921   NORMALIZED FREE ENERGY PREDICTED BY IDOCK:   -5.05 KCAL/MOL
REMARK 922        TOTAL FREE ENERGY PREDICTED BY IDOCK:  -11.72 KCAL/MOL
REMARK 923 INTER-LIGAND FREE ENERGY PREDICTED BY IDOCK:   -9.24 KCAL/MOL
REMARK 924 INTRA-LIGAND FREE ENERGY PREDICTED BY IDOCK:   -2.48 KCAL/MOL
REMARK 927      BINDING AFFINITY PREDICTED BY RF-SCORE:    0.00 PKD
ROOT
HETATM    1  C   UNL     1     -10.305  13.411  64.776  1.00  0.00    -0.397 C  
HETATM    2  C   UNL     1     -11.251  12.252  65.075  1.00  0.00    -0.321 C  
HETATM    3  C   UNL     1     -12.548  12.396  64.288  1.00  0.00    -0.494 C  
ENDROOT
BRANCH   2   4
HETATM    4  O   UNL     1     -10.634  11.016  64.674  1.00  0.00    -0.333 OA 
BRANCH   4   5
HETATM    5  C   UNL     1      -9.734  10.498  65.556  1.00  0.00    -0.242 C  
HETATM    6  O   UNL     1      -8.570  10.225  65.302  1.00  0.00    -0.152 OA 
BRANCH   5   7
HETATM    7  C   UNL     1     -10.395  10.259  66.888  1.00  0.00    -0.298 C  
BRANCH   7   8
HETATM    8  C   UNL     1     -10.375   8.773  67.242  1.00  0.00    -0.360 C  
BRANCH   8   9
HETATM    9  C   UNL     1      -9.204   8.461  68.170  1.00  0.00    -0.141 C  
BRANCH   9  10
HETATM   10  C   UNL     1      -9.430   7.203  68.957  1.00  0.00    -0.143 C  
HETATM   11  C   UNL     1     -10.028   7.121  70.157  1.00  0.00    -0.190 C  
BRANCH  11  12
HETATM   12  C   UNL     1     -10.589   8.271  70.952  1.00  0.00    -0.239 C  
BRANCH  12  13
HETATM   13  C   UNL     1     -12.104   8.387  70.754  1.00  0.00    -0.064 C  
HETATM   14  C   UNL     1     -12.903   7.164  71.224  1.00  0.00    -0.349 C  
HETATM   15  C   UNL     1     -14.319   7.708  71.340  1.00  0.00    -0.537 C  
HETATM   16  O   UNL     1     -12.485   6.724  72.514  1.00  0.00    -0.499 OA 
HETATM   17  C   UNL     1     -14.117   9.067  72.009  1.00  0.00    -0.368 C  
HETATM   18  H   UNL     1     -12.980   5.967  72.805  1.00  0.00     0.000 HD 
HETATM   19  C   UNL     1     -12.728   9.572  71.539  1.00  0.00    -0.461 C  
HETATM   20  O   UNL     1     -14.118   8.909  73.430  1.00  0.00    -1.256 OA 
HETATM   21  H   UNL     1     -13.993   9.754  73.846  1.00  0.00     0.000 HD 
BRANCH  19  22
HETATM   22  C   UNL     1     -12.827  10.859  70.744  1.00  0.00    -0.378 C  
HETATM   23  C   UNL     1     -12.229  12.019  71.075  1.00  0.00    -0.245 C  
BRANCH  23  24
HETATM   24  C   UNL     1     -12.224  13.264  70.221  1.00  0.00    -0.321 C  
HETATM   25  F   UNL     1     -11.790  14.326  70.953  1.00  0.00    -0.347 F  
HETATM   26  F   UNL     1     -13.498  13.553  69.838  1.00  0.00     0.452 F  
BRANCH  24  27
HETATM   27  C   UNL     1     -11.337  13.104  68.975  1.00  0.00    -0.282 C  
BRANCH  27  28
HETATM   28  O   UNL     1     -10.949  14.385  68.458  1.00  0.00    -0.235 OA 
BRANCH  28  29
HETATM   29  C   UNL     1      -9.606  14.649  68.493  1.00  0.00    -0.221 A  
HETATM   30  C   UNL     1      -8.776  13.591  68.114  1.00  0.00    -0.174 A  
HETATM   31  C   UNL     1      -7.388  13.748  68.109  1.00  0.00    -0.124 A  
HETATM   32  C   UNL     1      -6.825  14.970  68.469  1.00  0.00    -0.102 A  
HETATM   33  C   UNL     1      -7.649  16.036  68.828  1.00  0.00    -0.184 A  
HETATM   34  C   UNL     1      -9.037  15.878  68.839  1.00  0.00    -0.233 A  
ENDBRANCH  28  29
ENDBRANCH  27  28
ENDBRANCH  24  27
ENDBRANCH  23  24
ENDBRANCH  19  22
ENDBRANCH  12  13
ENDBRANCH  11  12
ENDBRANCH   9  10
ENDBRANCH   8   9
ENDBRANCH   7   8
ENDBRANCH   5   7
ENDBRANCH   4   5
ENDBRANCH   2   4
TORSDOF 13
ENDMDL
MODEL      115
REMARK 921   NORMALIZED FREE ENERGY PREDICTED BY IDOCK:   -5.04 KCAL/MOL
REMARK 922        TOTAL FREE ENERGY PREDICTED BY IDOCK:  -11.71 KCAL/MOL
REMARK 923 INTER-LIGAND FREE ENERGY PREDICTED BY IDOCK:   -9.77 KCAL/MOL
REMARK 924 INTRA-LIGAND FREE ENERGY PREDICTED BY IDOCK:   -1.94 KCAL/MOL
REMARK 927      BINDING AFFINITY PREDICTED BY RF-SCORE:    0.00 PKD
ROOT
HETATM    1  C   UNL     1      -9.831   4.036  65.559  1.00  0.00    -0.186 C  
HETATM    2  C   UNL     1      -8.790   4.669  66.476  1.00  0.00    -0.111 C  
HETATM    3  C   UNL     1      -7.381   4.384  65.972  1.00  0.00    -0.077 C  
ENDROOT
BRANCH   2   4
HETATM    4  O   UNL     1      -8.967   6.097  66.485  1.00  0.00    -0.130 OA 
BRANCH   4   5
HETATM    5  C   UNL     1      -9.911   6.564  67.350  1.00  0.00    -0.133 C  
HETATM    6  O   UNL     1     -11.080   6.786  67.070  1.00  0.00    -0.403 OA 
BRANCH   5   7
HETATM    7  C   UNL     1      -9.294   6.820  68.699  1.00  0.00    -0.131 C  
BRANCH   7   8
HETATM    8  C   UNL     1      -8.008   7.633  68.561  1.00  0.00    -0.123 C  
BRANCH   8   9
HETATM    9  C   UNL     1      -8.326   9.071  68.156  1.00  0.00    -0.121 C  
BRANCH   9  10
HETATM   10  C   UNL     1      -7.746   9.420  66.818  1.00  0.00    -0.098 C  
HETATM   11  C   UNL     1      -8.429   9.884  65.760  1.00  0.00    -0.142 C  
BRANCH  11  12
HETATM   12  C   UNL     1      -9.911  10.146  65.702  1.00  0.00    -0.348 C  
BRANCH  12  13
HETATM   13  C   UNL     1     -10.197  11.619  65.389  1.00  0.00    -0.306 C  
HETATM   14  C   UNL     1     -10.426  11.921  63.902  1.00  0.00    -0.397 C  
HETATM   15  C   UNL     1     -11.111  13.279  63.932  1.00  0.00    -0.272 C  
HETATM   16  O   UNL     1     -11.318  10.982  63.304  1.00  0.00    -0.686 OA 
HETATM   17  C   UNL     1     -12.117  13.135  65.073  1.00  0.00    -0.415 C  
HETATM   18  H   UNL     1     -11.460  11.169  62.383  1.00  0.00     0.000 HD 
HETATM   19  C   UNL     1     -11.479  12.148  66.085  1.00  0.00    -0.429 C  
HETATM   20  O   UNL     1     -13.339  12.590  64.572  1.00  0.00    -0.780 OA 
HETATM   21  H   UNL     1     -13.965  12.501  65.281  1.00  0.00     0.000 HD 
BRANCH  19  22
HETATM   22  C   UNL     1     -11.231  12.794  67.435  1.00  0.00    -0.337 C  
HETATM   23  C   UNL     1     -11.567  14.057  67.760  1.00  0.00    -0.378 C  
BRANCH  23  24
HETATM   24  C   UNL     1     -11.434  14.659  69.138  1.00  0.00    -0.294 C  
HETATM   25  F   UNL     1     -11.458  13.673  70.077  1.00  0.00    -0.304 F  
HETATM   26  F   UNL     1     -12.507  15.457  69.387  1.00  0.00    -0.291 F  
BRANCH  24  27
HETATM   27  C   UNL     1     -10.140  15.476  69.287  1.00  0.00    -0.256 C  
BRANCH  27  28
HETATM   28  O   UNL     1     -10.432  16.832  69.653  1.00  0.00    -0.291 OA 
BRANCH  28  29
HETATM   29  C   UNL     1     -10.122  17.774  68.710  1.00  0.00    -0.381 A  
HETATM   30  C   UNL     1      -9.883  17.283  67.425  1.00  0.00    -0.272 A  
HETATM   31  C   UNL     1      -9.560  18.155  66.383  1.00  0.00    -0.298 A  
HETATM   32  C   UNL     1      -9.491  19.526  66.619  1.00  0.00    -0.439 A  
HETATM   33  C   UNL     1      -9.749  20.025  67.895  1.00  0.00    -0.517 A  
HETATM   34  C   UNL     1     -10.066  19.152  68.940  1.00  0.00    -0.422 A  
ENDBRANCH  28  29
ENDBRANCH  27  28
ENDBRANCH  24  27
ENDBRANCH  23  24
ENDBRANCH  19  22
ENDBRANCH  12  13
ENDBRANCH  11  12
ENDBRANCH   9  10
ENDBRANCH   8   9
ENDBRANCH   7   8
ENDBRANCH   5   7
ENDBRANCH   4   5
ENDBRANCH   2   4
TORSDOF 13
ENDMDL
MODEL      116
REMARK 921   NORMALIZED FREE ENERGY PREDICTED BY IDOCK:   -5.03 KCAL/MOL
REMARK 922        TOTAL FREE ENERGY PREDICTED BY IDOCK:  -11.70 KCAL/MOL
REMARK 923 INTER-LIGAND FREE ENERGY PREDICTED BY IDOCK:   -9.17 KCAL/MOL
REMARK 924 INTRA-LIGAND FREE ENERGY PREDICTED BY IDOCK:   -2.53 KCAL/MOL
REMARK 927      BINDING AFFINITY PREDICTED BY RF-SCORE:    0.00 PKD
ROOT
HETATM    1  C   UNL     1      -7.789  12.813  68.248  1.00  0.00    -0.141 C  
HETATM    2  C   UNL     1      -6.350  12.664  67.766  1.00  0.00    -0.130 C  
HETATM    3  C   UNL     1      -5.512  13.864  68.189  1.00  0.00    -0.120 C  
ENDROOT
BRANCH   2   4
HETATM    4  O   UNL     1      -5.765  11.493  68.363  1.00  0.00    -0.046 OA 
BRANCH   4   5
HETATM    5  C   UNL     1      -6.650  10.554  68.800  1.00  0.00    -0.053 C  
HETATM    6  O   UNL     1      -7.109  10.485  69.932  1.00  0.00    -0.140 OA 
BRANCH   5   7
HETATM    7  C   UNL     1      -6.950   9.574  67.697  1.00  0.00    -0.080 C  
BRANCH   7   8
HETATM    8  C   UNL     1      -7.997   8.557  68.148  1.00  0.00    -0.111 C  
BRANCH   8   9
HETATM    9  C   UNL     1      -8.716   7.959  66.941  1.00  0.00    -0.136 C  
BRANCH   9  10
HETATM   10  C   UNL     1     -10.084   8.547  66.754  1.00  0.00    -0.369 C  
HETATM   11  C   UNL     1     -10.372   9.677  66.089  1.00  0.00    -0.202 C  
BRANCH  11  12
HETATM   12  C   UNL     1      -9.384  10.581  65.399  1.00  0.00    -0.255 C  
BRANCH  12  13
HETATM   13  C   UNL     1     -10.035  11.914  65.016  1.00  0.00    -0.276 C  
HETATM   14  C   UNL     1     -10.358  12.059  63.523  1.00  0.00    -0.461 C  
HETATM   15  C   UNL     1     -11.361  13.203  63.502  1.00  0.00    -0.214 C  
HETATM   16  O   UNL     1     -10.996  10.893  63.005  1.00  0.00    -0.738 OA 
HETATM   17  C   UNL     1     -12.280  12.882  64.680  1.00  0.00    -0.435 C  
HETATM   18  H   UNL     1     -11.196  10.983  62.080  1.00  0.00     0.000 HD 
HETATM   19  C   UNL     1     -11.397  12.149  65.723  1.00  0.00    -0.402 C  
HETATM   20  O   UNL     1     -13.334  12.020  64.247  1.00  0.00    -0.709 OA 
HETATM   21  H   UNL     1     -13.906  11.821  64.980  1.00  0.00     0.000 HD 
BRANCH  19  22
HETATM   22  C   UNL     1     -11.296  12.916  67.027  1.00  0.00    -0.355 C  
HETATM   23  C   UNL     1     -12.131  12.774  68.073  1.00  0.00    -0.174 C  
BRANCH  23  24
HETATM   24  C   UNL     1     -11.958  13.444  69.415  1.00  0.00    -0.315 C  
HETATM   25  F   UNL     1     -12.735  14.561  69.477  1.00  0.00    -0.287 F  
HETATM   26  F   UNL     1     -10.669  13.861  69.547  1.00  0.00    -0.213 F  
BRANCH  24  27
HETATM   27  C   UNL     1     -12.317  12.505  70.578  1.00  0.00    -0.262 C  
BRANCH  27  28
HETATM   28  O   UNL     1     -12.617  11.187  70.096  1.00  0.00    -0.258 OA 
BRANCH  28  29
HETATM   29  C   UNL     1     -12.060  10.161  70.810  1.00  0.00    -0.343 A  
HETATM   30  C   UNL     1     -10.683   9.993  70.648  1.00  0.00    -0.325 A  
HETATM   31  C   UNL     1     -10.009   8.978  71.330  1.00  0.00    -0.388 A  
HETATM   32  C   UNL     1     -10.708   8.135  72.192  1.00  0.00    -0.360 A  
HETATM   33  C   UNL     1     -12.079   8.311  72.375  1.00  0.00    -0.430 A  
HETATM   34  C   UNL     1     -12.755   9.323  71.687  1.00  0.00    -0.442 A  
ENDBRANCH  28  29
ENDBRANCH  27  28
ENDBRANCH  24  27
ENDBRANCH  23  24
ENDBRANCH  19  22
ENDBRANCH  12  13
ENDBRANCH  11  12
ENDBRANCH   9  10
ENDBRANCH   8   9
ENDBRANCH   7   8
ENDBRANCH   5   7
ENDBRANCH   4   5
ENDBRANCH   2   4
TORSDOF 13
ENDMDL
MODEL      117
REMARK 921   NORMALIZED FREE ENERGY PREDICTED BY IDOCK:   -5.03 KCAL/MOL
REMARK 922        TOTAL FREE ENERGY PREDICTED BY IDOCK:  -11.69 KCAL/MOL
REMARK 923 INTER-LIGAND FREE ENERGY PREDICTED BY IDOCK:   -8.78 KCAL/MOL
REMARK 924 INTRA-LIGAND FREE ENERGY PREDICTED BY IDOCK:   -2.91 KCAL/MOL
REMARK 927      BINDING AFFINITY PREDICTED BY RF-SCORE:    0.00 PKD
ROOT
HETATM    1  C   UNL     1     -10.059  16.029  68.130  1.00  0.00    -0.234 C  
HETATM    2  C   UNL     1      -9.689  15.184  66.916  1.00  0.00    -0.239 C  
HETATM    3  C   UNL     1     -10.260  15.792  65.641  1.00  0.00    -0.407 C  
ENDROOT
BRANCH   2   4
HETATM    4  O   UNL     1      -8.258  15.147  66.778  1.00  0.00    -0.221 OA 
BRANCH   4   5
HETATM    5  C   UNL     1      -7.602  14.368  67.683  1.00  0.00    -0.179 C  
HETATM    6  O   UNL     1      -6.789  14.768  68.504  1.00  0.00    -0.098 OA 
BRANCH   5   7
HETATM    7  C   UNL     1      -7.984  12.924  67.495  1.00  0.00    -0.178 C  
BRANCH   7   8
HETATM    8  C   UNL     1      -7.912  12.169  68.820  1.00  0.00     0.007 C  
BRANCH   8   9
HETATM    9  C   UNL     1      -7.976  10.662  68.581  1.00  0.00    -0.128 C  
BRANCH   9  10
HETATM   10  C   UNL     1      -7.914   9.886  69.863  1.00  0.00    -0.193 C  
HETATM   11  C   UNL     1      -8.632   8.789  70.155  1.00  0.00    -0.149 C  
BRANCH  11  12
HETATM   12  C   UNL     1      -9.641   8.121  69.259  1.00  0.00    -0.164 C  
BRANCH  12  13
HETATM   13  C   UNL     1     -11.034   8.128  69.899  1.00  0.00    -0.168 C  
HETATM   14  C   UNL     1     -11.568   6.740  70.277  1.00  0.00    -0.362 C  
HETATM   15  C   UNL     1     -12.685   7.062  71.258  1.00  0.00    -0.400 C  
HETATM   16  O   UNL     1     -10.584   5.962  70.956  1.00  0.00    -0.228 OA 
HETATM   17  C   UNL     1     -12.073   8.152  72.137  1.00  0.00    -0.357 C  
HETATM   18  H   UNL     1     -10.916   5.103  71.190  1.00  0.00     0.000 HD 
HETATM   19  C   UNL     1     -11.085   8.929  71.228  1.00  0.00    -0.367 C  
HETATM   20  O   UNL     1     -11.364   7.554  73.223  1.00  0.00    -0.599 OA 
HETATM   21  H   UNL     1     -10.984   8.232  73.769  1.00  0.00     0.000 HD 
BRANCH  19  22
HETATM   22  C   UNL     1     -11.482  10.383  71.062  1.00  0.00    -0.304 C  
HETATM   23  C   UNL     1     -11.424  11.071  69.906  1.00  0.00    -0.400 C  
BRANCH  23  24
HETATM   24  C   UNL     1     -11.935  12.479  69.713  1.00  0.00    -0.289 C  
HETATM   25  F   UNL     1     -11.176  13.350  70.433  1.00  0.00    -0.076 F  
HETATM   26  F   UNL     1     -13.200  12.570  70.205  1.00  0.00     0.307 F  
BRANCH  24  27
HETATM   27  C   UNL     1     -11.927  12.895  68.233  1.00  0.00    -0.254 C  
BRANCH  27  28
HETATM   28  O   UNL     1     -12.002  11.745  67.379  1.00  0.00    -0.617 OA 
BRANCH  28  29
HETATM   29  C   UNL     1     -11.716  11.974  66.060  1.00  0.00    -0.241 A  
HETATM   30  C   UNL     1     -10.668  11.217  65.532  1.00  0.00    -0.283 A  
HETATM   31  C   UNL     1     -10.291  11.366  64.195  1.00  0.00    -0.400 A  
HETATM   32  C   UNL     1     -10.972  12.264  63.376  1.00  0.00    -0.467 A  
HETATM   33  C   UNL     1     -12.033  13.007  63.892  1.00  0.00    -0.551 A  
HETATM   34  C   UNL     1     -12.407  12.862  65.231  1.00  0.00    -0.544 A  
ENDBRANCH  28  29
ENDBRANCH  27  28
ENDBRANCH  24  27
ENDBRANCH  23  24
ENDBRANCH  19  22
ENDBRANCH  12  13
ENDBRANCH  11  12
ENDBRANCH   9  10
ENDBRANCH   8   9
ENDBRANCH   7   8
ENDBRANCH   5   7
ENDBRANCH   4   5
ENDBRANCH   2   4
TORSDOF 13
ENDMDL
MODEL      118
REMARK 921   NORMALIZED FREE ENERGY PREDICTED BY IDOCK:   -5.03 KCAL/MOL
REMARK 922        TOTAL FREE ENERGY PREDICTED BY IDOCK:  -11.68 KCAL/MOL
REMARK 923 INTER-LIGAND FREE ENERGY PREDICTED BY IDOCK:   -9.68 KCAL/MOL
REMARK 924 INTRA-LIGAND FREE ENERGY PREDICTED BY IDOCK:   -2.00 KCAL/MOL
REMARK 927      BINDING AFFINITY PREDICTED BY RF-SCORE:    0.00 PKD
ROOT
HETATM    1  C   UNL     1     -12.266   8.822  71.758  1.00  0.00    -0.415 C  
HETATM    2  C   UNL     1     -12.864   7.427  71.607  1.00  0.00    -0.367 C  
HETATM    3  C   UNL     1     -14.384   7.497  71.531  1.00  0.00    -0.603 C  
ENDROOT
BRANCH   2   4
HETATM    4  O   UNL     1     -12.394   6.837  70.382  1.00  0.00    -0.275 OA 
BRANCH   4   5
HETATM    5  C   UNL     1     -11.234   6.130  70.480  1.00  0.00    -0.334 C  
HETATM    6  O   UNL     1     -10.820   5.584  71.493  1.00  0.00    -0.244 OA 
BRANCH   5   7
HETATM    7  C   UNL     1     -10.499   6.158  69.166  1.00  0.00    -0.310 C  
BRANCH   7   8
HETATM    8  C   UNL     1     -10.533   7.558  68.557  1.00  0.00    -0.211 C  
BRANCH   8   9
HETATM    9  C   UNL     1      -9.718   8.530  69.407  1.00  0.00    -0.177 C  
BRANCH   9  10
HETATM   10  C   UNL     1      -8.558   9.104  68.648  1.00  0.00    -0.128 C  
HETATM   11  C   UNL     1      -8.403  10.392  68.302  1.00  0.00    -0.119 C  
BRANCH  11  12
HETATM   12  C   UNL     1      -9.360  11.516  68.603  1.00  0.00    -0.142 C  
BRANCH  12  13
HETATM   13  C   UNL     1      -9.887  12.149  67.310  1.00  0.00    -0.202 C  
HETATM   14  C   UNL     1     -11.176  11.514  66.771  1.00  0.00    -0.285 C  
HETATM   15  C   UNL     1     -11.700  12.571  65.811  1.00  0.00    -0.478 C  
HETATM   16  O   UNL     1     -12.144  11.326  67.802  1.00  0.00    -0.631 OA 
HETATM   17  C   UNL     1     -11.493  13.874  66.581  1.00  0.00    -0.355 C  
HETATM   18  H   UNL     1     -12.942  10.933  67.468  1.00  0.00     0.000 HD 
HETATM   19  C   UNL     1     -10.243  13.651  67.472  1.00  0.00    -0.241 C  
HETATM   20  O   UNL     1     -12.632  14.134  67.403  1.00  0.00    -0.502 OA 
HETATM   21  H   UNL     1     -12.504  14.944  67.882  1.00  0.00     0.000 HD 
BRANCH  19  22
HETATM   22  C   UNL     1      -9.113  14.598  67.120  1.00  0.00    -0.236 C  
HETATM   23  C   UNL     1      -8.078  14.899  67.928  1.00  0.00    -0.148 C  
BRANCH  23  24
HETATM   24  C   UNL     1      -6.890  15.742  67.532  1.00  0.00    -0.189 C  
HETATM   25  F   UNL     1      -7.010  16.129  66.232  1.00  0.00    -0.104 F  
HETATM   26  F   UNL     1      -5.758  14.991  67.609  1.00  0.00    -0.139 F  
BRANCH  24  27
HETATM   27  C   UNL     1      -6.744  16.985  68.425  1.00  0.00    -0.170 C  
BRANCH  27  28
HETATM   28  O   UNL     1      -8.022  17.413  68.918  1.00  0.00    -0.256 OA 
BRANCH  28  29
HETATM   29  C   UNL     1      -8.692  18.300  68.119  1.00  0.00    -0.281 A  
HETATM   30  C   UNL     1     -10.084  18.205  68.153  1.00  0.00    -0.388 A  
HETATM   31  C   UNL     1     -10.871  19.063  67.380  1.00  0.00    -0.496 A  
HETATM   32  C   UNL     1     -10.266  20.030  66.580  1.00  0.00    -0.597 A  
HETATM   33  C   UNL     1      -8.876  20.143  66.558  1.00  0.00    -0.370 A  
HETATM   34  C   UNL     1      -8.089  19.281  67.327  1.00  0.00    -0.291 A  
ENDBRANCH  28  29
ENDBRANCH  27  28
ENDBRANCH  24  27
ENDBRANCH  23  24
ENDBRANCH  19  22
ENDBRANCH  12  13
ENDBRANCH  11  12
ENDBRANCH   9  10
ENDBRANCH   8   9
ENDBRANCH   7   8
ENDBRANCH   5   7
ENDBRANCH   4   5
ENDBRANCH   2   4
TORSDOF 13
ENDMDL
MODEL      119
REMARK 921   NORMALIZED FREE ENERGY PREDICTED BY IDOCK:   -5.01 KCAL/MOL
REMARK 922        TOTAL FREE ENERGY PREDICTED BY IDOCK:  -11.65 KCAL/MOL
REMARK 923 INTER-LIGAND FREE ENERGY PREDICTED BY IDOCK:   -9.25 KCAL/MOL
REMARK 924 INTRA-LIGAND FREE ENERGY PREDICTED BY IDOCK:   -2.39 KCAL/MOL
REMARK 927      BINDING AFFINITY PREDICTED BY RF-SCORE:    0.00 PKD
ROOT
HETATM    1  C   UNL     1      -8.308  15.534  68.615  1.00  0.00    -0.172 C  
HETATM    2  C   UNL     1      -9.272  14.748  67.733  1.00  0.00    -0.194 C  
HETATM    3  C   UNL     1      -9.720  15.586  66.542  1.00  0.00    -0.290 C  
ENDROOT
BRANCH   2   4
HETATM    4  O   UNL     1      -8.606  13.582  67.219  1.00  0.00    -0.198 OA 
BRANCH   4   5
HETATM    5  C   UNL     1      -9.012  12.394  67.748  1.00  0.00    -0.182 C  
HETATM    6  O   UNL     1      -8.526  11.852  68.730  1.00  0.00    -0.087 OA 
BRANCH   5   7
HETATM    7  C   UNL     1     -10.123  11.811  66.915  1.00  0.00    -0.231 C  
BRANCH   7   8
HETATM    8  C   UNL     1     -11.055  10.960  67.776  1.00  0.00    -0.371 C  
BRANCH   8   9
HETATM    9  C   UNL     1     -10.992   9.496  67.346  1.00  0.00    -0.103 C  
BRANCH   9  10
HETATM   10  C   UNL     1      -9.678   8.862  67.697  1.00  0.00    -0.202 C  
HETATM   11  C   UNL     1      -9.494   7.585  68.067  1.00  0.00    -0.149 C  
BRANCH  11  12
HETATM   12  C   UNL     1     -10.564   6.535  68.205  1.00  0.00    -0.307 C  
BRANCH  12  13
HETATM   13  C   UNL     1     -10.697   6.075  69.661  1.00  0.00    -0.405 C  
HETATM   14  C   UNL     1     -10.141   4.671  69.938  1.00  0.00    -0.187 C  
HETATM   15  C   UNL     1      -9.983   4.662  71.451  1.00  0.00    -0.267 C  
HETATM   16  O   UNL     1      -8.854   4.488  69.351  1.00  0.00    -0.084 OA 
HETATM   17  C   UNL     1      -9.380   6.035  71.747  1.00  0.00    -0.148 C  
HETATM   18  H   UNL     1      -8.510   3.619  69.524  1.00  0.00     0.000 HD 
HETATM   19  C   UNL     1      -9.934   6.989  70.657  1.00  0.00    -0.194 C  
HETATM   20  O   UNL     1      -7.956   5.966  71.651  1.00  0.00    -0.110 OA 
HETATM   21  H   UNL     1      -7.582   6.819  71.836  1.00  0.00     0.000 HD 
BRANCH  19  22
HETATM   22  C   UNL     1     -10.777   8.103  71.246  1.00  0.00    -0.270 C  
HETATM   23  C   UNL     1     -12.098   8.263  71.042  1.00  0.00    -0.225 C  
BRANCH  23  24
HETATM   24  C   UNL     1     -12.959   9.297  71.727  1.00  0.00    -0.396 C  
HETATM   25  F   UNL     1     -12.958   9.082  73.071  1.00  0.00    -0.430 F  
HETATM   26  F   UNL     1     -14.248   9.155  71.313  1.00  0.00    -0.406 F  
BRANCH  24  27
HETATM   27  C   UNL     1     -12.480  10.729  71.437  1.00  0.00    -0.373 C  
BRANCH  27  28
HETATM   28  O   UNL     1     -13.383  11.692  71.999  1.00  0.00    -0.481 OA 
BRANCH  28  29
HETATM   29  C   UNL     1     -13.055  13.002  71.778  1.00  0.00    -0.373 A  
HETATM   30  C   UNL     1     -12.327  13.251  70.612  1.00  0.00    -0.416 A  
HETATM   31  C   UNL     1     -11.940  14.552  70.283  1.00  0.00    -0.379 A  
HETATM   32  C   UNL     1     -12.294  15.613  71.113  1.00  0.00    -0.482 A  
HETATM   33  C   UNL     1     -13.038  15.375  72.267  1.00  0.00    -0.496 A  
HETATM   34  C   UNL     1     -13.421  14.072  72.600  1.00  0.00    -0.650 A  
ENDBRANCH  28  29
ENDBRANCH  27  28
ENDBRANCH  24  27
ENDBRANCH  23  24
ENDBRANCH  19  22
ENDBRANCH  12  13
ENDBRANCH  11  12
ENDBRANCH   9  10
ENDBRANCH   8   9
ENDBRANCH   7   8
ENDBRANCH   5   7
ENDBRANCH   4   5
ENDBRANCH   2   4
TORSDOF 13
ENDMDL
MODEL      120
REMARK 921   NORMALIZED FREE ENERGY PREDICTED BY IDOCK:   -4.98 KCAL/MOL
REMARK 922        TOTAL FREE ENERGY PREDICTED BY IDOCK:  -11.61 KCAL/MOL
REMARK 923 INTER-LIGAND FREE ENERGY PREDICTED BY IDOCK:   -8.76 KCAL/MOL
REMARK 924 INTRA-LIGAND FREE ENERGY PREDICTED BY IDOCK:   -2.85 KCAL/MOL
REMARK 927      BINDING AFFINITY PREDICTED BY RF-SCORE:    0.00 PKD
ROOT
HETATM    1  C   UNL     1     -12.247  13.337  63.511  1.00  0.00    -0.513 C  
HETATM    2  C   UNL     1     -11.686  12.327  64.507  1.00  0.00    -0.353 C  
HETATM    3  C   UNL     1     -10.591  11.486  63.865  1.00  0.00    -0.448 C  
ENDROOT
BRANCH   2   4
HETATM    4  O   UNL     1     -11.101  13.028  65.619  1.00  0.00    -0.274 OA 
BRANCH   4   5
HETATM    5  C   UNL     1     -11.129  12.364  66.809  1.00  0.00    -0.285 C  
HETATM    6  O   UNL     1     -12.098  11.782  67.273  1.00  0.00    -0.595 OA 
BRANCH   5   7
HETATM    7  C   UNL     1      -9.799  12.494  67.503  1.00  0.00    -0.198 C  
BRANCH   7   8
HETATM    8  C   UNL     1      -9.520  11.267  68.369  1.00  0.00    -0.192 C  
BRANCH   8   9
HETATM    9  C   UNL     1      -8.016  11.058  68.530  1.00  0.00    -0.137 C  
BRANCH   9  10
HETATM   10  C   UNL     1      -7.687  10.259  69.757  1.00  0.00    -0.159 C  
HETATM   11  C   UNL     1      -7.570   8.923  69.819  1.00  0.00    -0.069 C  
BRANCH  11  12
HETATM   12  C   UNL     1      -7.746   7.959  68.675  1.00  0.00    -0.113 C  
BRANCH  12  13
HETATM   13  C   UNL     1      -9.220   7.578  68.500  1.00  0.00    -0.143 C  
HETATM   14  C   UNL     1      -9.762   7.767  67.076  1.00  0.00    -0.197 C  
HETATM   15  C   UNL     1     -11.026   6.922  67.079  1.00  0.00    -0.404 C  
HETATM   16  O   UNL     1      -8.870   7.237  66.097  1.00  0.00    -0.156 OA 
HETATM   17  C   UNL     1     -10.593   5.649  67.806  1.00  0.00    -0.200 C  
HETATM   18  H   UNL     1      -9.206   7.354  65.216  1.00  0.00     0.000 HD 
HETATM   19  C   UNL     1      -9.501   6.085  68.818  1.00  0.00    -0.137 C  
HETATM   20  O   UNL     1     -10.040   4.723  66.867  1.00  0.00    -0.206 OA 
HETATM   21  H   UNL     1      -9.771   3.932  67.319  1.00  0.00     0.000 HD 
BRANCH  19  22
HETATM   22  C   UNL     1      -9.914   5.823  70.253  1.00  0.00    -0.258 C  
HETATM   23  C   UNL     1      -9.136   6.034  71.331  1.00  0.00    -0.149 C  
BRANCH  23  24
HETATM   24  C   UNL     1      -9.588   5.893  72.764  1.00  0.00    -0.155 C  
HETATM   25  F   UNL     1      -8.556   5.447  73.533  1.00  0.00    -0.114 F  
HETATM   26  F   UNL     1     -10.562   4.946  72.838  1.00  0.00    -0.213 F  
BRANCH  24  27
HETATM   27  C   UNL     1     -10.115   7.219  73.335  1.00  0.00    -0.320 C  
BRANCH  27  28
HETATM   28  O   UNL     1     -11.514   7.375  73.055  1.00  0.00    -0.277 OA 
BRANCH  28  29
HETATM   29  C   UNL     1     -11.839   8.447  72.268  1.00  0.00    -0.389 A  
HETATM   30  C   UNL     1     -13.200   8.750  72.198  1.00  0.00    -0.456 A  
HETATM   31  C   UNL     1     -13.646   9.825  71.426  1.00  0.00    -0.322 A  
HETATM   32  C   UNL     1     -12.729  10.612  70.732  1.00  0.00    -0.468 A  
HETATM   33  C   UNL     1     -11.367  10.326  70.815  1.00  0.00    -0.421 A  
HETATM   34  C   UNL     1     -10.920   9.247  71.582  1.00  0.00    -0.433 A  
ENDBRANCH  28  29
ENDBRANCH  27  28
ENDBRANCH  24  27
ENDBRANCH  23  24
ENDBRANCH  19  22
ENDBRANCH  12  13
ENDBRANCH  11  12
ENDBRANCH   9  10
ENDBRANCH   8   9
ENDBRANCH   7   8
ENDBRANCH   5   7
ENDBRANCH   4   5
ENDBRANCH   2   4
TORSDOF 13
ENDMDL
MODEL      121
REMARK 921   NORMALIZED FREE ENERGY PREDICTED BY IDOCK:   -4.98 KCAL/MOL
REMARK 922        TOTAL FREE ENERGY PREDICTED BY IDOCK:  -11.61 KCAL/MOL
REMARK 923 INTER-LIGAND FREE ENERGY PREDICTED BY IDOCK:  -10.12 KCAL/MOL
REMARK 924 INTRA-LIGAND FREE ENERGY PREDICTED BY IDOCK:   -1.49 KCAL/MOL
REMARK 927      BINDING AFFINITY PREDICTED BY RF-SCORE:    0.00 PKD
ROOT
HETATM    1  C   UNL     1      -8.234   8.057  74.284  1.00  0.00    -0.308 C  
HETATM    2  C   UNL     1      -8.948   7.391  73.113  1.00  0.00    -0.155 C  
HETATM    3  C   UNL     1      -8.396   5.993  72.867  1.00  0.00    -0.117 C  
ENDROOT
BRANCH   2   4
HETATM    4  O   UNL     1     -10.347   7.259  73.420  1.00  0.00    -0.294 OA 
BRANCH   4   5
HETATM    5  C   UNL     1     -11.203   7.638  72.429  1.00  0.00    -0.320 C  
HETATM    6  O   UNL     1     -11.680   8.756  72.294  1.00  0.00    -0.363 OA 
BRANCH   5   7
HETATM    7  C   UNL     1     -11.522   6.462  71.544  1.00  0.00    -0.360 C  
BRANCH   7   8
HETATM    8  C   UNL     1     -11.901   6.930  70.140  1.00  0.00    -0.266 C  
BRANCH   8   9
HETATM    9  C   UNL     1     -10.981   6.296  69.099  1.00  0.00    -0.442 C  
BRANCH   9  10
HETATM   10  C   UNL     1      -9.614   6.915  69.106  1.00  0.00    -0.144 C  
HETATM   11  C   UNL     1      -9.177   7.868  68.267  1.00  0.00    -0.137 C  
BRANCH  11  12
HETATM   12  C   UNL     1      -9.967   8.505  67.154  1.00  0.00    -0.304 C  
BRANCH  12  13
HETATM   13  C   UNL     1      -9.055   9.325  66.235  1.00  0.00    -0.213 C  
HETATM   14  C   UNL     1      -8.086   8.489  65.389  1.00  0.00    -0.127 C  
HETATM   15  C   UNL     1      -7.662   9.461  64.297  1.00  0.00    -0.117 C  
HETATM   16  O   UNL     1      -8.741   7.381  64.774  1.00  0.00    -0.361 OA 
HETATM   17  C   UNL     1      -8.975  10.138  63.906  1.00  0.00    -0.244 C  
HETATM   18  H   UNL     1      -8.140   6.864  64.250  1.00  0.00     0.000 HD 
HETATM   19  C   UNL     1      -9.843  10.163  65.192  1.00  0.00    -0.394 C  
HETATM   20  O   UNL     1      -9.631   9.371  62.895  1.00  0.00    -0.490 OA 
HETATM   21  H   UNL     1     -10.447   9.792  62.652  1.00  0.00     0.000 HD 
BRANCH  19  22
HETATM   22  C   UNL     1     -10.159  11.576  65.642  1.00  0.00    -0.278 C  
HETATM   23  C   UNL     1     -10.764  11.900  66.800  1.00  0.00    -0.282 C  
BRANCH  23  24
HETATM   24  C   UNL     1     -10.966  13.309  67.304  1.00  0.00    -0.268 C  
HETATM   25  F   UNL     1     -12.134  13.811  66.817  1.00  0.00    -0.386 F  
HETATM   26  F   UNL     1      -9.973  14.106  66.826  1.00  0.00    -0.243 F  
BRANCH  24  27
HETATM   27  C   UNL     1     -10.983  13.373  68.840  1.00  0.00    -0.248 C  
BRANCH  27  28
HETATM   28  O   UNL     1     -12.313  13.608  69.326  1.00  0.00    -0.288 OA 
BRANCH  28  29
HETATM   29  C   UNL     1     -12.391  14.267  70.524  1.00  0.00    -0.360 A  
HETATM   30  C   UNL     1     -13.181  13.652  71.497  1.00  0.00    -0.409 A  
HETATM   31  C   UNL     1     -13.331  14.234  72.758  1.00  0.00    -0.621 A  
HETATM   32  C   UNL     1     -12.678  15.428  73.055  1.00  0.00    -0.561 A  
HETATM   33  C   UNL     1     -11.871  16.036  72.095  1.00  0.00    -0.623 A  
HETATM   34  C   UNL     1     -11.725  15.457  70.831  1.00  0.00    -0.395 A  
ENDBRANCH  28  29
ENDBRANCH  27  28
ENDBRANCH  24  27
ENDBRANCH  23  24
ENDBRANCH  19  22
ENDBRANCH  12  13
ENDBRANCH  11  12
ENDBRANCH   9  10
ENDBRANCH   8   9
ENDBRANCH   7   8
ENDBRANCH   5   7
ENDBRANCH   4   5
ENDBRANCH   2   4
TORSDOF 13
ENDMDL
MODEL      122
REMARK 921   NORMALIZED FREE ENERGY PREDICTED BY IDOCK:   -4.97 KCAL/MOL
REMARK 922        TOTAL FREE ENERGY PREDICTED BY IDOCK:  -11.59 KCAL/MOL
REMARK 923 INTER-LIGAND FREE ENERGY PREDICTED BY IDOCK:   -9.50 KCAL/MOL
REMARK 924 INTRA-LIGAND FREE ENERGY PREDICTED BY IDOCK:   -2.09 KCAL/MOL
REMARK 927      BINDING AFFINITY PREDICTED BY RF-SCORE:    0.00 PKD
ROOT
HETATM    1  C   UNL     1     -10.381  20.065  68.286  1.00  0.00    -0.494 C  
HETATM    2  C   UNL     1     -10.017  18.894  67.380  1.00  0.00    -0.338 C  
HETATM    3  C   UNL     1     -10.521  19.131  65.962  1.00  0.00    -0.546 C  
ENDROOT
BRANCH   2   4
HETATM    4  O   UNL     1      -8.586  18.765  67.317  1.00  0.00    -0.269 OA 
BRANCH   4   5
HETATM    5  C   UNL     1      -7.978  18.412  68.484  1.00  0.00    -0.314 C  
HETATM    6  O   UNL     1      -7.195  19.108  69.115  1.00  0.00    -0.332 OA 
BRANCH   5   7
HETATM    7  C   UNL     1      -8.370  17.009  68.867  1.00  0.00    -0.196 C  
BRANCH   7   8
HETATM    8  C   UNL     1      -7.685  15.990  67.959  1.00  0.00    -0.140 C  
BRANCH   8   9
HETATM    9  C   UNL     1      -8.714  15.041  67.349  1.00  0.00    -0.208 C  
BRANCH   9  10
HETATM   10  C   UNL     1      -9.053  15.412  65.935  1.00  0.00    -0.188 C  
HETATM   11  C   UNL     1     -10.270  15.341  65.373  1.00  0.00    -0.414 C  
BRANCH  11  12
HETATM   12  C   UNL     1     -11.535  14.876  66.043  1.00  0.00    -0.275 C  
BRANCH  12  13
HETATM   13  C   UNL     1     -11.884  13.444  65.624  1.00  0.00    -0.403 C  
HETATM   14  C   UNL     1     -12.764  13.344  64.371  1.00  0.00    -0.088 C  
HETATM   15  C   UNL     1     -12.574  11.899  63.936  1.00  0.00    -0.450 C  
HETATM   16  O   UNL     1     -12.293  14.193  63.326  1.00  0.00    -1.140 OA 
HETATM   17  C   UNL     1     -11.071  11.680  64.102  1.00  0.00    -0.364 C  
HETATM   18  H   UNL     1     -12.838  14.130  62.549  1.00  0.00     0.000 HD 
HETATM   19  C   UNL     1     -10.633  12.593  65.278  1.00  0.00    -0.317 C  
HETATM   20  O   UNL     1     -10.392  12.073  62.907  1.00  0.00    -0.566 OA 
HETATM   21  H   UNL     1      -9.458  11.937  63.010  1.00  0.00     0.000 HD 
BRANCH  19  22
HETATM   22  C   UNL     1     -10.081  11.797  66.444  1.00  0.00    -0.239 C  
HETATM   23  C   UNL     1      -8.792  11.439  66.593  1.00  0.00    -0.183 C  
BRANCH  23  24
HETATM   24  C   UNL     1      -8.220  10.756  67.812  1.00  0.00    -0.112 C  
HETATM   25  F   UNL     1      -8.955  11.082  68.911  1.00  0.00    -0.159 F  
HETATM   26  F   UNL     1      -6.960  11.218  68.038  1.00  0.00    -0.064 F  
BRANCH  24  27
HETATM   27  C   UNL     1      -8.186   9.227  67.653  1.00  0.00    -0.115 C  
BRANCH  27  28
HETATM   28  O   UNL     1      -8.121   8.583  68.933  1.00  0.00    -0.115 OA 
BRANCH  28  29
HETATM   29  C   UNL     1      -9.137   7.704  69.200  1.00  0.00    -0.141 A  
HETATM   30  C   UNL     1      -9.829   7.229  68.084  1.00  0.00    -0.165 A  
HETATM   31  C   UNL     1     -10.882   6.326  68.238  1.00  0.00    -0.397 A  
HETATM   32  C   UNL     1     -11.239   5.881  69.509  1.00  0.00    -0.299 A  
HETATM   33  C   UNL     1     -10.538   6.336  70.625  1.00  0.00    -0.301 A  
HETATM   34  C   UNL     1      -9.487   7.245  70.473  1.00  0.00    -0.165 A  
ENDBRANCH  28  29
ENDBRANCH  27  28
ENDBRANCH  24  27
ENDBRANCH  23  24
ENDBRANCH  19  22
ENDBRANCH  12  13
ENDBRANCH  11  12
ENDBRANCH   9  10
ENDBRANCH   8   9
ENDBRANCH   7   8
ENDBRANCH   5   7
ENDBRANCH   4   5
ENDBRANCH   2   4
TORSDOF 13
ENDMDL
MODEL      123
REMARK 921   NORMALIZED FREE ENERGY PREDICTED BY IDOCK:   -4.97 KCAL/MOL
REMARK 922        TOTAL FREE ENERGY PREDICTED BY IDOCK:  -11.59 KCAL/MOL
REMARK 923 INTER-LIGAND FREE ENERGY PREDICTED BY IDOCK:   -8.82 KCAL/MOL
REMARK 924 INTRA-LIGAND FREE ENERGY PREDICTED BY IDOCK:   -2.77 KCAL/MOL
REMARK 927      BINDING AFFINITY PREDICTED BY RF-SCORE:    0.00 PKD
ROOT
HETATM    1  C   UNL     1      -9.459  16.588  66.961  1.00  0.00    -0.249 C  
HETATM    2  C   UNL     1      -9.987  17.018  68.326  1.00  0.00    -0.285 C  
HETATM    3  C   UNL     1     -10.000  18.537  68.446  1.00  0.00    -0.414 C  
ENDROOT
BRANCH   2   4
HETATM    4  O   UNL     1     -11.340  16.557  68.482  1.00  0.00    -0.356 OA 
BRANCH   4   5
HETATM    5  C   UNL     1     -11.588  15.842  69.615  1.00  0.00    -0.358 C  
HETATM    6  O   UNL     1     -11.225  16.149  70.741  1.00  0.00    -0.369 OA 
BRANCH   5   7
HETATM    7  C   UNL     1     -12.337  14.580  69.275  1.00  0.00    -0.185 C  
BRANCH   7   8
HETATM    8  C   UNL     1     -11.374  13.406  69.115  1.00  0.00    -0.333 C  
BRANCH   8   9
HETATM    9  C   UNL     1     -10.949  13.259  67.656  1.00  0.00    -0.281 C  
BRANCH   9  10
HETATM   10  C   UNL     1     -12.110  12.943  66.760  1.00  0.00    -0.335 C  
HETATM   11  C   UNL     1     -12.039  12.647  65.453  1.00  0.00    -0.516 C  
BRANCH  11  12
HETATM   12  C   UNL     1     -10.784  12.573  64.623  1.00  0.00    -0.341 C  
BRANCH  12  13
HETATM   13  C   UNL     1     -10.324  11.121  64.451  1.00  0.00    -0.407 C  
HETATM   14  C   UNL     1      -9.640  10.825  63.110  1.00  0.00    -0.355 C  
HETATM   15  C   UNL     1      -8.911   9.518  63.382  1.00  0.00    -0.205 C  
HETATM   16  O   UNL     1      -8.672  11.818  62.780  1.00  0.00    -0.651 OA 
HETATM   17  C   UNL     1      -8.305   9.739  64.768  1.00  0.00    -0.155 C  
HETATM   18  H   UNL     1      -8.248  11.634  61.950  1.00  0.00     0.000 HD 
HETATM   19  C   UNL     1      -9.280  10.687  65.514  1.00  0.00    -0.228 C  
HETATM   20  O   UNL     1      -7.026  10.364  64.639  1.00  0.00    -0.268 OA 
HETATM   21  H   UNL     1      -6.649  10.501  65.501  1.00  0.00     0.000 HD 
BRANCH  19  22
HETATM   22  C   UNL     1      -9.880  10.036  66.745  1.00  0.00    -0.251 C  
HETATM   23  C   UNL     1      -9.388  10.145  67.994  1.00  0.00    -0.149 C  
BRANCH  23  24
HETATM   24  C   UNL     1     -10.054   9.602  69.235  1.00  0.00    -0.193 C  
HETATM   25  F   UNL     1     -11.165  10.335  69.522  1.00  0.00    -0.232 F  
HETATM   26  F   UNL     1      -9.213   9.742  70.296  1.00  0.00    -0.242 F  
BRANCH  24  27
HETATM   27  C   UNL     1     -10.443   8.123  69.079  1.00  0.00    -0.198 C  
BRANCH  27  28
HETATM   28  O   UNL     1      -9.284   7.314  68.828  1.00  0.00    -0.138 OA 
BRANCH  28  29
HETATM   29  C   UNL     1      -9.340   6.545  67.698  1.00  0.00    -0.118 A  
HETATM   30  C   UNL     1      -8.161   6.490  66.950  1.00  0.00    -0.113 A  
HETATM   31  C   UNL     1      -8.102   5.733  65.778  1.00  0.00    -0.116 A  
HETATM   32  C   UNL     1      -9.218   5.014  65.357  1.00  0.00    -0.144 A  
HETATM   33  C   UNL     1     -10.391   5.048  66.110  1.00  0.00    -0.309 A  
HETATM   34  C   UNL     1     -10.453   5.810  67.280  1.00  0.00    -0.330 A  
ENDBRANCH  28  29
ENDBRANCH  27  28
ENDBRANCH  24  27
ENDBRANCH  23  24
ENDBRANCH  19  22
ENDBRANCH  12  13
ENDBRANCH  11  12
ENDBRANCH   9  10
ENDBRANCH   8   9
ENDBRANCH   7   8
ENDBRANCH   5   7
ENDBRANCH   4   5
ENDBRANCH   2   4
TORSDOF 13
ENDMDL
MODEL      124
REMARK 921   NORMALIZED FREE ENERGY PREDICTED BY IDOCK:   -4.97 KCAL/MOL
REMARK 922        TOTAL FREE ENERGY PREDICTED BY IDOCK:  -11.59 KCAL/MOL
REMARK 923 INTER-LIGAND FREE ENERGY PREDICTED BY IDOCK:   -8.77 KCAL/MOL
REMARK 924 INTRA-LIGAND FREE ENERGY PREDICTED BY IDOCK:   -2.81 KCAL/MOL
REMARK 927      BINDING AFFINITY PREDICTED BY RF-SCORE:    0.00 PKD
ROOT
HETATM    1  C   UNL     1      -7.602   9.372  62.440  1.00  0.00    -0.110 C  
HETATM    2  C   UNL     1      -7.385   9.691  63.915  1.00  0.00    -0.120 C  
HETATM    3  C   UNL     1      -5.927  10.039  64.184  1.00  0.00    -0.130 C  
ENDROOT
BRANCH   2   4
HETATM    4  O   UNL     1      -8.179  10.834  64.279  1.00  0.00    -0.048 OA 
BRANCH   4   5
HETATM    5  C   UNL     1      -9.382  10.552  64.854  1.00  0.00    -0.232 C  
HETATM    6  O   UNL     1     -10.475  10.841  64.389  1.00  0.00    -0.365 OA 
BRANCH   5   7
HETATM    7  C   UNL     1      -9.173   9.874  66.182  1.00  0.00    -0.211 C  
BRANCH   7   8
HETATM    8  C   UNL     1     -10.509   9.456  66.793  1.00  0.00    -0.265 C  
BRANCH   8   9
HETATM    9  C   UNL     1     -10.477   7.984  67.194  1.00  0.00    -0.408 C  
BRANCH   9  10
HETATM   10  C   UNL     1      -9.442   7.709  68.245  1.00  0.00    -0.148 C  
HETATM   11  C   UNL     1      -9.612   6.949  69.338  1.00  0.00    -0.147 C  
BRANCH  11  12
HETATM   12  C   UNL     1     -10.872   6.220  69.729  1.00  0.00    -0.399 C  
BRANCH  12  13
HETATM   13  C   UNL     1     -11.265   6.541  71.175  1.00  0.00    -0.353 C  
HETATM   14  C   UNL     1     -10.848   5.478  72.199  1.00  0.00    -0.235 C  
HETATM   15  C   UNL     1     -10.936   6.226  73.521  1.00  0.00    -0.105 C  
HETATM   16  O   UNL     1      -9.497   5.062  72.008  1.00  0.00    -0.138 OA 
HETATM   17  C   UNL     1     -10.306   7.580  73.197  1.00  0.00    -0.347 C  
HETATM   18  H   UNL     1      -9.239   4.403  72.643  1.00  0.00     0.000 HD 
HETATM   19  C   UNL     1     -10.618   7.850  71.702  1.00  0.00    -0.267 C  
HETATM   20  O   UNL     1      -8.892   7.512  73.391  1.00  0.00    -0.153 OA 
HETATM   21  H   UNL     1      -8.500   8.354  73.191  1.00  0.00     0.000 HD 
BRANCH  19  22
HETATM   22  C   UNL     1     -11.474   9.087  71.511  1.00  0.00    -0.407 C  
HETATM   23  C   UNL     1     -11.179  10.110  70.688  1.00  0.00    -0.418 C  
BRANCH  23  24
HETATM   24  C   UNL     1     -12.089  11.281  70.403  1.00  0.00    -0.384 C  
HETATM   25  F   UNL     1     -12.362  11.946  71.560  1.00  0.00    -0.346 F  
HETATM   26  F   UNL     1     -13.279  10.822  69.931  1.00  0.00    -0.212 F  
BRANCH  24  27
HETATM   27  C   UNL     1     -11.473  12.255  69.386  1.00  0.00    -0.277 C  
BRANCH  27  28
HETATM   28  O   UNL     1     -12.260  12.306  68.187  1.00  0.00    -0.349 OA 
BRANCH  28  29
HETATM   29  C   UNL     1     -11.690  12.976  67.139  1.00  0.00    -0.382 A  
HETATM   30  C   UNL     1     -10.338  13.292  67.292  1.00  0.00    -0.247 A  
HETATM   31  C   UNL     1      -9.652  13.973  66.284  1.00  0.00    -0.284 A  
HETATM   32  C   UNL     1     -10.313  14.328  65.110  1.00  0.00    -0.440 A  
HETATM   33  C   UNL     1     -11.657  13.996  64.942  1.00  0.00    -0.369 A  
HETATM   34  C   UNL     1     -12.345  13.320  65.954  1.00  0.00    -0.479 A  
ENDBRANCH  28  29
ENDBRANCH  27  28
ENDBRANCH  24  27
ENDBRANCH  23  24
ENDBRANCH  19  22
ENDBRANCH  12  13
ENDBRANCH  11  12
ENDBRANCH   9  10
ENDBRANCH   8   9
ENDBRANCH   7   8
ENDBRANCH   5   7
ENDBRANCH   4   5
ENDBRANCH   2   4
TORSDOF 13
ENDMDL
MODEL      125
REMARK 921   NORMALIZED FREE ENERGY PREDICTED BY IDOCK:   -4.97 KCAL/MOL
REMARK 922        TOTAL FREE ENERGY PREDICTED BY IDOCK:  -11.58 KCAL/MOL
REMARK 923 INTER-LIGAND FREE ENERGY PREDICTED BY IDOCK:   -9.80 KCAL/MOL
REMARK 924 INTRA-LIGAND FREE ENERGY PREDICTED BY IDOCK:   -1.78 KCAL/MOL
REMARK 927      BINDING AFFINITY PREDICTED BY RF-SCORE:    0.00 PKD
ROOT
HETATM    1  C   UNL     1     -14.079   8.807  71.949  1.00  0.00    -0.488 C  
HETATM    2  C   UNL     1     -12.673   8.275  72.202  1.00  0.00    -0.329 C  
HETATM    3  C   UNL     1     -12.528   6.855  71.668  1.00  0.00    -0.418 C  
ENDROOT
BRANCH   2   4
HETATM    4  O   UNL     1     -11.718   9.099  71.510  1.00  0.00    -0.310 OA 
BRANCH   4   5
HETATM    5  C   UNL     1     -10.419   8.701  71.611  1.00  0.00    -0.296 C  
HETATM    6  O   UNL     1      -9.797   8.572  72.656  1.00  0.00    -0.281 OA 
BRANCH   5   7
HETATM    7  C   UNL     1      -9.835   8.491  70.239  1.00  0.00    -0.194 C  
BRANCH   7   8
HETATM    8  C   UNL     1      -9.111   9.747  69.761  1.00  0.00    -0.246 C  
BRANCH   8   9
HETATM    9  C   UNL     1     -10.049  10.622  68.932  1.00  0.00    -0.215 C  
BRANCH   9  10
HETATM   10  C   UNL     1     -10.800   9.826  67.906  1.00  0.00    -0.298 C  
HETATM   11  C   UNL     1     -10.295   9.344  66.759  1.00  0.00    -0.303 C  
BRANCH  11  12
HETATM   12  C   UNL     1      -8.878   9.504  66.273  1.00  0.00    -0.172 C  
BRANCH  12  13
HETATM   13  C   UNL     1      -8.786  10.595  65.201  1.00  0.00    -0.196 C  
HETATM   14  C   UNL     1      -8.167  10.133  63.875  1.00  0.00    -0.164 C  
HETATM   15  C   UNL     1      -8.604  11.216  62.900  1.00  0.00    -0.107 C  
HETATM   16  O   UNL     1      -8.715   8.890  63.440  1.00  0.00    -0.388 OA 
HETATM   17  C   UNL     1     -10.068  11.449  63.274  1.00  0.00    -0.387 C  
HETATM   18  H   UNL     1      -8.331   8.605  62.619  1.00  0.00     0.000 HD 
HETATM   19  C   UNL     1     -10.172  11.163  64.795  1.00  0.00    -0.365 C  
HETATM   20  O   UNL     1     -10.900  10.538  62.553  1.00  0.00    -0.208 OA 
HETATM   21  H   UNL     1     -11.810  10.684  62.785  1.00  0.00     0.000 HD 
BRANCH  19  22
HETATM   22  C   UNL     1     -10.594  12.390  65.580  1.00  0.00    -0.307 C  
HETATM   23  C   UNL     1     -10.171  13.645  65.337  1.00  0.00    -0.330 C  
BRANCH  23  24
HETATM   24  C   UNL     1     -10.685  14.881  66.036  1.00  0.00    -0.323 C  
HETATM   25  F   UNL     1     -12.014  14.745  66.297  1.00  0.00    -0.357 F  
HETATM   26  F   UNL     1     -10.561  15.952  65.206  1.00  0.00    -0.348 F  
BRANCH  24  27
HETATM   27  C   UNL     1      -9.931  15.156  67.347  1.00  0.00    -0.226 C  
BRANCH  27  28
HETATM   28  O   UNL     1     -10.244  14.162  68.333  1.00  0.00    -0.234 OA 
BRANCH  28  29
HETATM   29  C   UNL     1     -10.980  14.604  69.400  1.00  0.00    -0.257 A  
HETATM   30  C   UNL     1     -12.019  13.764  69.803  1.00  0.00    -0.406 A  
HETATM   31  C   UNL     1     -12.833  14.114  70.883  1.00  0.00    -0.404 A  
HETATM   32  C   UNL     1     -12.601  15.301  71.574  1.00  0.00    -0.442 A  
HETATM   33  C   UNL     1     -11.551  16.134  71.189  1.00  0.00    -0.453 A  
HETATM   34  C   UNL     1     -10.740  15.787  70.105  1.00  0.00    -0.354 A  
ENDBRANCH  28  29
ENDBRANCH  27  28
ENDBRANCH  24  27
ENDBRANCH  23  24
ENDBRANCH  19  22
ENDBRANCH  12  13
ENDBRANCH  11  12
ENDBRANCH   9  10
ENDBRANCH   8   9
ENDBRANCH   7   8
ENDBRANCH   5   7
ENDBRANCH   4   5
ENDBRANCH   2   4
TORSDOF 13
ENDMDL
MODEL      126
REMARK 921   NORMALIZED FREE ENERGY PREDICTED BY IDOCK:   -4.95 KCAL/MOL
REMARK 922        TOTAL FREE ENERGY PREDICTED BY IDOCK:  -11.56 KCAL/MOL
REMARK 923 INTER-LIGAND FREE ENERGY PREDICTED BY IDOCK:   -8.57 KCAL/MOL
REMARK 924 INTRA-LIGAND FREE ENERGY PREDICTED BY IDOCK:   -2.98 KCAL/MOL
REMARK 927      BINDING AFFINITY PREDICTED BY RF-SCORE:    0.00 PKD
ROOT
HETATM    1  C   UNL     1     -11.657  16.043  64.360  1.00  0.00    -0.212 C  
HETATM    2  C   UNL     1     -11.155  14.811  65.105  1.00  0.00    -0.384 C  
HETATM    3  C   UNL     1     -10.670  15.183  66.500  1.00  0.00    -0.310 C  
ENDROOT
BRANCH   2   4
HETATM    4  O   UNL     1     -12.234  13.871  65.256  1.00  0.00    -0.386 OA 
BRANCH   4   5
HETATM    5  C   UNL     1     -12.153  12.756  64.479  1.00  0.00    -0.414 C  
HETATM    6  O   UNL     1     -12.999  12.389  63.675  1.00  0.00    -0.758 OA 
BRANCH   5   7
HETATM    7  C   UNL     1     -10.886  12.003  64.786  1.00  0.00    -0.354 C  
BRANCH   7   8
HETATM    8  C   UNL     1     -11.023  11.225  66.093  1.00  0.00    -0.252 C  
BRANCH   8   9
HETATM    9  C   UNL     1      -9.650  10.802  66.611  1.00  0.00    -0.208 C  
BRANCH   9  10
HETATM   10  C   UNL     1      -9.455  11.170  68.052  1.00  0.00    -0.174 C  
HETATM   11  C   UNL     1      -9.876  10.460  69.111  1.00  0.00    -0.237 C  
BRANCH  11  12
HETATM   12  C   UNL     1     -10.628   9.155  69.065  1.00  0.00    -0.219 C  
BRANCH  12  13
HETATM   13  C   UNL     1     -11.059   8.722  70.471  1.00  0.00    -0.278 C  
HETATM   14  C   UNL     1     -12.115   9.626  71.120  1.00  0.00    -0.362 C  
HETATM   15  C   UNL     1     -12.669   8.754  72.236  1.00  0.00    -0.466 C  
HETATM   16  O   UNL     1     -13.178   9.929  70.218  1.00  0.00    -0.563 OA 
HETATM   17  C   UNL     1     -12.821   7.388  71.568  1.00  0.00    -0.375 C  
HETATM   18  H   UNL     1     -13.832  10.489  70.621  1.00  0.00     0.000 HD 
HETATM   19  C   UNL     1     -11.701   7.309  70.498  1.00  0.00    -0.264 C  
HETATM   20  O   UNL     1     -14.100   7.300  70.937  1.00  0.00    -0.557 OA 
HETATM   21  H   UNL     1     -14.194   6.450  70.522  1.00  0.00     0.000 HD 
BRANCH  19  22
HETATM   22  C   UNL     1     -10.720   6.187  70.778  1.00  0.00    -0.326 C  
HETATM   23  C   UNL     1     -10.491   5.141  69.962  1.00  0.00    -0.305 C  
BRANCH  23  24
HETATM   24  C   UNL     1      -9.427   4.092  70.180  1.00  0.00    -0.188 C  
HETATM   25  F   UNL     1      -9.706   2.988  69.433  1.00  0.00    -0.230 F  
HETATM   26  F   UNL     1      -9.448   3.693  71.481  1.00  0.00    -0.165 F  
BRANCH  24  27
HETATM   27  C   UNL     1      -8.025   4.611  69.823  1.00  0.00    -0.065 C  
BRANCH  27  28
HETATM   28  O   UNL     1      -8.080   5.498  68.697  1.00  0.00    -0.100 OA 
BRANCH  28  29
HETATM   29  C   UNL     1      -7.518   6.731  68.893  1.00  0.00    -0.096 A  
HETATM   30  C   UNL     1      -7.292   7.479  67.736  1.00  0.00    -0.103 A  
HETATM   31  C   UNL     1      -6.725   8.753  67.817  1.00  0.00    -0.066 A  
HETATM   32  C   UNL     1      -6.395   9.290  69.060  1.00  0.00    -0.043 A  
HETATM   33  C   UNL     1      -6.638   8.556  70.220  1.00  0.00    -0.039 A  
HETATM   34  C   UNL     1      -7.200   7.279  70.139  1.00  0.00    -0.074 A  
ENDBRANCH  28  29
ENDBRANCH  27  28
ENDBRANCH  24  27
ENDBRANCH  23  24
ENDBRANCH  19  22
ENDBRANCH  12  13
ENDBRANCH  11  12
ENDBRANCH   9  10
ENDBRANCH   8   9
ENDBRANCH   7   8
ENDBRANCH   5   7
ENDBRANCH   4   5
ENDBRANCH   2   4
TORSDOF 13
ENDMDL
MODEL      127
REMARK 921   NORMALIZED FREE ENERGY PREDICTED BY IDOCK:   -4.93 KCAL/MOL
REMARK 922        TOTAL FREE ENERGY PREDICTED BY IDOCK:  -11.51 KCAL/MOL
REMARK 923 INTER-LIGAND FREE ENERGY PREDICTED BY IDOCK:   -9.32 KCAL/MOL
REMARK 924 INTRA-LIGAND FREE ENERGY PREDICTED BY IDOCK:   -2.20 KCAL/MOL
REMARK 927      BINDING AFFINITY PREDICTED BY RF-SCORE:    0.00 PKD
ROOT
HETATM    1  C   UNL     1     -11.180  11.767  67.140  1.00  0.00    -0.375 C  
HETATM    2  C   UNL     1     -11.789  12.453  65.922  1.00  0.00    -0.405 C  
HETATM    3  C   UNL     1     -12.123  13.907  66.232  1.00  0.00    -0.484 C  
ENDROOT
BRANCH   2   4
HETATM    4  O   UNL     1     -10.838  12.445  64.843  1.00  0.00    -0.279 OA 
BRANCH   4   5
HETATM    5  C   UNL     1     -11.255  11.834  63.699  1.00  0.00    -0.435 C  
HETATM    6  O   UNL     1     -12.420  11.684  63.360  1.00  0.00    -0.473 OA 
BRANCH   5   7
HETATM    7  C   UNL     1     -10.069  11.320  62.927  1.00  0.00    -0.243 C  
BRANCH   7   8
HETATM    8  C   UNL     1      -9.488  10.075  63.594  1.00  0.00    -0.253 C  
BRANCH   8   9
HETATM    9  C   UNL     1      -8.016  10.289  63.934  1.00  0.00    -0.126 C  
BRANCH   9  10
HETATM   10  C   UNL     1      -7.397   9.067  64.548  1.00  0.00    -0.099 C  
HETATM   11  C   UNL     1      -7.342   8.786  65.859  1.00  0.00    -0.085 C  
BRANCH  11  12
HETATM   12  C   UNL     1      -7.887   9.637  66.976  1.00  0.00    -0.098 C  
BRANCH  12  13
HETATM   13  C   UNL     1      -7.732   8.933  68.329  1.00  0.00    -0.096 C  
HETATM   14  C   UNL     1      -6.278   8.709  68.766  1.00  0.00    -0.045 C  
HETATM   15  C   UNL     1      -6.410   8.440  70.257  1.00  0.00    -0.035 C  
HETATM   16  O   UNL     1      -5.487   9.883  68.591  1.00  0.00    -0.036 OA 
HETATM   17  C   UNL     1      -7.424   9.489  70.712  1.00  0.00    -0.076 C  
HETATM   18  H   UNL     1      -4.587   9.744  68.862  1.00  0.00     0.000 HD 
HETATM   19  C   UNL     1      -8.363   9.729  69.502  1.00  0.00    -0.165 C  
HETATM   20  O   UNL     1      -6.746  10.701  71.046  1.00  0.00    -0.371 OA 
HETATM   21  H   UNL     1      -7.376  11.353  71.329  1.00  0.00     0.000 HD 
BRANCH  19  22
HETATM   22  C   UNL     1      -9.799   9.350  69.807  1.00  0.00    -0.218 C  
HETATM   23  C   UNL     1     -10.436   9.609  70.965  1.00  0.00    -0.327 C  
BRANCH  23  24
HETATM   24  C   UNL     1     -11.899   9.344  71.224  1.00  0.00    -0.360 C  
HETATM   25  F   UNL     1     -12.097   9.095  72.548  1.00  0.00    -0.390 F  
HETATM   26  F   UNL     1     -12.279   8.219  70.559  1.00  0.00    -0.161 F  
BRANCH  24  27
HETATM   27  C   UNL     1     -12.784  10.523  70.788  1.00  0.00    -0.381 C  
BRANCH  27  28
HETATM   28  O   UNL     1     -11.981  11.643  70.389  1.00  0.00    -0.357 OA 
BRANCH  28  29
HETATM   29  C   UNL     1     -12.460  12.870  70.760  1.00  0.00    -0.286 A  
HETATM   30  C   UNL     1     -13.330  12.870  71.852  1.00  0.00    -0.530 A  
HETATM   31  C   UNL     1     -13.878  14.067  72.320  1.00  0.00    -0.655 A  
HETATM   32  C   UNL     1     -13.546  15.272  71.704  1.00  0.00    -0.586 A  
HETATM   33  C   UNL     1     -12.662  15.280  70.627  1.00  0.00    -0.470 A  
HETATM   34  C   UNL     1     -12.117  14.082  70.155  1.00  0.00    -0.419 A  
ENDBRANCH  28  29
ENDBRANCH  27  28
ENDBRANCH  24  27
ENDBRANCH  23  24
ENDBRANCH  19  22
ENDBRANCH  12  13
ENDBRANCH  11  12
ENDBRANCH   9  10
ENDBRANCH   8   9
ENDBRANCH   7   8
ENDBRANCH   5   7
ENDBRANCH   4   5
ENDBRANCH   2   4
TORSDOF 13
ENDMDL
MODEL      128
REMARK 921   NORMALIZED FREE ENERGY PREDICTED BY IDOCK:   -4.92 KCAL/MOL
REMARK 922        TOTAL FREE ENERGY PREDICTED BY IDOCK:  -11.49 KCAL/MOL
REMARK 923 INTER-LIGAND FREE ENERGY PREDICTED BY IDOCK:   -8.61 KCAL/MOL
REMARK 924 INTRA-LIGAND FREE ENERGY PREDICTED BY IDOCK:   -2.89 KCAL/MOL
REMARK 927      BINDING AFFINITY PREDICTED BY RF-SCORE:    0.00 PKD
ROOT
HETATM    1  C   UNL     1     -10.213  10.666  65.126  1.00  0.00    -0.368 C  
HETATM    2  C   UNL     1      -9.474   9.862  66.190  1.00  0.00    -0.200 C  
HETATM    3  C   UNL     1     -10.335   8.710  66.693  1.00  0.00    -0.303 C  
ENDROOT
BRANCH   2   4
HETATM    4  O   UNL     1      -8.282   9.295  65.618  1.00  0.00    -0.112 OA 
BRANCH   4   5
HETATM    5  C   UNL     1      -7.111   9.691  66.193  1.00  0.00    -0.094 C  
HETATM    6  O   UNL     1      -6.498  10.713  65.920  1.00  0.00    -0.119 OA 
BRANCH   5   7
HETATM    7  C   UNL     1      -6.647   8.657  67.184  1.00  0.00    -0.058 C  
BRANCH   7   8
HETATM    8  C   UNL     1      -6.052   9.325  68.422  1.00  0.00    -0.045 C  
BRANCH   8   9
HETATM    9  C   UNL     1      -7.141  10.032  69.224  1.00  0.00    -0.074 C  
BRANCH   9  10
HETATM   10  C   UNL     1      -7.320   9.427  70.586  1.00  0.00    -0.140 C  
HETATM   11  C   UNL     1      -8.087   8.367  70.882  1.00  0.00    -0.118 C  
BRANCH  11  12
HETATM   12  C   UNL     1      -8.923   7.573  69.912  1.00  0.00    -0.141 C  
BRANCH  12  13
HETATM   13  C   UNL     1     -10.379   7.489  70.383  1.00  0.00    -0.216 C  
HETATM   14  C   UNL     1     -10.791   6.117  70.934  1.00  0.00    -0.281 C  
HETATM   15  C   UNL     1     -12.058   6.432  71.715  1.00  0.00    -0.351 C  
HETATM   16  O   UNL     1      -9.821   5.601  71.843  1.00  0.00    -0.162 OA 
HETATM   17  C   UNL     1     -11.702   7.722  72.452  1.00  0.00    -0.341 C  
HETATM   18  H   UNL     1     -10.076   4.752  72.185  1.00  0.00     0.000 HD 
HETATM   19  C   UNL     1     -10.700   8.475  71.537  1.00  0.00    -0.330 C  
HETATM   20  O   UNL     1     -11.076   7.408  73.698  1.00  0.00    -0.576 OA 
HETATM   21  H   UNL     1     -10.855   8.210  74.157  1.00  0.00     0.000 HD 
BRANCH  19  22
HETATM   22  C   UNL     1     -11.241   9.815  71.078  1.00  0.00    -0.451 C  
HETATM   23  C   UNL     1     -10.877  10.446  69.945  1.00  0.00    -0.353 C  
BRANCH  23  24
HETATM   24  C   UNL     1     -11.505  11.717  69.425  1.00  0.00    -0.307 C  
HETATM   25  F   UNL     1     -12.054  12.417  70.456  1.00  0.00    -0.408 F  
HETATM   26  F   UNL     1     -12.527  11.403  68.583  1.00  0.00    -0.281 F  
BRANCH  24  27
HETATM   27  C   UNL     1     -10.486  12.602  68.689  1.00  0.00    -0.205 C  
BRANCH  27  28
HETATM   28  O   UNL     1     -11.007  13.926  68.496  1.00  0.00    -0.240 OA 
BRANCH  28  29
HETATM   29  C   UNL     1     -11.307  14.254  67.202  1.00  0.00    -0.337 A  
HETATM   30  C   UNL     1     -10.476  15.212  66.617  1.00  0.00    -0.287 A  
HETATM   31  C   UNL     1     -10.688  15.622  65.298  1.00  0.00    -0.444 A  
HETATM   32  C   UNL     1     -11.724  15.063  64.554  1.00  0.00    -0.372 A  
HETATM   33  C   UNL     1     -12.544  14.091  65.125  1.00  0.00    -0.453 A  
HETATM   34  C   UNL     1     -12.336  13.685  66.447  1.00  0.00    -0.441 A  
ENDBRANCH  28  29
ENDBRANCH  27  28
ENDBRANCH  24  27
ENDBRANCH  23  24
ENDBRANCH  19  22
ENDBRANCH  12  13
ENDBRANCH  11  12
ENDBRANCH   9  10
ENDBRANCH   8   9
ENDBRANCH   7   8
ENDBRANCH   5   7
ENDBRANCH   4   5
ENDBRANCH   2   4
TORSDOF 13
ENDMDL
MODEL      129
REMARK 921   NORMALIZED FREE ENERGY PREDICTED BY IDOCK:   -4.92 KCAL/MOL
REMARK 922        TOTAL FREE ENERGY PREDICTED BY IDOCK:  -11.49 KCAL/MOL
REMARK 923 INTER-LIGAND FREE ENERGY PREDICTED BY IDOCK:   -8.57 KCAL/MOL
REMARK 924 INTRA-LIGAND FREE ENERGY PREDICTED BY IDOCK:   -2.92 KCAL/MOL
REMARK 927      BINDING AFFINITY PREDICTED BY RF-SCORE:    0.00 PKD
ROOT
HETATM    1  C   UNL     1     -10.633  19.166  66.569  1.00  0.00    -0.523 C  
HETATM    2  C   UNL     1      -9.806  17.971  66.107  1.00  0.00    -0.249 C  
HETATM    3  C   UNL     1      -8.520  17.859  66.916  1.00  0.00    -0.260 C  
ENDROOT
BRANCH   2   4
HETATM    4  O   UNL     1     -10.557  16.762  66.313  1.00  0.00    -0.279 OA 
BRANCH   4   5
HETATM    5  C   UNL     1     -10.872  16.069  65.183  1.00  0.00    -0.395 C  
HETATM    6  O   UNL     1     -11.320  16.556  64.155  1.00  0.00    -1.060 OA 
BRANCH   5   7
HETATM    7  C   UNL     1     -10.638  14.597  65.397  1.00  0.00    -0.390 C  
BRANCH   7   8
HETATM    8  C   UNL     1     -10.533  14.278  66.887  1.00  0.00    -0.272 C  
BRANCH   8   9
HETATM    9  C   UNL     1     -11.872  13.777  67.422  1.00  0.00    -0.431 C  
BRANCH   9  10
HETATM   10  C   UNL     1     -11.928  13.812  68.921  1.00  0.00    -0.394 C  
HETATM   11  C   UNL     1     -12.154  12.762  69.726  1.00  0.00    -0.305 C  
BRANCH  11  12
HETATM   12  C   UNL     1     -12.397  11.341  69.289  1.00  0.00    -0.172 C  
BRANCH  12  13
HETATM   13  C   UNL     1     -11.138  10.487  69.472  1.00  0.00    -0.320 C  
HETATM   14  C   UNL     1     -10.932   9.955  70.897  1.00  0.00    -0.322 C  
HETATM   15  C   UNL     1      -9.932   8.826  70.696  1.00  0.00    -0.242 C  
HETATM   16  O   UNL     1     -12.132   9.402  71.433  1.00  0.00    -0.315 OA 
HETATM   17  C   UNL     1     -10.455   8.116  69.448  1.00  0.00    -0.220 C  
HETATM   18  H   UNL     1     -12.004   9.073  72.315  1.00  0.00     0.000 HD 
HETATM   19  C   UNL     1     -11.137   9.212  68.587  1.00  0.00     0.113 C  
HETATM   20  O   UNL     1     -11.416   7.128  69.823  1.00  0.00    -0.479 OA 
HETATM   21  H   UNL     1     -11.741   6.686  69.046  1.00  0.00     0.000 HD 
BRANCH  19  22
HETATM   22  C   UNL     1     -10.458   9.389  67.244  1.00  0.00    -0.332 C  
HETATM   23  C   UNL     1     -10.449  10.529  66.528  1.00  0.00    -0.276 C  
BRANCH  23  24
HETATM   24  C   UNL     1      -9.670  10.743  65.252  1.00  0.00    -0.255 C  
HETATM   25  F   UNL     1      -8.581  11.522  65.501  1.00  0.00    -0.126 F  
HETATM   26  F   UNL     1     -10.439  11.427  64.363  1.00  0.00    -0.296 F  
BRANCH  24  27
HETATM   27  C   UNL     1      -9.217   9.414  64.625  1.00  0.00    -0.122 C  
BRANCH  27  28
HETATM   28  O   UNL     1      -7.836   9.156  64.920  1.00  0.00    -0.109 OA 
BRANCH  28  29
HETATM   29  C   UNL     1      -7.604   8.442  66.064  1.00  0.00    -0.085 A  
HETATM   30  C   UNL     1      -8.004   7.105  66.030  1.00  0.00    -0.112 A  
HETATM   31  C   UNL     1      -7.814   6.280  67.141  1.00  0.00    -0.105 A  
HETATM   32  C   UNL     1      -7.207   6.787  68.288  1.00  0.00    -0.088 A  
HETATM   33  C   UNL     1      -6.786   8.116  68.321  1.00  0.00    -0.069 A  
HETATM   34  C   UNL     1      -6.982   8.943  67.211  1.00  0.00    -0.078 A  
ENDBRANCH  28  29
ENDBRANCH  27  28
ENDBRANCH  24  27
ENDBRANCH  23  24
ENDBRANCH  19  22
ENDBRANCH  12  13
ENDBRANCH  11  12
ENDBRANCH   9  10
ENDBRANCH   8   9
ENDBRANCH   7   8
ENDBRANCH   5   7
ENDBRANCH   4   5
ENDBRANCH   2   4
TORSDOF 13
ENDMDL
MODEL      130
REMARK 921   NORMALIZED FREE ENERGY PREDICTED BY IDOCK:   -4.90 KCAL/MOL
REMARK 922        TOTAL FREE ENERGY PREDICTED BY IDOCK:  -11.47 KCAL/MOL
REMARK 923 INTER-LIGAND FREE ENERGY PREDICTED BY IDOCK:   -9.05 KCAL/MOL
REMARK 924 INTRA-LIGAND FREE ENERGY PREDICTED BY IDOCK:   -2.42 KCAL/MOL
REMARK 927      BINDING AFFINITY PREDICTED BY RF-SCORE:    0.00 PKD
ROOT
HETATM    1  C   UNL     1      -7.583  14.025  67.665  1.00  0.00    -0.191 C  
HETATM    2  C   UNL     1      -7.452  15.544  67.620  1.00  0.00    -0.167 C  
HETATM    3  C   UNL     1      -6.010  15.954  67.351  1.00  0.00    -0.125 C  
ENDROOT
BRANCH   2   4
HETATM    4  O   UNL     1      -8.259  16.062  66.548  1.00  0.00    -0.272 OA 
BRANCH   4   5
HETATM    5  C   UNL     1      -8.939  17.209  66.829  1.00  0.00    -0.241 C  
HETATM    6  O   UNL     1      -9.422  17.967  66.000  1.00  0.00    -0.504 OA 
BRANCH   5   7
HETATM    7  C   UNL     1      -8.968  17.442  68.316  1.00  0.00    -0.268 C  
BRANCH   7   8
HETATM    8  C   UNL     1     -10.399  17.380  68.845  1.00  0.00    -0.340 C  
BRANCH   8   9
HETATM    9  C   UNL     1     -10.574  16.185  69.778  1.00  0.00    -0.312 C  
BRANCH   9  10
HETATM   10  C   UNL     1     -11.849  15.441  69.508  1.00  0.00    -0.370 C  
HETATM   11  C   UNL     1     -12.120  14.715  68.412  1.00  0.00    -0.223 C  
BRANCH  11  12
HETATM   12  C   UNL     1     -11.203  14.503  67.235  1.00  0.00    -0.341 C  
BRANCH  12  13
HETATM   13  C   UNL     1     -11.497  13.166  66.545  1.00  0.00    -0.378 C  
HETATM   14  C   UNL     1     -11.042  13.092  65.082  1.00  0.00    -0.287 C  
HETATM   15  C   UNL     1     -11.029  11.596  64.805  1.00  0.00    -0.351 C  
HETATM   16  O   UNL     1      -9.716  13.591  64.915  1.00  0.00    -0.576 OA 
HETATM   17  C   UNL     1     -10.388  11.016  66.065  1.00  0.00    -0.254 C  
HETATM   18  H   UNL     1      -9.435  13.545  64.008  1.00  0.00     0.000 HD 
HETATM   19  C   UNL     1     -10.787  11.965  67.225  1.00  0.00    -0.294 C  
HETATM   20  O   UNL     1      -8.966  11.001  65.920  1.00  0.00    -0.186 OA 
HETATM   21  H   UNL     1      -8.568  10.639  66.703  1.00  0.00     0.000 HD 
BRANCH  19  22
HETATM   22  C   UNL     1     -11.623  11.264  68.277  1.00  0.00    -0.370 C  
HETATM   23  C   UNL     1     -11.423  11.350  69.606  1.00  0.00    -0.380 C  
BRANCH  23  24
HETATM   24  C   UNL     1     -12.329  10.754  70.656  1.00  0.00    -0.372 C  
HETATM   25  F   UNL     1     -13.534  10.442  70.104  1.00  0.00    -0.254 F  
HETATM   26  F   UNL     1     -12.574  11.683  71.620  1.00  0.00    -0.420 F  
BRANCH  24  27
HETATM   27  C   UNL     1     -11.719   9.497  71.296  1.00  0.00    -0.370 C  
BRANCH  27  28
HETATM   28  O   UNL     1     -10.288   9.591  71.342  1.00  0.00    -0.302 OA 
BRANCH  28  29
HETATM   29  C   UNL     1      -9.613   8.479  70.916  1.00  0.00    -0.185 A  
HETATM   30  C   UNL     1      -9.316   7.541  71.907  1.00  0.00    -0.171 A  
HETATM   31  C   UNL     1      -8.632   6.366  71.586  1.00  0.00    -0.129 A  
HETATM   32  C   UNL     1      -8.255   6.118  70.268  1.00  0.00    -0.124 A  
HETATM   33  C   UNL     1      -8.568   7.041  69.271  1.00  0.00    -0.136 A  
HETATM   34  C   UNL     1      -9.247   8.220  69.593  1.00  0.00    -0.158 A  
ENDBRANCH  28  29
ENDBRANCH  27  28
ENDBRANCH  24  27
ENDBRANCH  23  24
ENDBRANCH  19  22
ENDBRANCH  12  13
ENDBRANCH  11  12
ENDBRANCH   9  10
ENDBRANCH   8   9
ENDBRANCH   7   8
ENDBRANCH   5   7
ENDBRANCH   4   5
ENDBRANCH   2   4
TORSDOF 13
ENDMDL
MODEL      131
REMARK 921   NORMALIZED FREE ENERGY PREDICTED BY IDOCK:   -4.90 KCAL/MOL
REMARK 922        TOTAL FREE ENERGY PREDICTED BY IDOCK:  -11.46 KCAL/MOL
REMARK 923 INTER-LIGAND FREE ENERGY PREDICTED BY IDOCK:   -9.12 KCAL/MOL
REMARK 924 INTRA-LIGAND FREE ENERGY PREDICTED BY IDOCK:   -2.34 KCAL/MOL
REMARK 927      BINDING AFFINITY PREDICTED BY RF-SCORE:    0.00 PKD
ROOT
HETATM    1  C   UNL     1     -12.096  14.487  64.597  1.00  0.00    -0.486 C  
HETATM    2  C   UNL     1     -11.961  13.020  64.991  1.00  0.00    -0.397 C  
HETATM    3  C   UNL     1     -11.541  12.175  63.795  1.00  0.00    -0.557 C  
ENDROOT
BRANCH   2   4
HETATM    4  O   UNL     1     -10.940  12.888  65.996  1.00  0.00    -0.272 OA 
BRANCH   4   5
HETATM    5  C   UNL     1     -11.082  11.828  66.840  1.00  0.00    -0.307 C  
HETATM    6  O   UNL     1     -12.129  11.478  67.368  1.00  0.00    -0.593 OA 
BRANCH   5   7
HETATM    7  C   UNL     1      -9.748  11.172  67.075  1.00  0.00    -0.210 C  
BRANCH   7   8
HETATM    8  C   UNL     1      -9.313  11.337  68.530  1.00  0.00    -0.182 C  
BRANCH   8   9
HETATM    9  C   UNL     1      -7.913  10.765  68.738  1.00  0.00    -0.136 C  
BRANCH   9  10
HETATM   10  C   UNL     1      -7.798  10.014  70.032  1.00  0.00    -0.172 C  
HETATM   11  C   UNL     1      -7.650   8.686  70.161  1.00  0.00    -0.069 C  
BRANCH  11  12
HETATM   12  C   UNL     1      -7.571   7.685  69.038  1.00  0.00    -0.104 C  
BRANCH  12  13
HETATM   13  C   UNL     1      -8.778   7.813  68.103  1.00  0.00    -0.126 C  
HETATM   14  C   UNL     1      -8.594   7.149  66.732  1.00  0.00    -0.124 C  
HETATM   15  C   UNL     1     -10.021   7.025  66.220  1.00  0.00     0.033 C  
HETATM   16  O   UNL     1      -8.045   5.838  66.849  1.00  0.00    -0.102 OA 
HETATM   17  C   UNL     1     -10.792   6.546  67.450  1.00  0.00    -0.373 C  
HETATM   18  H   UNL     1      -7.931   5.427  66.000  1.00  0.00     0.000 HD 
HETATM   19  C   UNL     1     -10.060   7.152  68.676  1.00  0.00    -0.177 C  
HETATM   20  O   UNL     1     -10.750   5.119  67.518  1.00  0.00    -0.094 OA 
HETATM   21  H   UNL     1     -11.229   4.821  68.282  1.00  0.00     0.000 HD 
BRANCH  19  22
HETATM   22  C   UNL     1     -10.948   8.097  69.462  1.00  0.00    -0.056 C  
HETATM   23  C   UNL     1     -11.332   7.913  70.739  1.00  0.00    -0.283 C  
BRANCH  23  24
HETATM   24  C   UNL     1     -12.111   8.912  71.560  1.00  0.00    -0.330 C  
HETATM   25  F   UNL     1     -11.841   8.734  72.882  1.00  0.00    -0.340 F  
HETATM   26  F   UNL     1     -13.443   8.684  71.403  1.00  0.00    -0.339 F  
BRANCH  24  27
HETATM   27  C   UNL     1     -11.787  10.361  71.161  1.00  0.00    -0.337 C  
BRANCH  27  28
HETATM   28  O   UNL     1     -12.991  11.116  70.961  1.00  0.00    -0.335 OA 
BRANCH  28  29
HETATM   29  C   UNL     1     -12.875  12.466  71.154  1.00  0.00    -0.205 A  
HETATM   30  C   UNL     1     -13.481  12.962  72.310  1.00  0.00    -0.631 A  
HETATM   31  C   UNL     1     -13.424  14.325  72.610  1.00  0.00    -0.623 A  
HETATM   32  C   UNL     1     -12.745  15.197  71.760  1.00  0.00    -0.423 A  
HETATM   33  C   UNL     1     -12.120  14.704  70.615  1.00  0.00    -0.385 A  
HETATM   34  C   UNL     1     -12.183  13.341  70.312  1.00  0.00    -0.391 A  
ENDBRANCH  28  29
ENDBRANCH  27  28
ENDBRANCH  24  27
ENDBRANCH  23  24
ENDBRANCH  19  22
ENDBRANCH  12  13
ENDBRANCH  11  12
ENDBRANCH   9  10
ENDBRANCH   8   9
ENDBRANCH   7   8
ENDBRANCH   5   7
ENDBRANCH   4   5
ENDBRANCH   2   4
TORSDOF 13
ENDMDL
MODEL      132
REMARK 921   NORMALIZED FREE ENERGY PREDICTED BY IDOCK:   -4.90 KCAL/MOL
REMARK 922        TOTAL FREE ENERGY PREDICTED BY IDOCK:  -11.46 KCAL/MOL
REMARK 923 INTER-LIGAND FREE ENERGY PREDICTED BY IDOCK:   -9.26 KCAL/MOL
REMARK 924 INTRA-LIGAND FREE ENERGY PREDICTED BY IDOCK:   -2.20 KCAL/MOL
REMARK 927      BINDING AFFINITY PREDICTED BY RF-SCORE:    0.00 PKD
ROOT
HETATM    1  C   UNL     1      -7.543  12.737  68.268  1.00  0.00    -0.134 C  
HETATM    2  C   UNL     1      -6.584  13.887  68.558  1.00  0.00    -0.098 C  
HETATM    3  C   UNL     1      -5.193  13.360  68.889  1.00  0.00    -0.073 C  
ENDROOT
BRANCH   2   4
HETATM    4  O   UNL     1      -6.467  14.717  67.389  1.00  0.00    -0.306 OA 
BRANCH   4   5
HETATM    5  C   UNL     1      -7.462  15.632  67.218  1.00  0.00    -0.222 C  
HETATM    6  O   UNL     1      -8.219  15.685  66.259  1.00  0.00    -0.199 OA 
BRANCH   5   7
HETATM    7  C   UNL     1      -7.467  16.609  68.364  1.00  0.00    -0.194 C  
BRANCH   7   8
HETATM    8  C   UNL     1      -8.883  16.809  68.898  1.00  0.00    -0.228 C  
BRANCH   8   9
HETATM    9  C   UNL     1      -9.421  15.507  69.486  1.00  0.00    -0.269 C  
BRANCH   9  10
HETATM   10  C   UNL     1     -10.921  15.463  69.480  1.00  0.00    -0.276 C  
HETATM   11  C   UNL     1     -11.699  15.285  68.400  1.00  0.00    -0.340 C  
BRANCH  11  12
HETATM   12  C   UNL     1     -11.226  15.095  66.983  1.00  0.00    -0.308 C  
BRANCH  12  13
HETATM   13  C   UNL     1     -11.717  13.758  66.416  1.00  0.00    -0.404 C  
HETATM   14  C   UNL     1     -11.395  13.541  64.931  1.00  0.00    -0.334 C  
HETATM   15  C   UNL     1     -11.564  12.038  64.764  1.00  0.00    -0.344 C  
HETATM   16  O   UNL     1     -10.042  13.876  64.629  1.00  0.00    -0.589 OA 
HETATM   17  C   UNL     1     -10.887  11.470  66.010  1.00  0.00    -0.276 C  
HETATM   18  H   UNL     1      -9.843  13.741  63.710  1.00  0.00     0.000 HD 
HETATM   19  C   UNL     1     -11.084  12.531  67.125  1.00  0.00    -0.321 C  
HETATM   20  O   UNL     1      -9.492  11.288  65.759  1.00  0.00    -0.214 OA 
HETATM   21  H   UNL     1      -9.071  10.934  66.534  1.00  0.00     0.000 HD 
BRANCH  19  22
HETATM   22  C   UNL     1     -11.901  11.996  68.285  1.00  0.00    -0.351 C  
HETATM   23  C   UNL     1     -11.407  11.270  69.307  1.00  0.00    -0.354 C  
BRANCH  23  24
HETATM   24  C   UNL     1     -12.193  10.844  70.523  1.00  0.00    -0.367 C  
HETATM   25  F   UNL     1     -13.327  10.197  70.137  1.00  0.00    -0.241 F  
HETATM   26  F   UNL     1     -12.592  11.948  71.211  1.00  0.00    -0.443 F  
BRANCH  24  27
HETATM   27  C   UNL     1     -11.372   9.931  71.448  1.00  0.00    -0.274 C  
BRANCH  27  28
HETATM   28  O   UNL     1     -10.954   8.746  70.754  1.00  0.00    -0.230 OA 
BRANCH  28  29
HETATM   29  C   UNL     1     -10.811   7.630  71.534  1.00  0.00    -0.227 A  
HETATM   30  C   UNL     1     -10.434   7.866  72.858  1.00  0.00    -0.422 A  
HETATM   31  C   UNL     1     -10.262   6.801  73.744  1.00  0.00    -0.378 A  
HETATM   32  C   UNL     1     -10.481   5.494  73.313  1.00  0.00    -0.255 A  
HETATM   33  C   UNL     1     -10.877   5.254  71.999  1.00  0.00    -0.230 A  
HETATM   34  C   UNL     1     -11.044   6.319  71.109  1.00  0.00    -0.356 A  
ENDBRANCH  28  29
ENDBRANCH  27  28
ENDBRANCH  24  27
ENDBRANCH  23  24
ENDBRANCH  19  22
ENDBRANCH  12  13
ENDBRANCH  11  12
ENDBRANCH   9  10
ENDBRANCH   8   9
ENDBRANCH   7   8
ENDBRANCH   5   7
ENDBRANCH   4   5
ENDBRANCH   2   4
TORSDOF 13
ENDMDL
MODEL      133
REMARK 921   NORMALIZED FREE ENERGY PREDICTED BY IDOCK:   -4.90 KCAL/MOL
REMARK 922        TOTAL FREE ENERGY PREDICTED BY IDOCK:  -11.46 KCAL/MOL
REMARK 923 INTER-LIGAND FREE ENERGY PREDICTED BY IDOCK:   -8.97 KCAL/MOL
REMARK 924 INTRA-LIGAND FREE ENERGY PREDICTED BY IDOCK:   -2.48 KCAL/MOL
REMARK 927      BINDING AFFINITY PREDICTED BY RF-SCORE:    0.00 PKD
ROOT
HETATM    1  C   UNL     1     -10.662  11.209  65.145  1.00  0.00    -0.279 C  
HETATM    2  C   UNL     1     -11.466  12.446  64.758  1.00  0.00    -0.325 C  
HETATM    3  C   UNL     1     -12.241  12.204  63.468  1.00  0.00    -0.670 C  
ENDROOT
BRANCH   2   4
HETATM    4  O   UNL     1     -12.422  12.738  65.792  1.00  0.00    -0.579 OA 
BRANCH   4   5
HETATM    5  C   UNL     1     -12.098  13.777  66.612  1.00  0.00    -0.429 C  
HETATM    6  O   UNL     1     -12.101  14.958  66.294  1.00  0.00    -0.163 OA 
BRANCH   5   7
HETATM    7  C   UNL     1     -11.684  13.258  67.963  1.00  0.00    -0.394 C  
BRANCH   7   8
HETATM    8  C   UNL     1     -12.178  14.185  69.072  1.00  0.00    -0.274 C  
BRANCH   8   9
HETATM    9  C   UNL     1     -11.544  13.806  70.408  1.00  0.00    -0.143 C  
BRANCH   9  10
HETATM   10  C   UNL     1     -12.557  13.280  71.383  1.00  0.00    -0.365 C  
HETATM   11  C   UNL     1     -13.051  12.032  71.408  1.00  0.00    -0.295 C  
BRANCH  11  12
HETATM   12  C   UNL     1     -12.692  10.912  70.467  1.00  0.00    -0.363 C  
BRANCH  12  13
HETATM   13  C   UNL     1     -11.899   9.819  71.192  1.00  0.00    -0.466 C  
HETATM   14  C   UNL     1     -12.760   8.831  71.989  1.00  0.00    -0.387 C  
HETATM   15  C   UNL     1     -11.818   7.655  72.202  1.00  0.00    -0.352 C  
HETATM   16  O   UNL     1     -13.881   8.377  71.233  1.00  0.00    -0.549 OA 
HETATM   17  C   UNL     1     -11.146   7.497  70.839  1.00  0.00    -0.263 C  
HETATM   18  H   UNL     1     -14.413   7.764  71.727  1.00  0.00     0.000 HD 
HETATM   19  C   UNL     1     -11.086   8.919  70.224  1.00  0.00    -0.251 C  
HETATM   20  O   UNL     1     -11.937   6.644  70.009  1.00  0.00    -0.630 OA 
HETATM   21  H   UNL     1     -11.519   6.545  69.161  1.00  0.00     0.000 HD 
BRANCH  19  22
HETATM   22  C   UNL     1      -9.660   9.383  69.994  1.00  0.00    -0.256 C  
HETATM   23  C   UNL     1      -9.274  10.244  69.034  1.00  0.00    -0.188 C  
BRANCH  23  24
HETATM   24  C   UNL     1      -7.879  10.802  68.884  1.00  0.00    -0.136 C  
HETATM   25  F   UNL     1      -7.232  10.756  70.081  1.00  0.00    -0.155 F  
HETATM   26  F   UNL     1      -7.954  12.115  68.534  1.00  0.00    -0.132 F  
BRANCH  24  27
HETATM   27  C   UNL     1      -7.063  10.034  67.831  1.00  0.00    -0.085 C  
BRANCH  27  28
HETATM   28  O   UNL     1      -7.922   9.476  66.827  1.00  0.00    -0.107 OA 
BRANCH  28  29
HETATM   29  C   UNL     1      -8.112   8.122  66.904  1.00  0.00    -0.104 A  
HETATM   30  C   UNL     1      -9.241   7.635  66.242  1.00  0.00    -0.204 A  
HETATM   31  C   UNL     1      -9.532   6.269  66.252  1.00  0.00    -0.135 A  
HETATM   32  C   UNL     1      -8.685   5.382  66.912  1.00  0.00    -0.112 A  
HETATM   33  C   UNL     1      -7.545   5.860  67.556  1.00  0.00    -0.093 A  
HETATM   34  C   UNL     1      -7.256   7.227  67.552  1.00  0.00    -0.090 A  
ENDBRANCH  28  29
ENDBRANCH  27  28
ENDBRANCH  24  27
ENDBRANCH  23  24
ENDBRANCH  19  22
ENDBRANCH  12  13
ENDBRANCH  11  12
ENDBRANCH   9  10
ENDBRANCH   8   9
ENDBRANCH   7   8
ENDBRANCH   5   7
ENDBRANCH   4   5
ENDBRANCH   2   4
TORSDOF 13
ENDMDL
MODEL      134
REMARK 921   NORMALIZED FREE ENERGY PREDICTED BY IDOCK:   -4.90 KCAL/MOL
REMARK 922        TOTAL FREE ENERGY PREDICTED BY IDOCK:  -11.46 KCAL/MOL
REMARK 923 INTER-LIGAND FREE ENERGY PREDICTED BY IDOCK:   -8.99 KCAL/MOL
REMARK 924 INTRA-LIGAND FREE ENERGY PREDICTED BY IDOCK:   -2.46 KCAL/MOL
REMARK 927      BINDING AFFINITY PREDICTED BY RF-SCORE:    0.00 PKD
ROOT
HETATM    1  C   UNL     1      -7.521   4.197  68.041  1.00  0.00    -0.068 C  
HETATM    2  C   UNL     1      -8.680   3.588  67.258  1.00  0.00    -0.118 C  
HETATM    3  C   UNL     1      -8.941   2.156  67.706  1.00  0.00    -0.190 C  
ENDROOT
BRANCH   2   4
HETATM    4  O   UNL     1      -9.876   4.347  67.508  1.00  0.00    -0.177 OA 
BRANCH   4   5
HETATM    5  C   UNL     1     -10.376   5.022  66.435  1.00  0.00    -0.294 C  
HETATM    6  O   UNL     1     -10.211   4.713  65.263  1.00  0.00    -0.168 OA 
BRANCH   5   7
HETATM    7  C   UNL     1     -11.127   6.242  66.897  1.00  0.00    -0.329 C  
BRANCH   7   8
HETATM    8  C   UNL     1     -10.184   7.435  67.041  1.00  0.00    -0.357 C  
BRANCH   8   9
HETATM    9  C   UNL     1     -10.367   8.099  68.404  1.00  0.00    -0.236 C  
BRANCH   9  10
HETATM   10  C   UNL     1      -9.245   7.772  69.345  1.00  0.00    -0.149 C  
HETATM   11  C   UNL     1      -9.207   6.734  70.195  1.00  0.00    -0.155 C  
BRANCH  11  12
HETATM   12  C   UNL     1     -10.281   5.693  70.378  1.00  0.00    -0.302 C  
BRANCH  12  13
HETATM   13  C   UNL     1     -10.852   5.738  71.799  1.00  0.00    -0.311 C  
HETATM   14  C   UNL     1     -10.227   4.725  72.768  1.00  0.00    -0.182 C  
HETATM   15  C   UNL     1     -10.618   5.275  74.132  1.00  0.00    -0.301 C  
HETATM   16  O   UNL     1      -8.804   4.718  72.679  1.00  0.00    -0.114 OA 
HETATM   17  C   UNL     1     -10.373   6.776  73.986  1.00  0.00    -0.347 C  
HETATM   18  H   UNL     1      -8.417   4.091  73.279  1.00  0.00     0.000 HD 
HETATM   19  C   UNL     1     -10.640   7.109  72.494  1.00  0.00    -0.273 C  
HETATM   20  O   UNL     1      -9.015   7.077  74.313  1.00  0.00    -0.178 OA 
HETATM   21  H   UNL     1      -8.863   8.010  74.222  1.00  0.00     0.000 HD 
BRANCH  19  22
HETATM   22  C   UNL     1     -11.794   8.078  72.322  1.00  0.00    -0.424 C  
HETATM   23  C   UNL     1     -11.699   9.300  71.764  1.00  0.00    -0.456 C  
BRANCH  23  24
HETATM   24  C   UNL     1     -12.868  10.212  71.480  1.00  0.00    -0.443 C  
HETATM   25  F   UNL     1     -13.600  10.394  72.613  1.00  0.00    -0.333 F  
HETATM   26  F   UNL     1     -13.694   9.618  70.576  1.00  0.00    -0.233 F  
BRANCH  24  27
HETATM   27  C   UNL     1     -12.413  11.578  70.940  1.00  0.00    -0.366 C  
BRANCH  27  28
HETATM   28  O   UNL     1     -11.467  11.416  69.873  1.00  0.00    -0.283 OA 
BRANCH  28  29
HETATM   29  C   UNL     1     -11.526  12.364  68.888  1.00  0.00    -0.307 A  
HETATM   30  C   UNL     1     -11.817  13.661  69.318  1.00  0.00    -0.395 A  
HETATM   31  C   UNL     1     -11.900  14.709  68.398  1.00  0.00    -0.330 A  
HETATM   32  C   UNL     1     -11.677  14.467  67.045  1.00  0.00    -0.420 A  
HETATM   33  C   UNL     1     -11.365  13.179  66.612  1.00  0.00    -0.361 A  
HETATM   34  C   UNL     1     -11.288  12.128  67.531  1.00  0.00    -0.392 A  
ENDBRANCH  28  29
ENDBRANCH  27  28
ENDBRANCH  24  27
ENDBRANCH  23  24
ENDBRANCH  19  22
ENDBRANCH  12  13
ENDBRANCH  11  12
ENDBRANCH   9  10
ENDBRANCH   8   9
ENDBRANCH   7   8
ENDBRANCH   5   7
ENDBRANCH   4   5
ENDBRANCH   2   4
TORSDOF 13
ENDMDL
MODEL      135
REMARK 921   NORMALIZED FREE ENERGY PREDICTED BY IDOCK:   -4.88 KCAL/MOL
REMARK 922        TOTAL FREE ENERGY PREDICTED BY IDOCK:  -11.42 KCAL/MOL
REMARK 923 INTER-LIGAND FREE ENERGY PREDICTED BY IDOCK:   -9.33 KCAL/MOL
REMARK 924 INTRA-LIGAND FREE ENERGY PREDICTED BY IDOCK:   -2.09 KCAL/MOL
REMARK 927      BINDING AFFINITY PREDICTED BY RF-SCORE:    0.00 PKD
ROOT
HETATM    1  C   UNL     1     -13.829   8.596  71.590  1.00  0.00    -0.440 C  
HETATM    2  C   UNL     1     -12.397   8.127  71.824  1.00  0.00    -0.321 C  
HETATM    3  C   UNL     1     -12.288   6.617  71.651  1.00  0.00    -0.382 C  
ENDROOT
BRANCH   2   4
HETATM    4  O   UNL     1     -11.528   8.739  70.855  1.00  0.00    -0.275 OA 
BRANCH   4   5
HETATM    5  C   UNL     1     -10.198   8.685  71.143  1.00  0.00    -0.230 C  
HETATM    6  O   UNL     1      -9.704   8.869  72.247  1.00  0.00    -0.284 OA 
BRANCH   5   7
HETATM    7  C   UNL     1      -9.408   8.414  69.890  1.00  0.00    -0.155 C  
BRANCH   7   8
HETATM    8  C   UNL     1      -8.589   9.640  69.492  1.00  0.00    -0.177 C  
BRANCH   8   9
HETATM    9  C   UNL     1      -9.415  10.571  68.609  1.00  0.00    -0.172 C  
BRANCH   9  10
HETATM   10  C   UNL     1     -10.302   9.812  67.666  1.00  0.00    -0.281 C  
HETATM   11  C   UNL     1     -10.337   9.953  66.332  1.00  0.00    -0.246 C  
BRANCH  11  12
HETATM   12  C   UNL     1      -9.496  10.898  65.514  1.00  0.00    -0.249 C  
BRANCH  12  13
HETATM   13  C   UNL     1     -10.302  12.137  65.107  1.00  0.00    -0.311 C  
HETATM   14  C   UNL     1     -10.516  12.289  63.595  1.00  0.00    -0.450 C  
HETATM   15  C   UNL     1     -11.671  13.275  63.512  1.00  0.00    -0.390 C  
HETATM   16  O   UNL     1     -10.929  11.063  62.994  1.00  0.00    -0.798 OA 
HETATM   17  C   UNL     1     -12.628  12.782  64.596  1.00  0.00    -0.419 C  
HETATM   18  H   UNL     1     -11.061  11.158  62.058  1.00  0.00     0.000 HD 
HETATM   19  C   UNL     1     -11.738  12.145  65.696  1.00  0.00    -0.385 C  
HETATM   20  O   UNL     1     -13.504  11.793  64.051  1.00  0.00    -0.493 OA 
HETATM   21  H   UNL     1     -14.100  11.486  64.725  1.00  0.00     0.000 HD 
BRANCH  19  22
HETATM   22  C   UNL     1     -11.861  12.871  67.022  1.00  0.00    -0.437 C  
HETATM   23  C   UNL     1     -11.352  14.089  67.285  1.00  0.00    -0.350 C  
BRANCH  23  24
HETATM   24  C   UNL     1     -11.580  14.863  68.561  1.00  0.00    -0.323 C  
HETATM   25  F   UNL     1     -12.423  14.172  69.377  1.00  0.00    -0.368 F  
HETATM   26  F   UNL     1     -12.201  16.039  68.270  1.00  0.00    -0.183 F  
BRANCH  24  27
HETATM   27  C   UNL     1     -10.265  15.146  69.306  1.00  0.00    -0.251 C  
BRANCH  27  28
HETATM   28  O   UNL     1      -9.232  14.248  68.876  1.00  0.00    -0.154 OA 
BRANCH  28  29
HETATM   29  C   UNL     1      -7.953  14.712  69.022  1.00  0.00    -0.122 A  
HETATM   30  C   UNL     1      -6.955  13.736  69.018  1.00  0.00    -0.104 A  
HETATM   31  C   UNL     1      -5.613  14.095  69.157  1.00  0.00    -0.084 A  
HETATM   32  C   UNL     1      -5.262  15.437  69.286  1.00  0.00    -0.096 A  
HETATM   33  C   UNL     1      -6.252  16.419  69.269  1.00  0.00    -0.178 A  
HETATM   34  C   UNL     1      -7.596  16.059  69.136  1.00  0.00    -0.225 A  
ENDBRANCH  28  29
ENDBRANCH  27  28
ENDBRANCH  24  27
ENDBRANCH  23  24
ENDBRANCH  19  22
ENDBRANCH  12  13
ENDBRANCH  11  12
ENDBRANCH   9  10
ENDBRANCH   8   9
ENDBRANCH   7   8
ENDBRANCH   5   7
ENDBRANCH   4   5
ENDBRANCH   2   4
TORSDOF 13
ENDMDL
MODEL      136
REMARK 921   NORMALIZED FREE ENERGY PREDICTED BY IDOCK:   -4.88 KCAL/MOL
REMARK 922        TOTAL FREE ENERGY PREDICTED BY IDOCK:  -11.42 KCAL/MOL
REMARK 923 INTER-LIGAND FREE ENERGY PREDICTED BY IDOCK:   -9.03 KCAL/MOL
REMARK 924 INTRA-LIGAND FREE ENERGY PREDICTED BY IDOCK:   -2.39 KCAL/MOL
REMARK 927      BINDING AFFINITY PREDICTED BY RF-SCORE:    0.00 PKD
ROOT
HETATM    1  C   UNL     1     -10.803   8.838  72.145  1.00  0.00    -0.400 C  
HETATM    2  C   UNL     1     -12.151   8.139  72.283  1.00  0.00    -0.364 C  
HETATM    3  C   UNL     1     -13.290   9.090  71.939  1.00  0.00    -0.474 C  
ENDROOT
BRANCH   2   4
HETATM    4  O   UNL     1     -12.213   7.035  71.364  1.00  0.00    -0.325 OA 
BRANCH   4   5
HETATM    5  C   UNL     1     -11.369   6.000  71.634  1.00  0.00    -0.252 C  
HETATM    6  O   UNL     1     -11.340   5.363  72.677  1.00  0.00    -0.279 OA 
BRANCH   5   7
HETATM    7  C   UNL     1     -10.433   5.781  70.474  1.00  0.00    -0.331 C  
BRANCH   7   8
HETATM    8  C   UNL     1     -11.059   6.278  69.173  1.00  0.00    -0.457 C  
BRANCH   8   9
HETATM    9  C   UNL     1     -10.444   7.612  68.759  1.00  0.00    -0.208 C  
BRANCH   9  10
HETATM   10  C   UNL     1      -9.024   7.458  68.297  1.00  0.00    -0.130 C  
HETATM   11  C   UNL     1      -8.579   7.643  67.045  1.00  0.00    -0.122 C  
BRANCH  11  12
HETATM   12  C   UNL     1      -9.411   8.040  65.853  1.00  0.00    -0.093 C  
BRANCH  12  13
HETATM   13  C   UNL     1      -8.994   9.419  65.328  1.00  0.00    -0.250 C  
HETATM   14  C   UNL     1      -8.283   9.394  63.969  1.00  0.00    -0.163 C  
HETATM   15  C   UNL     1      -8.400  10.836  63.498  1.00  0.00     0.019 C  
HETATM   16  O   UNL     1      -8.963   8.560  63.032  1.00  0.00    -0.390 OA 
HETATM   17  C   UNL     1      -9.842  11.201  63.847  1.00  0.00    -0.308 C  
HETATM   18  H   UNL     1      -8.523   8.545  62.190  1.00  0.00     0.000 HD 
HETATM   19  C   UNL     1     -10.199  10.372  65.109  1.00  0.00    -0.326 C  
HETATM   20  O   UNL     1     -10.706  10.835  62.769  1.00  0.00    -0.718 OA 
HETATM   21  H   UNL     1     -11.602  11.062  62.986  1.00  0.00     0.000 HD 
BRANCH  19  22
HETATM   22  C   UNL     1     -10.517  11.254  66.301  1.00  0.00    -0.308 C  
HETATM   23  C   UNL     1     -11.065  10.826  67.454  1.00  0.00    -0.363 C  
BRANCH  23  24
HETATM   24  C   UNL     1     -11.267  11.678  68.684  1.00  0.00    -0.250 C  
HETATM   25  F   UNL     1     -10.120  11.710  69.417  1.00  0.00    -0.096 F  
HETATM   26  F   UNL     1     -12.217  11.109  69.475  1.00  0.00    -0.336 F  
BRANCH  24  27
HETATM   27  C   UNL     1     -11.687  13.113  68.327  1.00  0.00    -0.349 C  
BRANCH  27  28
HETATM   28  O   UNL     1     -11.014  14.064  69.164  1.00  0.00    -0.245 OA 
BRANCH  28  29
HETATM   29  C   UNL     1     -10.041  14.803  68.546  1.00  0.00    -0.230 A  
HETATM   30  C   UNL     1      -9.949  14.639  67.163  1.00  0.00    -0.240 A  
HETATM   31  C   UNL     1      -8.994  15.346  66.428  1.00  0.00    -0.351 A  
HETATM   32  C   UNL     1      -8.135  16.233  67.075  1.00  0.00    -0.244 A  
HETATM   33  C   UNL     1      -8.236  16.416  68.453  1.00  0.00    -0.190 A  
HETATM   34  C   UNL     1      -9.188  15.705  69.189  1.00  0.00    -0.254 A  
ENDBRANCH  28  29
ENDBRANCH  27  28
ENDBRANCH  24  27
ENDBRANCH  23  24
ENDBRANCH  19  22
ENDBRANCH  12  13
ENDBRANCH  11  12
ENDBRANCH   9  10
ENDBRANCH   8   9
ENDBRANCH   7   8
ENDBRANCH   5   7
ENDBRANCH   4   5
ENDBRANCH   2   4
TORSDOF 13
ENDMDL
MODEL      137
REMARK 921   NORMALIZED FREE ENERGY PREDICTED BY IDOCK:   -4.88 KCAL/MOL
REMARK 922        TOTAL FREE ENERGY PREDICTED BY IDOCK:  -11.42 KCAL/MOL
REMARK 923 INTER-LIGAND FREE ENERGY PREDICTED BY IDOCK:   -9.05 KCAL/MOL
REMARK 924 INTRA-LIGAND FREE ENERGY PREDICTED BY IDOCK:   -2.37 KCAL/MOL
REMARK 927      BINDING AFFINITY PREDICTED BY RF-SCORE:    0.00 PKD
ROOT
HETATM    1  C   UNL     1      -9.203   4.622  67.764  1.00  0.00    -0.150 C  
HETATM    2  C   UNL     1      -9.623   5.642  66.710  1.00  0.00    -0.146 C  
HETATM    3  C   UNL     1     -10.991   6.226  67.039  1.00  0.00    -0.442 C  
ENDROOT
BRANCH   2   4
HETATM    4  O   UNL     1      -8.679   6.727  66.694  1.00  0.00    -0.118 OA 
BRANCH   4   5
HETATM    5  C   UNL     1      -7.381   6.378  66.919  1.00  0.00    -0.079 C  
HETATM    6  O   UNL     1      -6.677   5.734  66.154  1.00  0.00    -0.053 OA 
BRANCH   5   7
HETATM    7  C   UNL     1      -6.946   6.858  68.278  1.00  0.00    -0.080 C  
BRANCH   7   8
HETATM    8  C   UNL     1      -7.092   8.375  68.388  1.00  0.00    -0.080 C  
BRANCH   8   9
HETATM    9  C   UNL     1      -8.226   8.734  69.345  1.00  0.00    -0.108 C  
BRANCH   9  10
HETATM   10  C   UNL     1      -8.697   7.546  70.130  1.00  0.00    -0.142 C  
HETATM   11  C   UNL     1      -9.618   7.563  71.107  1.00  0.00    -0.164 C  
BRANCH  11  12
HETATM   12  C   UNL     1     -10.361   8.773  71.610  1.00  0.00    -0.391 C  
BRANCH  12  13
HETATM   13  C   UNL     1     -11.811   8.772  71.113  1.00  0.00    -0.345 C  
HETATM   14  C   UNL     1     -12.565   7.458  71.353  1.00  0.00    -0.370 C  
HETATM   15  C   UNL     1     -14.022   7.870  71.203  1.00  0.00    -0.192 C  
HETATM   16  O   UNL     1     -12.371   6.971  72.679  1.00  0.00    -0.478 OA 
HETATM   17  C   UNL     1     -14.089   9.194  71.963  1.00  0.00    -0.312 C  
HETATM   18  H   UNL     1     -12.838   6.157  72.827  1.00  0.00     0.000 HD 
HETATM   19  C   UNL     1     -12.690   9.846  71.810  1.00  0.00    -0.523 C  
HETATM   20  O   UNL     1     -14.357   8.944  73.344  1.00  0.00    -1.192 OA 
HETATM   21  H   UNL     1     -14.399   9.767  73.816  1.00  0.00     0.000 HD 
BRANCH  19  22
HETATM   22  C   UNL     1     -12.753  11.169  71.072  1.00  0.00    -0.476 C  
HETATM   23  C   UNL     1     -12.607  12.379  71.645  1.00  0.00    -0.190 C  
BRANCH  23  24
HETATM   24  C   UNL     1     -12.546  13.688  70.895  1.00  0.00    -0.346 C  
HETATM   25  F   UNL     1     -11.624  14.509  71.471  1.00  0.00    -0.360 F  
HETATM   26  F   UNL     1     -13.745  14.323  70.996  1.00  0.00    -0.390 F  
BRANCH  24  27
HETATM   27  C   UNL     1     -12.194  13.486  69.412  1.00  0.00    -0.228 C  
BRANCH  27  28
HETATM   28  O   UNL     1     -10.794  13.214  69.252  1.00  0.00    -0.144 OA 
BRANCH  28  29
HETATM   29  C   UNL     1     -10.471  12.409  68.193  1.00  0.00    -0.219 A  
HETATM   30  C   UNL     1     -11.163  11.198  68.125  1.00  0.00    -0.356 A  
HETATM   31  C   UNL     1     -10.915  10.300  67.084  1.00  0.00    -0.233 A  
HETATM   32  C   UNL     1      -9.984  10.617  66.098  1.00  0.00    -0.283 A  
HETATM   33  C   UNL     1      -9.305  11.833  66.149  1.00  0.00    -0.236 A  
HETATM   34  C   UNL     1      -9.548  12.730  67.193  1.00  0.00    -0.219 A  
ENDBRANCH  28  29
ENDBRANCH  27  28
ENDBRANCH  24  27
ENDBRANCH  23  24
ENDBRANCH  19  22
ENDBRANCH  12  13
ENDBRANCH  11  12
ENDBRANCH   9  10
ENDBRANCH   8   9
ENDBRANCH   7   8
ENDBRANCH   5   7
ENDBRANCH   4   5
ENDBRANCH   2   4
TORSDOF 13
ENDMDL
MODEL      138
REMARK 921   NORMALIZED FREE ENERGY PREDICTED BY IDOCK:   -4.87 KCAL/MOL
REMARK 922        TOTAL FREE ENERGY PREDICTED BY IDOCK:  -11.41 KCAL/MOL
REMARK 923 INTER-LIGAND FREE ENERGY PREDICTED BY IDOCK:   -9.03 KCAL/MOL
REMARK 924 INTRA-LIGAND FREE ENERGY PREDICTED BY IDOCK:   -2.38 KCAL/MOL
REMARK 927      BINDING AFFINITY PREDICTED BY RF-SCORE:    0.00 PKD
ROOT
HETATM    1  C   UNL     1     -11.382   5.783  72.529  1.00  0.00    -0.358 C  
HETATM    2  C   UNL     1     -10.346   5.902  71.417  1.00  0.00    -0.218 C  
HETATM    3  C   UNL     1      -9.050   6.504  71.946  1.00  0.00    -0.148 C  
ENDROOT
BRANCH   2   4
HETATM    4  O   UNL     1     -10.039   4.591  70.908  1.00  0.00    -0.207 OA 
BRANCH   4   5
HETATM    5  C   UNL     1     -10.003   4.484  69.550  1.00  0.00    -0.165 C  
HETATM    6  O   UNL     1      -9.530   3.545  68.926  1.00  0.00    -0.164 OA 
BRANCH   5   7
HETATM    7  C   UNL     1     -10.588   5.720  68.919  1.00  0.00    -0.337 C  
BRANCH   7   8
HETATM    8  C   UNL     1      -9.761   6.152  67.709  1.00  0.00    -0.118 C  
BRANCH   8   9
HETATM    9  C   UNL     1      -9.588   7.668  67.694  1.00  0.00    -0.175 C  
BRANCH   9  10
HETATM   10  C   UNL     1      -8.965   8.151  66.417  1.00  0.00    -0.207 C  
HETATM   11  C   UNL     1      -9.424   9.148  65.645  1.00  0.00    -0.309 C  
BRANCH  11  12
HETATM   12  C   UNL     1     -10.653   9.980  65.902  1.00  0.00     0.001 C  
BRANCH  12  13
HETATM   13  C   UNL     1     -10.417  11.443  65.510  1.00  0.00    -0.322 C  
HETATM   14  C   UNL     1     -10.251  11.679  64.002  1.00  0.00    -0.346 C  
HETATM   15  C   UNL     1     -10.489  13.175  63.865  1.00  0.00    -0.125 C  
HETATM   16  O   UNL     1     -11.249  10.994  63.248  1.00  0.00    -0.715 OA 
HETATM   17  C   UNL     1     -11.695  13.420  64.772  1.00  0.00    -0.361 C  
HETATM   18  H   UNL     1     -11.146  11.141  62.314  1.00  0.00     0.000 HD 
HETATM   19  C   UNL     1     -11.591  12.375  65.913  1.00  0.00    -0.449 C  
HETATM   20  O   UNL     1     -12.902  13.214  64.035  1.00  0.00    -0.648 OA 
HETATM   21  H   UNL     1     -13.651  13.367  64.599  1.00  0.00     0.000 HD 
BRANCH  19  22
HETATM   22  C   UNL     1     -11.429  13.026  67.272  1.00  0.00    -0.380 C  
HETATM   23  C   UNL     1     -11.775  14.293  67.567  1.00  0.00    -0.415 C  
BRANCH  23  24
HETATM   24  C   UNL     1     -11.730  14.902  68.948  1.00  0.00    -0.315 C  
HETATM   25  F   UNL     1     -12.079  16.216  68.885  1.00  0.00    -0.362 F  
HETATM   26  F   UNL     1     -10.453  14.863  69.416  1.00  0.00    -0.220 F  
BRANCH  24  27
HETATM   27  C   UNL     1     -12.660  14.171  69.930  1.00  0.00    -0.154 C  
BRANCH  27  28
HETATM   28  O   UNL     1     -11.901  13.475  70.930  1.00  0.00    -0.196 OA 
BRANCH  28  29
HETATM   29  C   UNL     1     -11.958  12.109  70.864  1.00  0.00     0.108 A  
HETATM   30  C   UNL     1     -12.929  11.509  71.669  1.00  0.00    -0.499 A  
HETATM   31  C   UNL     1     -13.078  10.120  71.679  1.00  0.00    -0.550 A  
HETATM   32  C   UNL     1     -12.267   9.327  70.872  1.00  0.00    -0.264 A  
HETATM   33  C   UNL     1     -11.310   9.921  70.050  1.00  0.00    -0.303 A  
HETATM   34  C   UNL     1     -11.156  11.311  70.044  1.00  0.00    -0.114 A  
ENDBRANCH  28  29
ENDBRANCH  27  28
ENDBRANCH  24  27
ENDBRANCH  23  24
ENDBRANCH  19  22
ENDBRANCH  12  13
ENDBRANCH  11  12
ENDBRANCH   9  10
ENDBRANCH   8   9
ENDBRANCH   7   8
ENDBRANCH   5   7
ENDBRANCH   4   5
ENDBRANCH   2   4
TORSDOF 13
ENDMDL
MODEL      139
REMARK 921   NORMALIZED FREE ENERGY PREDICTED BY IDOCK:   -4.85 KCAL/MOL
REMARK 922        TOTAL FREE ENERGY PREDICTED BY IDOCK:  -11.38 KCAL/MOL
REMARK 923 INTER-LIGAND FREE ENERGY PREDICTED BY IDOCK:  -10.05 KCAL/MOL
REMARK 924 INTRA-LIGAND FREE ENERGY PREDICTED BY IDOCK:   -1.33 KCAL/MOL
REMARK 927      BINDING AFFINITY PREDICTED BY RF-SCORE:    0.00 PKD
ROOT
HETATM    1  C   UNL     1      -9.451   3.635  71.760  1.00  0.00    -0.210 C  
HETATM    2  C   UNL     1     -10.035   4.987  72.157  1.00  0.00    -0.183 C  
HETATM    3  C   UNL     1      -9.558   5.394  73.546  1.00  0.00    -0.141 C  
ENDROOT
BRANCH   2   4
HETATM    4  O   UNL     1      -9.585   5.992  71.231  1.00  0.00    -0.166 OA 
BRANCH   4   5
HETATM    5  C   UNL     1     -10.534   6.881  70.826  1.00  0.00    -0.216 C  
HETATM    6  O   UNL     1     -11.429   6.648  70.026  1.00  0.00    -0.358 OA 
BRANCH   5   7
HETATM    7  C   UNL     1     -10.294   8.221  71.469  1.00  0.00    -0.276 C  
BRANCH   7   8
HETATM    8  C   UNL     1      -9.994   9.282  70.413  1.00  0.00    -0.287 C  
BRANCH   8   9
HETATM    9  C   UNL     1     -11.275   9.703  69.697  1.00  0.00    -0.176 C  
BRANCH   9  10
HETATM   10  C   UNL     1     -11.126  11.027  69.007  1.00  0.00    -0.301 C  
HETATM   11  C   UNL     1     -11.454  12.223  69.520  1.00  0.00    -0.318 C  
BRANCH  11  12
HETATM   12  C   UNL     1     -12.037  12.477  70.886  1.00  0.00    -0.139 C  
BRANCH  12  13
HETATM   13  C   UNL     1     -12.904  13.741  70.885  1.00  0.00    -0.341 C  
HETATM   14  C   UNL     1     -13.878  13.846  72.067  1.00  0.00    -0.497 C  
HETATM   15  C   UNL     1     -14.249  15.321  72.072  1.00  0.00    -0.679 C  
HETATM   16  O   UNL     1     -13.240  13.539  73.305  1.00  0.00    -0.316 OA 
HETATM   17  C   UNL     1     -12.909  16.018  71.837  1.00  0.00    -0.275 C  
HETATM   18  H   UNL     1     -13.843  13.604  74.037  1.00  0.00     0.000 HD 
HETATM   19  C   UNL     1     -12.070  15.048  70.964  1.00  0.00    -0.381 C  
HETATM   20  O   UNL     1     -12.252  16.233  73.088  1.00  0.00    -0.489 OA 
HETATM   21  H   UNL     1     -11.419  16.667  72.942  1.00  0.00     0.000 HD 
BRANCH  19  22
HETATM   22  C   UNL     1     -11.725  15.646  69.615  1.00  0.00    -0.373 C  
HETATM   23  C   UNL     1     -10.476  15.894  69.177  1.00  0.00    -0.235 C  
BRANCH  23  24
HETATM   24  C   UNL     1     -10.126  16.373  67.788  1.00  0.00    -0.262 C  
HETATM   25  F   UNL     1      -8.790  16.228  67.573  1.00  0.00    -0.181 F  
HETATM   26  F   UNL     1     -10.392  17.703  67.690  1.00  0.00    -0.307 F  
BRANCH  24  27
HETATM   27  C   UNL     1     -10.905  15.611  66.704  1.00  0.00    -0.266 C  
BRANCH  27  28
HETATM   28  O   UNL     1     -10.059  14.662  66.039  1.00  0.00    -0.281 OA 
BRANCH  28  29
HETATM   29  C   UNL     1     -10.711  13.710  65.302  1.00  0.00    -0.336 A  
HETATM   30  C   UNL     1     -12.089  13.630  65.509  1.00  0.00    -0.440 A  
HETATM   31  C   UNL     1     -12.856  12.696  64.808  1.00  0.00    -0.349 A  
HETATM   32  C   UNL     1     -12.248  11.848  63.886  1.00  0.00    -0.497 A  
HETATM   33  C   UNL     1     -10.876  11.937  63.660  1.00  0.00    -0.510 A  
HETATM   34  C   UNL     1     -10.106  12.868  64.365  1.00  0.00    -0.265 A  
ENDBRANCH  28  29
ENDBRANCH  27  28
ENDBRANCH  24  27
ENDBRANCH  23  24
ENDBRANCH  19  22
ENDBRANCH  12  13
ENDBRANCH  11  12
ENDBRANCH   9  10
ENDBRANCH   8   9
ENDBRANCH   7   8
ENDBRANCH   5   7
ENDBRANCH   4   5
ENDBRANCH   2   4
TORSDOF 13
ENDMDL
MODEL      140
REMARK 921   NORMALIZED FREE ENERGY PREDICTED BY IDOCK:   -4.85 KCAL/MOL
REMARK 922        TOTAL FREE ENERGY PREDICTED BY IDOCK:  -11.37 KCAL/MOL
REMARK 923 INTER-LIGAND FREE ENERGY PREDICTED BY IDOCK:   -9.41 KCAL/MOL
REMARK 924 INTRA-LIGAND FREE ENERGY PREDICTED BY IDOCK:   -1.95 KCAL/MOL
REMARK 927      BINDING AFFINITY PREDICTED BY RF-SCORE:    0.00 PKD
ROOT
HETATM    1  C   UNL     1      -6.964   5.051  66.051  1.00  0.00    -0.066 C  
HETATM    2  C   UNL     1      -7.153   6.432  66.671  1.00  0.00    -0.069 C  
HETATM    3  C   UNL     1      -7.060   7.519  65.609  1.00  0.00    -0.061 C  
ENDROOT
BRANCH   2   4
HETATM    4  O   UNL     1      -8.460   6.514  67.264  1.00  0.00    -0.112 OA 
BRANCH   4   5
HETATM    5  C   UNL     1      -8.512   7.112  68.488  1.00  0.00    -0.125 C  
HETATM    6  O   UNL     1      -7.924   6.729  69.489  1.00  0.00    -0.119 OA 
BRANCH   5   7
HETATM    7  C   UNL     1      -9.445   8.293  68.446  1.00  0.00    -0.144 C  
BRANCH   7   8
HETATM    8  C   UNL     1      -9.284   9.153  69.698  1.00  0.00    -0.172 C  
BRANCH   8   9
HETATM    9  C   UNL     1     -10.639   9.689  70.156  1.00  0.00    -0.320 C  
BRANCH   9  10
HETATM   10  C   UNL     1     -11.232  10.643  69.160  1.00  0.00    -0.324 C  
HETATM   11  C   UNL     1     -11.991  11.712  69.449  1.00  0.00    -0.381 C  
BRANCH  11  12
HETATM   12  C   UNL     1     -12.399  12.168  70.825  1.00  0.00    -0.391 C  
BRANCH  12  13
HETATM   13  C   UNL     1     -13.020  13.569  70.777  1.00  0.00    -0.168 C  
HETATM   14  C   UNL     1     -13.991  13.874  71.926  1.00  0.00    -0.425 C  
HETATM   15  C   UNL     1     -14.086  15.392  71.895  1.00  0.00    -0.636 C  
HETATM   16  O   UNL     1     -13.455  13.483  73.188  1.00  0.00    -0.468 OA 
HETATM   17  C   UNL     1     -12.635  15.828  71.692  1.00  0.00    -0.459 C  
HETATM   18  H   UNL     1     -14.056  13.673  73.899  1.00  0.00     0.000 HD 
HETATM   19  C   UNL     1     -11.964  14.702  70.861  1.00  0.00    -0.388 C  
HETATM   20  O   UNL     1     -11.986  15.947  72.959  1.00  0.00    -0.451 OA 
HETATM   21  H   UNL     1     -11.084  16.218  72.832  1.00  0.00     0.000 HD 
BRANCH  19  22
HETATM   22  C   UNL     1     -11.477  15.199  69.514  1.00  0.00    -0.314 C  
HETATM   23  C   UNL     1     -10.199  15.506  69.220  1.00  0.00    -0.252 C  
BRANCH  23  24
HETATM   24  C   UNL     1      -9.694  15.880  67.847  1.00  0.00    -0.216 C  
HETATM   25  F   UNL     1      -8.710  16.814  67.955  1.00  0.00    -0.196 F  
HETATM   26  F   UNL     1     -10.701  16.459  67.139  1.00  0.00    -0.312 F  
BRANCH  24  27
HETATM   27  C   UNL     1      -9.160  14.660  67.079  1.00  0.00    -0.238 C  
BRANCH  27  28
HETATM   28  O   UNL     1     -10.028  13.530  67.248  1.00  0.00    -0.230 OA 
BRANCH  28  29
HETATM   29  C   UNL     1     -10.501  12.974  66.090  1.00  0.00    -0.279 A  
HETATM   30  C   UNL     1     -11.431  13.745  65.390  1.00  0.00    -0.318 A  
HETATM   31  C   UNL     1     -11.979  13.279  64.193  1.00  0.00    -0.505 A  
HETATM   32  C   UNL     1     -11.586  12.043  63.683  1.00  0.00    -0.578 A  
HETATM   33  C   UNL     1     -10.642  11.278  64.367  1.00  0.00    -0.410 A  
HETATM   34  C   UNL     1     -10.098  11.742  65.568  1.00  0.00    -0.285 A  
ENDBRANCH  28  29
ENDBRANCH  27  28
ENDBRANCH  24  27
ENDBRANCH  23  24
ENDBRANCH  19  22
ENDBRANCH  12  13
ENDBRANCH  11  12
ENDBRANCH   9  10
ENDBRANCH   8   9
ENDBRANCH   7   8
ENDBRANCH   5   7
ENDBRANCH   4   5
ENDBRANCH   2   4
TORSDOF 13
ENDMDL
MODEL      141
REMARK 921   NORMALIZED FREE ENERGY PREDICTED BY IDOCK:   -4.84 KCAL/MOL
REMARK 922        TOTAL FREE ENERGY PREDICTED BY IDOCK:  -11.36 KCAL/MOL
REMARK 923 INTER-LIGAND FREE ENERGY PREDICTED BY IDOCK:   -8.85 KCAL/MOL
REMARK 924 INTRA-LIGAND FREE ENERGY PREDICTED BY IDOCK:   -2.51 KCAL/MOL
REMARK 927      BINDING AFFINITY PREDICTED BY RF-SCORE:    0.00 PKD
ROOT
HETATM    1  C   UNL     1     -11.515   9.226  71.913  1.00  0.00    -0.382 C  
HETATM    2  C   UNL     1     -12.528   8.193  72.391  1.00  0.00    -0.262 C  
HETATM    3  C   UNL     1     -13.949   8.727  72.260  1.00  0.00    -0.511 C  
ENDROOT
BRANCH   2   4
HETATM    4  O   UNL     1     -12.431   7.013  71.574  1.00  0.00    -0.349 OA 
BRANCH   4   5
HETATM    5  C   UNL     1     -11.346   6.223  71.812  1.00  0.00    -0.294 C  
HETATM    6  O   UNL     1     -11.060   5.719  72.889  1.00  0.00    -0.257 OA 
BRANCH   5   7
HETATM    7  C   UNL     1     -10.513   6.099  70.564  1.00  0.00    -0.291 C  
BRANCH   7   8
HETATM    8  C   UNL     1     -11.375   6.292  69.318  1.00  0.00    -0.411 C  
BRANCH   8   9
HETATM    9  C   UNL     1     -10.675   7.214  68.322  1.00  0.00    -0.202 C  
BRANCH   9  10
HETATM   10  C   UNL     1      -9.207   6.923  68.220  1.00  0.00    -0.123 C  
HETATM   11  C   UNL     1      -8.477   6.940  67.094  1.00  0.00    -0.121 C  
BRANCH  11  12
HETATM   12  C   UNL     1      -8.982   7.254  65.710  1.00  0.00    -0.052 C  
BRANCH  12  13
HETATM   13  C   UNL     1      -8.384   8.567  65.192  1.00  0.00    -0.178 C  
HETATM   14  C   UNL     1      -7.634   8.442  63.859  1.00  0.00    -0.135 C  
HETATM   15  C   UNL     1      -7.558   9.882  63.376  1.00  0.00    -0.139 C  
HETATM   16  O   UNL     1      -8.376   7.686  62.904  1.00  0.00    -0.345 OA 
HETATM   17  C   UNL     1      -8.957  10.422  63.670  1.00  0.00    -0.231 C  
HETATM   18  H   UNL     1      -7.911   7.609  62.079  1.00  0.00     0.000 HD 
HETATM   19  C   UNL     1      -9.456   9.656  64.923  1.00  0.00    -0.288 C  
HETATM   20  O   UNL     1      -9.820  10.152  62.563  1.00  0.00    -0.631 OA 
HETATM   21  H   UNL     1     -10.690  10.488  62.746  1.00  0.00     0.000 HD 
BRANCH  19  22
HETATM   22  C   UNL     1      -9.707  10.583  66.097  1.00  0.00    -0.259 C  
HETATM   23  C   UNL     1      -9.431  10.292  67.383  1.00  0.00    -0.174 C  
BRANCH  23  24
HETATM   24  C   UNL     1      -9.564  11.259  68.534  1.00  0.00    -0.198 C  
HETATM   25  F   UNL     1      -8.596  12.212  68.452  1.00  0.00    -0.160 F  
HETATM   26  F   UNL     1      -9.357  10.597  69.705  1.00  0.00    -0.158 F  
BRANCH  24  27
HETATM   27  C   UNL     1     -10.946  11.933  68.563  1.00  0.00    -0.235 C  
BRANCH  27  28
HETATM   28  O   UNL     1     -10.829  13.346  68.337  1.00  0.00    -0.247 OA 
BRANCH  28  29
HETATM   29  C   UNL     1     -11.247  13.780  67.108  1.00  0.00    -0.311 A  
HETATM   30  C   UNL     1     -10.363  14.628  66.437  1.00  0.00    -0.293 A  
HETATM   31  C   UNL     1     -10.686  15.129  65.174  1.00  0.00    -0.442 A  
HETATM   32  C   UNL     1     -11.889  14.772  64.570  1.00  0.00    -0.428 A  
HETATM   33  C   UNL     1     -12.766  13.909  65.226  1.00  0.00    -0.485 A  
HETATM   34  C   UNL     1     -12.447  13.411  66.492  1.00  0.00    -0.255 A  
ENDBRANCH  28  29
ENDBRANCH  27  28
ENDBRANCH  24  27
ENDBRANCH  23  24
ENDBRANCH  19  22
ENDBRANCH  12  13
ENDBRANCH  11  12
ENDBRANCH   9  10
ENDBRANCH   8   9
ENDBRANCH   7   8
ENDBRANCH   5   7
ENDBRANCH   4   5
ENDBRANCH   2   4
TORSDOF 13
ENDMDL
MODEL      142
REMARK 921   NORMALIZED FREE ENERGY PREDICTED BY IDOCK:   -4.84 KCAL/MOL
REMARK 922        TOTAL FREE ENERGY PREDICTED BY IDOCK:  -11.36 KCAL/MOL
REMARK 923 INTER-LIGAND FREE ENERGY PREDICTED BY IDOCK:   -9.80 KCAL/MOL
REMARK 924 INTRA-LIGAND FREE ENERGY PREDICTED BY IDOCK:   -1.55 KCAL/MOL
REMARK 927      BINDING AFFINITY PREDICTED BY RF-SCORE:    0.00 PKD
ROOT
HETATM    1  C   UNL     1     -11.064   6.242  68.491  1.00  0.00    -0.397 C  
HETATM    2  C   UNL     1     -10.421   7.242  67.537  1.00  0.00    -0.266 C  
HETATM    3  C   UNL     1     -10.503   8.656  68.099  1.00  0.00    -0.241 C  
ENDROOT
BRANCH   2   4
HETATM    4  O   UNL     1      -9.029   6.920  67.374  1.00  0.00    -0.117 OA 
BRANCH   4   5
HETATM    5  C   UNL     1      -8.209   7.339  68.378  1.00  0.00    -0.125 C  
HETATM    6  O   UNL     1      -8.248   6.945  69.536  1.00  0.00    -0.127 OA 
BRANCH   5   7
HETATM    7  C   UNL     1      -7.271   8.402  67.870  1.00  0.00    -0.091 C  
BRANCH   7   8
HETATM    8  C   UNL     1      -6.713   8.021  66.501  1.00  0.00    -0.062 C  
BRANCH   8   9
HETATM    9  C   UNL     1      -6.829   9.195  65.532  1.00  0.00    -0.073 C  
BRANCH   9  10
HETATM   10  C   UNL     1      -7.095  10.489  66.244  1.00  0.00    -0.132 C  
HETATM   11  C   UNL     1      -8.181  11.263  66.091  1.00  0.00    -0.088 C  
BRANCH  11  12
HETATM   12  C   UNL     1      -9.346  10.992  65.176  1.00  0.00    -0.249 C  
BRANCH  12  13
HETATM   13  C   UNL     1     -10.069  12.293  64.808  1.00  0.00    -0.271 C  
HETATM   14  C   UNL     1     -10.707  12.294  63.413  1.00  0.00    -0.391 C  
HETATM   15  C   UNL     1     -11.695  13.448  63.492  1.00  0.00    -0.301 C  
HETATM   16  O   UNL     1     -11.438  11.094  63.166  1.00  0.00    -0.795 OA 
HETATM   17  C   UNL     1     -12.336  13.264  64.867  1.00  0.00    -0.425 C  
HETATM   18  H   UNL     1     -11.834  11.095  62.302  1.00  0.00     0.000 HD 
HETATM   19  C   UNL     1     -11.246  12.622  65.765  1.00  0.00    -0.347 C  
HETATM   20  O   UNL     1     -13.456  12.382  64.762  1.00  0.00    -0.600 OA 
HETATM   21  H   UNL     1     -13.855  12.268  65.616  1.00  0.00     0.000 HD 
BRANCH  19  22
HETATM   22  C   UNL     1     -10.868  13.513  66.931  1.00  0.00    -0.286 C  
HETATM   23  C   UNL     1     -10.299  14.729  66.821  1.00  0.00    -0.268 C  
BRANCH  23  24
HETATM   24  C   UNL     1     -10.038  15.668  67.973  1.00  0.00    -0.224 C  
HETATM   25  F   UNL     1     -10.602  16.881  67.719  1.00  0.00    -0.303 F  
HETATM   26  F   UNL     1      -8.698  15.881  68.087  1.00  0.00    -0.164 F  
BRANCH  24  27
HETATM   27  C   UNL     1     -10.585  15.117  69.300  1.00  0.00    -0.253 C  
BRANCH  27  28
HETATM   28  O   UNL     1     -11.906  15.616  69.554  1.00  0.00    -0.347 OA 
BRANCH  28  29
HETATM   29  C   UNL     1     -12.626  14.923  70.489  1.00  0.00    -0.360 A  
HETATM   30  C   UNL     1     -12.240  13.594  70.680  1.00  0.00    -0.434 A  
HETATM   31  C   UNL     1     -12.903  12.792  71.612  1.00  0.00    -0.363 A  
HETATM   32  C   UNL     1     -13.946  13.322  72.369  1.00  0.00    -0.557 A  
HETATM   33  C   UNL     1     -14.322  14.653  72.198  1.00  0.00    -0.589 A  
HETATM   34  C   UNL     1     -13.663  15.455  71.261  1.00  0.00    -0.558 A  
ENDBRANCH  28  29
ENDBRANCH  27  28
ENDBRANCH  24  27
ENDBRANCH  23  24
ENDBRANCH  19  22
ENDBRANCH  12  13
ENDBRANCH  11  12
ENDBRANCH   9  10
ENDBRANCH   8   9
ENDBRANCH   7   8
ENDBRANCH   5   7
ENDBRANCH   4   5
ENDBRANCH   2   4
TORSDOF 13
ENDMDL
MODEL      143
REMARK 921   NORMALIZED FREE ENERGY PREDICTED BY IDOCK:   -4.84 KCAL/MOL
REMARK 922        TOTAL FREE ENERGY PREDICTED BY IDOCK:  -11.35 KCAL/MOL
REMARK 923 INTER-LIGAND FREE ENERGY PREDICTED BY IDOCK:   -9.61 KCAL/MOL
REMARK 924 INTRA-LIGAND FREE ENERGY PREDICTED BY IDOCK:   -1.74 KCAL/MOL
REMARK 927      BINDING AFFINITY PREDICTED BY RF-SCORE:    0.00 PKD
ROOT
HETATM    1  C   UNL     1     -10.781  17.785  68.089  1.00  0.00    -0.293 C  
HETATM    2  C   UNL     1     -10.489  18.761  66.955  1.00  0.00    -0.414 C  
HETATM    3  C   UNL     1      -9.190  19.514  67.212  1.00  0.00    -0.391 C  
ENDROOT
BRANCH   2   4
HETATM    4  O   UNL     1     -10.332  18.031  65.725  1.00  0.00    -0.583 OA 
BRANCH   4   5
HETATM    5  C   UNL     1      -9.881  16.752  65.857  1.00  0.00    -0.249 C  
HETATM    6  O   UNL     1      -8.865  16.416  66.447  1.00  0.00    -0.254 OA 
BRANCH   5   7
HETATM    7  C   UNL     1     -10.794  15.805  65.122  1.00  0.00    -0.444 C  
BRANCH   7   8
HETATM    8  C   UNL     1     -10.408  14.355  65.404  1.00  0.00    -0.400 C  
BRANCH   8   9
HETATM    9  C   UNL     1     -11.427  13.702  66.334  1.00  0.00    -0.358 C  
BRANCH   9  10
HETATM   10  C   UNL     1     -11.617  12.245  66.027  1.00  0.00    -0.451 C  
HETATM   11  C   UNL     1     -11.355  11.224  66.858  1.00  0.00    -0.231 C  
BRANCH  11  12
HETATM   12  C   UNL     1     -10.817  11.334  68.261  1.00  0.00    -0.249 C  
BRANCH  12  13
HETATM   13  C   UNL     1      -9.879  10.165  68.582  1.00  0.00    -0.170 C  
HETATM   14  C   UNL     1      -8.575  10.156  67.773  1.00  0.00    -0.118 C  
HETATM   15  C   UNL     1      -7.683   9.222  68.577  1.00  0.00    -0.085 C  
HETATM   16  O   UNL     1      -7.964  11.444  67.742  1.00  0.00    -0.111 OA 
HETATM   17  C   UNL     1      -7.941   9.652  70.021  1.00  0.00    -0.172 C  
HETATM   18  H   UNL     1      -7.156  11.438  67.241  1.00  0.00     0.000 HD 
HETATM   19  C   UNL     1      -9.408  10.156  70.061  1.00  0.00    -0.062 C  
HETATM   20  O   UNL     1      -7.054  10.715  70.373  1.00  0.00    -0.449 OA 
HETATM   21  H   UNL     1      -7.215  10.982  71.271  1.00  0.00     0.000 HD 
BRANCH  19  22
HETATM   22  C   UNL     1     -10.274   9.321  70.983  1.00  0.00    -0.384 C  
HETATM   23  C   UNL     1     -11.556   9.593  71.294  1.00  0.00    -0.466 C  
BRANCH  23  24
HETATM   24  C   UNL     1     -12.456   8.697  72.110  1.00  0.00    -0.389 C  
HETATM   25  F   UNL     1     -13.504   9.415  72.599  1.00  0.00    -0.474 F  
HETATM   26  F   UNL     1     -11.770   8.231  73.189  1.00  0.00    -0.402 F  
BRANCH  24  27
HETATM   27  C   UNL     1     -12.987   7.511  71.288  1.00  0.00    -0.278 C  
BRANCH  27  28
HETATM   28  O   UNL     1     -12.176   6.345  71.491  1.00  0.00    -0.312 OA 
BRANCH  28  29
HETATM   29  C   UNL     1     -11.230   6.113  70.529  1.00  0.00    -0.334 A  
HETATM   30  C   UNL     1     -11.609   6.436  69.225  1.00  0.00    -0.170 A  
HETATM   31  C   UNL     1     -10.722   6.244  68.163  1.00  0.00    -0.364 A  
HETATM   32  C   UNL     1      -9.446   5.741  68.404  1.00  0.00    -0.137 A  
HETATM   33  C   UNL     1      -9.054   5.437  69.707  1.00  0.00    -0.157 A  
HETATM   34  C   UNL     1      -9.943   5.624  70.770  1.00  0.00    -0.254 A  
ENDBRANCH  28  29
ENDBRANCH  27  28
ENDBRANCH  24  27
ENDBRANCH  23  24
ENDBRANCH  19  22
ENDBRANCH  12  13
ENDBRANCH  11  12
ENDBRANCH   9  10
ENDBRANCH   8   9
ENDBRANCH   7   8
ENDBRANCH   5   7
ENDBRANCH   4   5
ENDBRANCH   2   4
TORSDOF 13
ENDMDL
MODEL      144
REMARK 921   NORMALIZED FREE ENERGY PREDICTED BY IDOCK:   -4.81 KCAL/MOL
REMARK 922        TOTAL FREE ENERGY PREDICTED BY IDOCK:  -11.31 KCAL/MOL
REMARK 923 INTER-LIGAND FREE ENERGY PREDICTED BY IDOCK:   -9.60 KCAL/MOL
REMARK 924 INTRA-LIGAND FREE ENERGY PREDICTED BY IDOCK:   -1.71 KCAL/MOL
REMARK 927      BINDING AFFINITY PREDICTED BY RF-SCORE:    0.00 PKD
ROOT
HETATM    1  C   UNL     1     -13.784  13.842  72.284  1.00  0.00    -0.660 C  
HETATM    2  C   UNL     1     -13.130  15.211  72.124  1.00  0.00    -0.363 C  
HETATM    3  C   UNL     1     -13.125  15.965  73.448  1.00  0.00    -0.694 C  
ENDROOT
BRANCH   2   4
HETATM    4  O   UNL     1     -11.761  15.041  71.716  1.00  0.00    -0.365 OA 
BRANCH   4   5
HETATM    5  C   UNL     1     -11.436  15.595  70.514  1.00  0.00    -0.360 C  
HETATM    6  O   UNL     1     -10.919  16.692  70.356  1.00  0.00    -0.267 OA 
BRANCH   5   7
HETATM    7  C   UNL     1     -11.852  14.680  69.393  1.00  0.00    -0.368 C  
BRANCH   7   8
HETATM    8  C   UNL     1     -11.853  15.424  68.060  1.00  0.00    -0.128 C  
BRANCH   8   9
HETATM    9  C   UNL     1     -11.030  14.662  67.023  1.00  0.00    -0.317 C  
BRANCH   9  10
HETATM   10  C   UNL     1     -11.839  13.605  66.330  1.00  0.00    -0.426 C  
HETATM   11  C   UNL     1     -11.828  12.293  66.614  1.00  0.00    -0.362 C  
BRANCH  11  12
HETATM   12  C   UNL     1     -11.004  11.620  67.681  1.00  0.00    -0.294 C  
BRANCH  12  13
HETATM   13  C   UNL     1     -10.737  10.153  67.324  1.00  0.00    -0.316 C  
HETATM   14  C   UNL     1     -10.025   9.945  65.981  1.00  0.00    -0.268 C  
HETATM   15  C   UNL     1      -9.496   8.523  66.093  1.00  0.00    -0.286 C  
HETATM   16  O   UNL     1      -8.913  10.826  65.830  1.00  0.00    -0.175 OA 
HETATM   17  C   UNL     1      -8.945   8.468  67.518  1.00  0.00    -0.135 C  
HETATM   18  H   UNL     1      -8.472  10.696  64.998  1.00  0.00     0.000 HD 
HETATM   19  C   UNL     1      -9.823   9.437  68.353  1.00  0.00    -0.177 C  
HETATM   20  O   UNL     1      -7.588   8.916  67.526  1.00  0.00    -0.091 OA 
HETATM   21  H   UNL     1      -7.245   8.882  68.411  1.00  0.00     0.000 HD 
BRANCH  19  22
HETATM   22  C   UNL     1     -10.574   8.719  69.457  1.00  0.00    -0.224 C  
HETATM   23  C   UNL     1     -10.750   9.192  70.705  1.00  0.00    -0.327 C  
BRANCH  23  24
HETATM   24  C   UNL     1     -11.602   8.537  71.766  1.00  0.00    -0.312 C  
HETATM   25  F   UNL     1     -12.655   7.899  71.184  1.00  0.00    -0.314 F  
HETATM   26  F   UNL     1     -12.130   9.495  72.575  1.00  0.00    -0.298 F  
BRANCH  24  27
HETATM   27  C   UNL     1     -10.799   7.535  72.611  1.00  0.00    -0.315 C  
BRANCH  27  28
HETATM   28  O   UNL     1     -11.431   6.246  72.610  1.00  0.00    -0.267 OA 
BRANCH  28  29
HETATM   29  C   UNL     1     -10.728   5.249  71.988  1.00  0.00    -0.196 A  
HETATM   30  C   UNL     1     -10.434   5.472  70.641  1.00  0.00    -0.342 A  
HETATM   31  C   UNL     1      -9.719   4.523  69.907  1.00  0.00    -0.288 A  
HETATM   32  C   UNL     1      -9.281   3.353  70.523  1.00  0.00    -0.212 A  
HETATM   33  C   UNL     1      -9.553   3.134  71.872  1.00  0.00    -0.222 A  
HETATM   34  C   UNL     1     -10.274   4.081  72.606  1.00  0.00    -0.232 A  
ENDBRANCH  28  29
ENDBRANCH  27  28
ENDBRANCH  24  27
ENDBRANCH  23  24
ENDBRANCH  19  22
ENDBRANCH  12  13
ENDBRANCH  11  12
ENDBRANCH   9  10
ENDBRANCH   8   9
ENDBRANCH   7   8
ENDBRANCH   5   7
ENDBRANCH   4   5
ENDBRANCH   2   4
TORSDOF 13
ENDMDL
MODEL      145
REMARK 921   NORMALIZED FREE ENERGY PREDICTED BY IDOCK:   -4.81 KCAL/MOL
REMARK 922        TOTAL FREE ENERGY PREDICTED BY IDOCK:  -11.30 KCAL/MOL
REMARK 923 INTER-LIGAND FREE ENERGY PREDICTED BY IDOCK:   -8.69 KCAL/MOL
REMARK 924 INTRA-LIGAND FREE ENERGY PREDICTED BY IDOCK:   -2.62 KCAL/MOL
REMARK 927      BINDING AFFINITY PREDICTED BY RF-SCORE:    0.00 PKD
ROOT
HETATM    1  C   UNL     1     -10.827   6.965  69.100  1.00  0.00    -0.262 C  
HETATM    2  C   UNL     1      -9.439   7.447  69.510  1.00  0.00    -0.155 C  
HETATM    3  C   UNL     1      -8.377   6.899  68.565  1.00  0.00    -0.121 C  
ENDROOT
BRANCH   2   4
HETATM    4  O   UNL     1      -9.390   8.882  69.434  1.00  0.00    -0.150 OA 
BRANCH   4   5
HETATM    5  C   UNL     1      -8.675   9.496  70.418  1.00  0.00    -0.223 C  
HETATM    6  O   UNL     1      -8.843   9.340  71.619  1.00  0.00    -0.312 OA 
BRANCH   5   7
HETATM    7  C   UNL     1      -7.673  10.444  69.813  1.00  0.00    -0.126 C  
BRANCH   7   8
HETATM    8  C   UNL     1      -8.286  11.203  68.639  1.00  0.00    -0.154 C  
BRANCH   8   9
HETATM    9  C   UNL     1      -7.294  12.223  68.085  1.00  0.00    -0.105 C  
BRANCH   9  10
HETATM   10  C   UNL     1      -6.468  12.851  69.170  1.00  0.00    -0.108 C  
HETATM   11  C   UNL     1      -5.929  14.080  69.137  1.00  0.00    -0.091 C  
BRANCH  11  12
HETATM   12  C   UNL     1      -6.042  15.072  68.010  1.00  0.00    -0.161 C  
BRANCH  12  13
HETATM   13  C   UNL     1      -7.055  16.172  68.347  1.00  0.00    -0.130 C  
HETATM   14  C   UNL     1      -6.487  17.597  68.299  1.00  0.00    -0.188 C  
HETATM   15  C   UNL     1      -7.737  18.459  68.215  1.00  0.00    -0.308 C  
HETATM   16  O   UNL     1      -5.711  17.816  67.122  1.00  0.00    -0.128 OA 
HETATM   17  C   UNL     1      -8.607  17.712  67.204  1.00  0.00    -0.227 C  
HETATM   18  H   UNL     1      -5.359  18.699  67.092  1.00  0.00     0.000 HD 
HETATM   19  C   UNL     1      -8.257  16.209  67.366  1.00  0.00    -0.185 C  
HETATM   20  O   UNL     1      -8.286  18.143  65.880  1.00  0.00    -0.513 OA 
HETATM   21  H   UNL     1      -8.827  17.679  65.252  1.00  0.00     0.000 HD 
BRANCH  19  22
HETATM   22  C   UNL     1      -9.450  15.389  67.815  1.00  0.00    -0.204 C  
HETATM   23  C   UNL     1     -10.131  14.526  67.037  1.00  0.00    -0.254 C  
BRANCH  23  24
HETATM   24  C   UNL     1     -11.238  13.619  67.516  1.00  0.00    -0.294 C  
HETATM   25  F   UNL     1     -11.063  12.368  67.007  1.00  0.00    -0.257 F  
HETATM   26  F   UNL     1     -12.429  14.069  67.037  1.00  0.00    -0.445 F  
BRANCH  24  27
HETATM   27  C   UNL     1     -11.296  13.543  69.051  1.00  0.00    -0.288 C  
BRANCH  27  28
HETATM   28  O   UNL     1     -12.522  14.104  69.543  1.00  0.00    -0.298 OA 
BRANCH  28  29
HETATM   29  C   UNL     1     -12.486  14.547  70.838  1.00  0.00    -0.345 A  
HETATM   30  C   UNL     1     -11.778  15.732  71.049  1.00  0.00    -0.462 A  
HETATM   31  C   UNL     1     -11.679  16.277  72.330  1.00  0.00    -0.512 A  
HETATM   32  C   UNL     1     -12.300  15.647  73.406  1.00  0.00    -0.633 A  
HETATM   33  C   UNL     1     -13.026  14.475  73.198  1.00  0.00    -0.577 A  
HETATM   34  C   UNL     1     -13.122  13.925  71.916  1.00  0.00    -0.469 A  
ENDBRANCH  28  29
ENDBRANCH  27  28
ENDBRANCH  24  27
ENDBRANCH  23  24
ENDBRANCH  19  22
ENDBRANCH  12  13
ENDBRANCH  11  12
ENDBRANCH   9  10
ENDBRANCH   8   9
ENDBRANCH   7   8
ENDBRANCH   5   7
ENDBRANCH   4   5
ENDBRANCH   2   4
TORSDOF 13
ENDMDL
MODEL      146
REMARK 921   NORMALIZED FREE ENERGY PREDICTED BY IDOCK:   -4.81 KCAL/MOL
REMARK 922        TOTAL FREE ENERGY PREDICTED BY IDOCK:  -11.30 KCAL/MOL
REMARK 923 INTER-LIGAND FREE ENERGY PREDICTED BY IDOCK:   -9.81 KCAL/MOL
REMARK 924 INTRA-LIGAND FREE ENERGY PREDICTED BY IDOCK:   -1.49 KCAL/MOL
REMARK 927      BINDING AFFINITY PREDICTED BY RF-SCORE:    0.00 PKD
ROOT
HETATM    1  C   UNL     1     -10.725  19.476  67.216  1.00  0.00    -0.604 C  
HETATM    2  C   UNL     1      -9.430  19.613  66.421  1.00  0.00    -0.395 C  
HETATM    3  C   UNL     1      -8.301  20.118  67.311  1.00  0.00    -0.394 C  
ENDROOT
BRANCH   2   4
HETATM    4  O   UNL     1      -9.041  18.324  65.915  1.00  0.00    -0.503 OA 
BRANCH   4   5
HETATM    5  C   UNL     1      -9.611  17.254  66.537  1.00  0.00    -0.273 C  
HETATM    6  O   UNL     1      -9.391  16.904  67.688  1.00  0.00    -0.230 OA 
BRANCH   5   7
HETATM    7  C   UNL     1     -10.520  16.525  65.584  1.00  0.00    -0.341 C  
BRANCH   7   8
HETATM    8  C   UNL     1     -10.458  15.018  65.823  1.00  0.00    -0.353 C  
BRANCH   8   9
HETATM    9  C   UNL     1     -11.801  14.502  66.333  1.00  0.00    -0.361 C  
BRANCH   9  10
HETATM   10  C   UNL     1     -12.037  13.071  65.948  1.00  0.00    -0.503 C  
HETATM   11  C   UNL     1     -11.607  11.993  66.622  1.00  0.00    -0.389 C  
BRANCH  11  12
HETATM   12  C   UNL     1     -10.802  12.001  67.895  1.00  0.00    -0.254 C  
BRANCH  12  13
HETATM   13  C   UNL     1      -9.400  11.427  67.662  1.00  0.00    -0.159 C  
HETATM   14  C   UNL     1      -8.288  12.481  67.574  1.00  0.00    -0.175 C  
HETATM   15  C   UNL     1      -7.026  11.663  67.800  1.00  0.00    -0.084 C  
HETATM   16  O   UNL     1      -8.391  13.445  68.620  1.00  0.00    -0.293 OA 
HETATM   17  C   UNL     1      -7.414  10.735  68.952  1.00  0.00    -0.116 C  
HETATM   18  H   UNL     1      -7.702  14.098  68.566  1.00  0.00     0.000 HD 
HETATM   19  C   UNL     1      -8.937  10.480  68.800  1.00  0.00    -0.166 C  
HETATM   20  O   UNL     1      -7.154  11.382  70.199  1.00  0.00    -0.429 OA 
HETATM   21  H   UNL     1      -7.395  10.805  70.915  1.00  0.00     0.000 HD 
BRANCH  19  22
HETATM   22  C   UNL     1      -9.249   9.017  68.556  1.00  0.00    -0.136 C  
HETATM   23  C   UNL     1     -10.174   8.559  67.691  1.00  0.00    -0.297 C  
BRANCH  23  24
HETATM   24  C   UNL     1     -10.399   7.104  67.356  1.00  0.00    -0.254 C  
HETATM   25  F   UNL     1      -9.517   6.709  66.397  1.00  0.00    -0.177 F  
HETATM   26  F   UNL     1     -11.643   6.950  66.826  1.00  0.00    -0.354 F  
BRANCH  24  27
HETATM   27  C   UNL     1     -10.251   6.200  68.591  1.00  0.00    -0.181 C  
BRANCH  27  28
HETATM   28  O   UNL     1     -11.470   6.167  69.348  1.00  0.00    -0.423 OA 
BRANCH  28  29
HETATM   29  C   UNL     1     -11.383   6.660  70.622  1.00  0.00    -0.347 A  
HETATM   30  C   UNL     1     -10.761   5.822  71.549  1.00  0.00    -0.319 A  
HETATM   31  C   UNL     1     -10.614   6.224  72.879  1.00  0.00    -0.257 A  
HETATM   32  C   UNL     1     -11.076   7.474  73.283  1.00  0.00    -0.294 A  
HETATM   33  C   UNL     1     -11.680   8.324  72.357  1.00  0.00    -0.463 A  
HETATM   34  C   UNL     1     -11.832   7.920  71.027  1.00  0.00    -0.285 A  
ENDBRANCH  28  29
ENDBRANCH  27  28
ENDBRANCH  24  27
ENDBRANCH  23  24
ENDBRANCH  19  22
ENDBRANCH  12  13
ENDBRANCH  11  12
ENDBRANCH   9  10
ENDBRANCH   8   9
ENDBRANCH   7   8
ENDBRANCH   5   7
ENDBRANCH   4   5
ENDBRANCH   2   4
TORSDOF 13
ENDMDL
MODEL      147
REMARK 921   NORMALIZED FREE ENERGY PREDICTED BY IDOCK:   -4.80 KCAL/MOL
REMARK 922        TOTAL FREE ENERGY PREDICTED BY IDOCK:  -11.29 KCAL/MOL
REMARK 923 INTER-LIGAND FREE ENERGY PREDICTED BY IDOCK:   -9.33 KCAL/MOL
REMARK 924 INTRA-LIGAND FREE ENERGY PREDICTED BY IDOCK:   -1.95 KCAL/MOL
REMARK 927      BINDING AFFINITY PREDICTED BY RF-SCORE:    0.00 PKD
ROOT
HETATM    1  C   UNL     1      -7.375   3.877  65.970  1.00  0.00    -0.072 C  
HETATM    2  C   UNL     1      -8.183   5.102  66.383  1.00  0.00    -0.108 C  
HETATM    3  C   UNL     1      -9.585   5.052  65.787  1.00  0.00    -0.162 C  
ENDROOT
BRANCH   2   4
HETATM    4  O   UNL     1      -8.321   5.123  67.815  1.00  0.00    -0.105 OA 
BRANCH   4   5
HETATM    5  C   UNL     1      -9.368   4.409  68.313  1.00  0.00    -0.147 C  
HETATM    6  O   UNL     1      -9.543   3.208  68.163  1.00  0.00    -0.180 OA 
BRANCH   5   7
HETATM    7  C   UNL     1     -10.318   5.324  69.041  1.00  0.00    -0.246 C  
BRANCH   7   8
HETATM    8  C   UNL     1      -9.552   6.411  69.791  1.00  0.00    -0.163 C  
BRANCH   8   9
HETATM    9  C   UNL     1      -9.263   5.969  71.224  1.00  0.00    -0.156 C  
BRANCH   9  10
HETATM   10  C   UNL     1     -10.477   5.389  71.889  1.00  0.00    -0.283 C  
HETATM   11  C   UNL     1     -11.393   6.075  72.592  1.00  0.00    -0.320 C  
BRANCH  11  12
HETATM   12  C   UNL     1     -11.387   7.558  72.854  1.00  0.00    -0.355 C  
BRANCH  12  13
HETATM   13  C   UNL     1     -12.185   8.308  71.782  1.00  0.00    -0.367 C  
HETATM   14  C   UNL     1     -13.680   8.463  72.093  1.00  0.00    -0.333 C  
HETATM   15  C   UNL     1     -14.108   9.581  71.156  1.00  0.00     0.083 C  
HETATM   16  O   UNL     1     -13.898   8.894  73.435  1.00  0.00    -1.192 OA 
HETATM   17  C   UNL     1     -12.969  10.593  71.277  1.00  0.00    -0.414 C  
HETATM   18  H   UNL     1     -14.824   8.989  73.627  1.00  0.00     0.000 HD 
HETATM   19  C   UNL     1     -11.690   9.763  71.566  1.00  0.00    -0.450 C  
HETATM   20  O   UNL     1     -13.226  11.480  72.367  1.00  0.00    -0.531 OA 
HETATM   21  H   UNL     1     -12.518  12.109  72.442  1.00  0.00     0.000 HD 
BRANCH  19  22
HETATM   22  C   UNL     1     -10.653   9.910  70.470  1.00  0.00    -0.359 C  
HETATM   23  C   UNL     1     -10.872   9.672  69.163  1.00  0.00    -0.212 C  
BRANCH  23  24
HETATM   24  C   UNL     1      -9.878   9.937  68.058  1.00  0.00    -0.147 C  
HETATM   25  F   UNL     1     -10.369   9.475  66.875  1.00  0.00    -0.268 F  
HETATM   26  F   UNL     1      -8.736   9.240  68.302  1.00  0.00    -0.125 F  
BRANCH  24  27
HETATM   27  C   UNL     1      -9.550  11.433  67.926  1.00  0.00    -0.177 C  
BRANCH  27  28
HETATM   28  O   UNL     1     -10.747  12.224  67.967  1.00  0.00    -0.205 OA 
BRANCH  28  29
HETATM   29  C   UNL     1     -11.168  12.713  66.760  1.00  0.00    -0.300 A  
HETATM   30  C   UNL     1     -12.245  13.600  66.815  1.00  0.00    -0.416 A  
HETATM   31  C   UNL     1     -12.757  14.163  65.644  1.00  0.00    -0.469 A  
HETATM   32  C   UNL     1     -12.183  13.853  64.413  1.00  0.00    -0.449 A  
HETATM   33  C   UNL     1     -11.093  12.985  64.355  1.00  0.00    -0.400 A  
HETATM   34  C   UNL     1     -10.584  12.416  65.526  1.00  0.00    -0.307 A  
ENDBRANCH  28  29
ENDBRANCH  27  28
ENDBRANCH  24  27
ENDBRANCH  23  24
ENDBRANCH  19  22
ENDBRANCH  12  13
ENDBRANCH  11  12
ENDBRANCH   9  10
ENDBRANCH   8   9
ENDBRANCH   7   8
ENDBRANCH   5   7
ENDBRANCH   4   5
ENDBRANCH   2   4
TORSDOF 13
ENDMDL
MODEL      148
REMARK 921   NORMALIZED FREE ENERGY PREDICTED BY IDOCK:   -4.79 KCAL/MOL
REMARK 922        TOTAL FREE ENERGY PREDICTED BY IDOCK:  -11.27 KCAL/MOL
REMARK 923 INTER-LIGAND FREE ENERGY PREDICTED BY IDOCK:   -8.75 KCAL/MOL
REMARK 924 INTRA-LIGAND FREE ENERGY PREDICTED BY IDOCK:   -2.52 KCAL/MOL
REMARK 927      BINDING AFFINITY PREDICTED BY RF-SCORE:    0.00 PKD
ROOT
HETATM    1  C   UNL     1     -10.735  19.154  66.639  1.00  0.00    -0.467 C  
HETATM    2  C   UNL     1      -9.952  18.037  65.956  1.00  0.00    -0.216 C  
HETATM    3  C   UNL     1      -8.574  17.880  66.588  1.00  0.00    -0.283 C  
ENDROOT
BRANCH   2   4
HETATM    4  O   UNL     1     -10.652  16.792  66.123  1.00  0.00    -0.294 OA 
BRANCH   4   5
HETATM    5  C   UNL     1     -10.996  16.155  64.969  1.00  0.00    -0.344 C  
HETATM    6  O   UNL     1     -11.521  16.681  63.998  1.00  0.00    -1.192 OA 
BRANCH   5   7
HETATM    7  C   UNL     1     -10.682  14.686  65.077  1.00  0.00    -0.448 C  
BRANCH   7   8
HETATM    8  C   UNL     1     -10.459  14.286  66.534  1.00  0.00    -0.287 C  
BRANCH   8   9
HETATM    9  C   UNL     1     -11.772  13.842  67.174  1.00  0.00    -0.419 C  
BRANCH   9  10
HETATM   10  C   UNL     1     -11.762  14.026  68.663  1.00  0.00    -0.389 C  
HETATM   11  C   UNL     1     -11.963  13.062  69.576  1.00  0.00    -0.350 C  
BRANCH  11  12
HETATM   12  C   UNL     1     -12.240  11.609  69.292  1.00  0.00    -0.228 C  
BRANCH  12  13
HETATM   13  C   UNL     1     -11.143  10.716  69.884  1.00  0.00    -0.364 C  
HETATM   14  C   UNL     1     -11.600   9.844  71.061  1.00  0.00    -0.389 C  
HETATM   15  C   UNL     1     -10.512   8.784  71.140  1.00  0.00    -0.315 C  
HETATM   16  O   UNL     1     -12.840   9.195  70.788  1.00  0.00    -0.508 OA 
HETATM   17  C   UNL     1     -10.279   8.415  69.676  1.00  0.00    -0.209 C  
HETATM   18  H   UNL     1     -13.122   8.655  71.518  1.00  0.00     0.000 HD 
HETATM   19  C   UNL     1     -10.571   9.700  68.859  1.00  0.00    -0.239 C  
HETATM   20  O   UNL     1     -11.185   7.380  69.290  1.00  0.00    -0.445 OA 
HETATM   21  H   UNL     1     -11.040   7.150  68.380  1.00  0.00     0.000 HD 
BRANCH  19  22
HETATM   22  C   UNL     1      -9.348  10.194  68.112  1.00  0.00    -0.140 C  
HETATM   23  C   UNL     1      -9.180  10.129  66.777  1.00  0.00    -0.174 C  
BRANCH  23  24
HETATM   24  C   UNL     1      -8.020  10.732  66.022  1.00  0.00    -0.154 C  
HETATM   25  F   UNL     1      -8.430  11.848  65.359  1.00  0.00     0.164 F  
HETATM   26  F   UNL     1      -7.593   9.853  65.075  1.00  0.00    -0.110 F  
BRANCH  24  27
HETATM   27  C   UNL     1      -6.851  11.091  66.954  1.00  0.00    -0.121 C  
BRANCH  27  28
HETATM   28  O   UNL     1      -6.820  12.502  67.213  1.00  0.00    -0.151 OA 
BRANCH  28  29
HETATM   29  C   UNL     1      -6.443  12.858  68.479  1.00  0.00    -0.083 A  
HETATM   30  C   UNL     1      -6.295  11.802  69.381  1.00  0.00    -0.114 A  
HETATM   31  C   UNL     1      -5.910  12.048  70.701  1.00  0.00    -0.064 A  
HETATM   32  C   UNL     1      -5.656  13.352  71.121  1.00  0.00    -0.192 A  
HETATM   33  C   UNL     1      -5.781  14.408  70.219  1.00  0.00    -0.134 A  
HETATM   34  C   UNL     1      -6.172  14.163  68.900  1.00  0.00    -0.087 A  
ENDBRANCH  28  29
ENDBRANCH  27  28
ENDBRANCH  24  27
ENDBRANCH  23  24
ENDBRANCH  19  22
ENDBRANCH  12  13
ENDBRANCH  11  12
ENDBRANCH   9  10
ENDBRANCH   8   9
ENDBRANCH   7   8
ENDBRANCH   5   7
ENDBRANCH   4   5
ENDBRANCH   2   4
TORSDOF 13
ENDMDL
MODEL      149
REMARK 921   NORMALIZED FREE ENERGY PREDICTED BY IDOCK:   -4.79 KCAL/MOL
REMARK 922        TOTAL FREE ENERGY PREDICTED BY IDOCK:  -11.27 KCAL/MOL
REMARK 923 INTER-LIGAND FREE ENERGY PREDICTED BY IDOCK:   -9.00 KCAL/MOL
REMARK 924 INTRA-LIGAND FREE ENERGY PREDICTED BY IDOCK:   -2.27 KCAL/MOL
REMARK 927      BINDING AFFINITY PREDICTED BY RF-SCORE:    0.00 PKD
ROOT
HETATM    1  C   UNL     1      -7.102  12.368  68.237  1.00  0.00    -0.098 C  
HETATM    2  C   UNL     1      -5.766  12.347  68.972  1.00  0.00    -0.067 C  
HETATM    3  C   UNL     1      -5.861  13.110  70.288  1.00  0.00    -0.156 C  
ENDROOT
BRANCH   2   4
HETATM    4  O   UNL     1      -5.413  10.988  69.282  1.00  0.00    -0.041 OA 
BRANCH   4   5
HETATM    5  C   UNL     1      -6.451  10.179  69.634  1.00  0.00    -0.062 C  
HETATM    6  O   UNL     1      -7.060  10.228  70.693  1.00  0.00    -0.322 OA 
BRANCH   5   7
HETATM    7  C   UNL     1      -6.713   9.172  68.546  1.00  0.00    -0.059 C  
BRANCH   7   8
HETATM    8  C   UNL     1      -8.198   8.819  68.482  1.00  0.00    -0.117 C  
BRANCH   8   9
HETATM    9  C   UNL     1      -8.534   8.164  67.144  1.00  0.00    -0.124 C  
BRANCH   9  10
HETATM   10  C   UNL     1      -9.924   8.499  66.688  1.00  0.00    -0.363 C  
HETATM   11  C   UNL     1     -10.265   9.519  65.885  1.00  0.00    -0.185 C  
BRANCH  11  12
HETATM   12  C   UNL     1      -9.325  10.531  65.283  1.00  0.00    -0.258 C  
BRANCH  12  13
HETATM   13  C   UNL     1      -9.993  11.907  65.181  1.00  0.00    -0.276 C  
HETATM   14  C   UNL     1     -10.372  12.326  63.754  1.00  0.00    -0.435 C  
HETATM   15  C   UNL     1     -11.377  13.444  63.985  1.00  0.00    -0.356 C  
HETATM   16  O   UNL     1     -11.027  11.272  63.051  1.00  0.00    -0.804 OA 
HETATM   17  C   UNL     1     -12.250  12.901  65.115  1.00  0.00    -0.470 C  
HETATM   18  H   UNL     1     -11.263  11.532  62.168  1.00  0.00     0.000 HD 
HETATM   19  C   UNL     1     -11.327  11.993  65.969  1.00  0.00    -0.398 C  
HETATM   20  O   UNL     1     -13.319  12.126  64.568  1.00  0.00    -0.691 OA 
HETATM   21  H   UNL     1     -13.861  11.788  65.271  1.00  0.00     0.000 HD 
BRANCH  19  22
HETATM   22  C   UNL     1     -11.177  12.503  67.389  1.00  0.00    -0.344 C  
HETATM   23  C   UNL     1     -12.028  13.351  67.998  1.00  0.00    -0.357 C  
BRANCH  23  24
HETATM   24  C   UNL     1     -11.948  13.761  69.449  1.00  0.00    -0.347 C  
HETATM   25  F   UNL     1     -11.786  12.659  70.232  1.00  0.00    -0.372 F  
HETATM   26  F   UNL     1     -13.126  14.331  69.822  1.00  0.00    -0.180 F  
BRANCH  24  27
HETATM   27  C   UNL     1     -10.796  14.746  69.706  1.00  0.00    -0.198 C  
BRANCH  27  28
HETATM   28  O   UNL     1     -11.094  16.036  69.152  1.00  0.00    -0.273 OA 
BRANCH  28  29
HETATM   29  C   UNL     1     -10.272  16.442  68.136  1.00  0.00    -0.262 A  
HETATM   30  C   UNL     1      -9.200  15.593  67.854  1.00  0.00    -0.190 A  
HETATM   31  C   UNL     1      -8.299  15.906  66.835  1.00  0.00    -0.281 A  
HETATM   32  C   UNL     1      -8.475  17.064  66.081  1.00  0.00    -0.262 A  
HETATM   33  C   UNL     1      -9.556  17.905  66.343  1.00  0.00    -0.294 A  
HETATM   34  C   UNL     1     -10.455  17.595  67.367  1.00  0.00    -0.356 A  
ENDBRANCH  28  29
ENDBRANCH  27  28
ENDBRANCH  24  27
ENDBRANCH  23  24
ENDBRANCH  19  22
ENDBRANCH  12  13
ENDBRANCH  11  12
ENDBRANCH   9  10
ENDBRANCH   8   9
ENDBRANCH   7   8
ENDBRANCH   5   7
ENDBRANCH   4   5
ENDBRANCH   2   4
TORSDOF 13
ENDMDL
MODEL      150
REMARK 921   NORMALIZED FREE ENERGY PREDICTED BY IDOCK:   -4.79 KCAL/MOL
REMARK 922        TOTAL FREE ENERGY PREDICTED BY IDOCK:  -11.27 KCAL/MOL
REMARK 923 INTER-LIGAND FREE ENERGY PREDICTED BY IDOCK:   -9.63 KCAL/MOL
REMARK 924 INTRA-LIGAND FREE ENERGY PREDICTED BY IDOCK:   -1.64 KCAL/MOL
REMARK 927      BINDING AFFINITY PREDICTED BY RF-SCORE:    0.00 PKD
ROOT
HETATM    1  C   UNL     1      -5.649  19.065  65.872  1.00  0.00    -0.182 C  
HETATM    2  C   UNL     1      -6.868  19.377  66.734  1.00  0.00    -0.197 C  
HETATM    3  C   UNL     1      -8.049  19.799  65.868  1.00  0.00    -0.263 C  
ENDROOT
BRANCH   2   4
HETATM    4  O   UNL     1      -7.259  18.194  67.454  1.00  0.00    -0.196 OA 
BRANCH   4   5
HETATM    5  C   UNL     1      -8.323  18.343  68.291  1.00  0.00    -0.303 C  
HETATM    6  O   UNL     1      -8.528  19.309  69.013  1.00  0.00    -0.334 OA 
BRANCH   5   7
HETATM    7  C   UNL     1      -9.196  17.116  68.241  1.00  0.00    -0.262 C  
BRANCH   7   8
HETATM    8  C   UNL     1     -10.448  17.377  67.406  1.00  0.00    -0.336 C  
BRANCH   8   9
HETATM    9  C   UNL     1     -10.283  16.801  66.002  1.00  0.00    -0.361 C  
BRANCH   9  10
HETATM   10  C   UNL     1      -9.498  15.522  66.007  1.00  0.00    -0.387 C  
HETATM   11  C   UNL     1      -9.988  14.298  66.257  1.00  0.00    -0.319 C  
BRANCH  11  12
HETATM   12  C   UNL     1     -11.420  13.961  66.583  1.00  0.00    -0.370 C  
BRANCH  12  13
HETATM   13  C   UNL     1     -11.893  12.743  65.782  1.00  0.00    -0.484 C  
HETATM   14  C   UNL     1     -12.710  13.083  64.529  1.00  0.00    -0.249 C  
HETATM   15  C   UNL     1     -12.648  11.794  63.723  1.00  0.00    -0.413 C  
HETATM   16  O   UNL     1     -12.097  14.119  63.764  1.00  0.00    -0.739 OA 
HETATM   17  C   UNL     1     -11.187  11.368  63.859  1.00  0.00    -0.280 C  
HETATM   18  H   UNL     1     -12.604  14.329  62.988  1.00  0.00     0.000 HD 
HETATM   19  C   UNL     1     -10.720  11.877  65.248  1.00  0.00    -0.331 C  
HETATM   20  O   UNL     1     -10.408  11.984  62.832  1.00  0.00    -0.566 OA 
HETATM   21  H   UNL     1      -9.500  11.719  62.916  1.00  0.00     0.000 HD 
BRANCH  19  22
HETATM   22  C   UNL     1     -10.318  10.741  66.168  1.00  0.00    -0.300 C  
HETATM   23  C   UNL     1     -10.529  10.713  67.498  1.00  0.00    -0.272 C  
BRANCH  23  24
HETATM   24  C   UNL     1     -10.242   9.531  68.393  1.00  0.00    -0.194 C  
HETATM   25  F   UNL     1     -11.281   9.340  69.253  1.00  0.00    -0.199 F  
HETATM   26  F   UNL     1      -9.151   9.801  69.159  1.00  0.00    -0.134 F  
BRANCH  24  27
HETATM   27  C   UNL     1     -10.000   8.244  67.588  1.00  0.00    -0.190 C  
BRANCH  27  28
HETATM   28  O   UNL     1     -10.995   7.256  67.893  1.00  0.00    -0.144 OA 
BRANCH  28  29
HETATM   29  C   UNL     1     -10.563   6.204  68.654  1.00  0.00    -0.270 A  
HETATM   30  C   UNL     1      -9.907   5.188  67.957  1.00  0.00    -0.199 A  
HETATM   31  C   UNL     1      -9.420   4.066  68.632  1.00  0.00    -0.220 A  
HETATM   32  C   UNL     1      -9.575   3.964  70.013  1.00  0.00    -0.269 A  
HETATM   33  C   UNL     1     -10.210   4.986  70.718  1.00  0.00    -0.299 A  
HETATM   34  C   UNL     1     -10.703   6.105  70.041  1.00  0.00    -0.370 A  
ENDBRANCH  28  29
ENDBRANCH  27  28
ENDBRANCH  24  27
ENDBRANCH  23  24
ENDBRANCH  19  22
ENDBRANCH  12  13
ENDBRANCH  11  12
ENDBRANCH   9  10
ENDBRANCH   8   9
ENDBRANCH   7   8
ENDBRANCH   5   7
ENDBRANCH   4   5
ENDBRANCH   2   4
TORSDOF 13
ENDMDL
MODEL      151
REMARK 921   NORMALIZED FREE ENERGY PREDICTED BY IDOCK:   -4.79 KCAL/MOL
REMARK 922        TOTAL FREE ENERGY PREDICTED BY IDOCK:  -11.27 KCAL/MOL
REMARK 923 INTER-LIGAND FREE ENERGY PREDICTED BY IDOCK:   -9.74 KCAL/MOL
REMARK 924 INTRA-LIGAND FREE ENERGY PREDICTED BY IDOCK:   -1.53 KCAL/MOL
REMARK 927      BINDING AFFINITY PREDICTED BY RF-SCORE:    0.00 PKD
ROOT
HETATM    1  C   UNL     1      -5.503   8.197  63.694  1.00  0.00    -0.053 C  
HETATM    2  C   UNL     1      -5.437   7.977  65.201  1.00  0.00    -0.036 C  
HETATM    3  C   UNL     1      -5.546   9.302  65.946  1.00  0.00    -0.045 C  
ENDROOT
BRANCH   2   4
HETATM    4  O   UNL     1      -6.544   7.156  65.612  1.00  0.00    -0.049 OA 
BRANCH   4   5
HETATM    5  C   UNL     1      -7.712   7.818  65.842  1.00  0.00    -0.094 C  
HETATM    6  O   UNL     1      -8.345   8.449  65.006  1.00  0.00    -0.155 OA 
BRANCH   5   7
HETATM    7  C   UNL     1      -8.093   7.707  67.294  1.00  0.00    -0.119 C  
BRANCH   7   8
HETATM    8  C   UNL     1      -9.467   8.325  67.542  1.00  0.00    -0.182 C  
BRANCH   8   9
HETATM    9  C   UNL     1     -10.486   7.243  67.889  1.00  0.00    -0.267 C  
BRANCH   9  10
HETATM   10  C   UNL     1      -9.915   6.210  68.817  1.00  0.00    -0.175 C  
HETATM   11  C   UNL     1      -9.841   6.307  70.154  1.00  0.00    -0.201 C  
BRANCH  11  12
HETATM   12  C   UNL     1     -10.312   7.468  70.990  1.00  0.00    -0.204 C  
BRANCH  12  13
HETATM   13  C   UNL     1     -11.804   7.738  70.763  1.00  0.00    -0.205 C  
HETATM   14  C   UNL     1     -12.743   6.738  71.452  1.00  0.00    -0.263 C  
HETATM   15  C   UNL     1     -14.076   7.470  71.453  1.00  0.00    -0.496 C  
HETATM   16  O   UNL     1     -12.361   6.500  72.805  1.00  0.00    -0.397 OA 
HETATM   17  C   UNL     1     -13.691   8.894  71.853  1.00  0.00    -0.439 C  
HETATM   18  H   UNL     1     -12.943   5.881  73.231  1.00  0.00     0.000 HD 
HETATM   19  C   UNL     1     -12.258   9.120  71.304  1.00  0.00    -0.395 C  
HETATM   20  O   UNL     1     -13.687   9.010  73.277  1.00  0.00    -1.072 OA 
HETATM   21  H   UNL     1     -13.449   9.895  73.526  1.00  0.00     0.000 HD 
BRANCH  19  22
HETATM   22  C   UNL     1     -12.208  10.235  70.278  1.00  0.00    -0.298 C  
HETATM   23  C   UNL     1     -11.086  10.692  69.689  1.00  0.00    -0.342 C  
BRANCH  23  24
HETATM   24  C   UNL     1     -11.049  11.714  68.579  1.00  0.00    -0.235 C  
HETATM   25  F   UNL     1     -11.434  11.138  67.407  1.00  0.00    -0.343 F  
HETATM   26  F   UNL     1      -9.768  12.138  68.399  1.00  0.00    -0.196 F  
BRANCH  24  27
HETATM   27  C   UNL     1     -11.953  12.921  68.877  1.00  0.00    -0.250 C  
BRANCH  27  28
HETATM   28  O   UNL     1     -11.264  13.887  69.685  1.00  0.00    -0.226 OA 
BRANCH  28  29
HETATM   29  C   UNL     1     -11.912  14.260  70.832  1.00  0.00    -0.320 A  
HETATM   30  C   UNL     1     -11.674  15.568  71.258  1.00  0.00    -0.457 A  
HETATM   31  C   UNL     1     -12.285  16.058  72.415  1.00  0.00    -0.603 A  
HETATM   32  C   UNL     1     -13.149  15.244  73.143  1.00  0.00    -0.627 A  
HETATM   33  C   UNL     1     -13.407  13.943  72.711  1.00  0.00    -0.567 A  
HETATM   34  C   UNL     1     -12.792  13.451  71.557  1.00  0.00    -0.427 A  
ENDBRANCH  28  29
ENDBRANCH  27  28
ENDBRANCH  24  27
ENDBRANCH  23  24
ENDBRANCH  19  22
ENDBRANCH  12  13
ENDBRANCH  11  12
ENDBRANCH   9  10
ENDBRANCH   8   9
ENDBRANCH   7   8
ENDBRANCH   5   7
ENDBRANCH   4   5
ENDBRANCH   2   4
TORSDOF 13
ENDMDL
MODEL      152
REMARK 921   NORMALIZED FREE ENERGY PREDICTED BY IDOCK:   -4.77 KCAL/MOL
REMARK 922        TOTAL FREE ENERGY PREDICTED BY IDOCK:  -11.23 KCAL/MOL
REMARK 923 INTER-LIGAND FREE ENERGY PREDICTED BY IDOCK:   -9.37 KCAL/MOL
REMARK 924 INTRA-LIGAND FREE ENERGY PREDICTED BY IDOCK:   -1.85 KCAL/MOL
REMARK 927      BINDING AFFINITY PREDICTED BY RF-SCORE:    0.00 PKD
ROOT
HETATM    1  C   UNL     1     -10.344  17.817  68.630  1.00  0.00    -0.351 C  
HETATM    2  C   UNL     1      -9.823  18.780  67.569  1.00  0.00    -0.320 C  
HETATM    3  C   UNL     1     -10.943  19.678  67.058  1.00  0.00    -0.412 C  
ENDROOT
BRANCH   2   4
HETATM    4  O   UNL     1      -8.815  19.629  68.147  1.00  0.00    -0.318 OA 
BRANCH   4   5
HETATM    5  C   UNL     1      -7.812  20.004  67.304  1.00  0.00    -0.298 C  
HETATM    6  O   UNL     1      -7.308  21.117  67.253  1.00  0.00    -0.430 OA 
BRANCH   5   7
HETATM    7  C   UNL     1      -7.442  18.858  66.400  1.00  0.00    -0.274 C  
BRANCH   7   8
HETATM    8  C   UNL     1      -6.790  17.729  67.197  1.00  0.00    -0.196 C  
BRANCH   8   9
HETATM    9  C   UNL     1      -6.959  16.396  66.472  1.00  0.00    -0.004 C  
BRANCH   9  10
HETATM   10  C   UNL     1      -7.583  15.353  67.351  1.00  0.00    -0.233 C  
HETATM   11  C   UNL     1      -8.768  14.757  67.147  1.00  0.00    -0.241 C  
BRANCH  11  12
HETATM   12  C   UNL     1      -9.709  15.016  65.999  1.00  0.00    -0.359 C  
BRANCH  12  13
HETATM   13  C   UNL     1     -10.709  13.866  65.839  1.00  0.00    -0.286 C  
HETATM   14  C   UNL     1     -12.035  14.263  65.177  1.00  0.00    -0.395 C  
HETATM   15  C   UNL     1     -12.612  12.924  64.742  1.00  0.00    -0.493 C  
HETATM   16  O   UNL     1     -11.827  15.061  64.014  1.00  0.00    -0.775 OA 
HETATM   17  C   UNL     1     -11.401  12.197  64.159  1.00  0.00    -0.380 C  
HETATM   18  H   UNL     1     -12.648  15.307  63.604  1.00  0.00     0.000 HD 
HETATM   19  C   UNL     1     -10.170  12.714  64.949  1.00  0.00    -0.295 C  
HETATM   20  O   UNL     1     -11.261  12.526  62.775  1.00  0.00    -0.528 OA 
HETATM   21  H   UNL     1     -10.509  12.073  62.413  1.00  0.00     0.000 HD 
BRANCH  19  22
HETATM   22  C   UNL     1      -9.477  11.607  65.718  1.00  0.00    -0.244 C  
HETATM   23  C   UNL     1      -9.160  10.399  65.214  1.00  0.00    -0.227 C  
BRANCH  23  24
HETATM   24  C   UNL     1      -8.360   9.343  65.939  1.00  0.00    -0.120 C  
HETATM   25  F   UNL     1      -8.125   9.741  67.220  1.00  0.00    -0.112 F  
HETATM   26  F   UNL     1      -7.144   9.212  65.344  1.00  0.00    -0.078 F  
BRANCH  24  27
HETATM   27  C   UNL     1      -9.077   7.983  65.949  1.00  0.00    -0.106 C  
BRANCH  27  28
HETATM   28  O   UNL     1     -10.407   8.111  66.473  1.00  0.00    -0.273 OA 
BRANCH  28  29
HETATM   29  C   UNL     1     -10.585   7.635  67.744  1.00  0.00    -0.196 A  
HETATM   30  C   UNL     1     -10.797   6.258  67.845  1.00  0.00    -0.417 A  
HETATM   31  C   UNL     1     -10.988   5.662  69.094  1.00  0.00    -0.188 A  
HETATM   32  C   UNL     1     -10.951   6.439  70.249  1.00  0.00    -0.378 A  
HETATM   33  C   UNL     1     -10.718   7.810  70.156  1.00  0.00    -0.242 A  
HETATM   34  C   UNL     1     -10.533   8.409  68.907  1.00  0.00    -0.208 A  
ENDBRANCH  28  29
ENDBRANCH  27  28
ENDBRANCH  24  27
ENDBRANCH  23  24
ENDBRANCH  19  22
ENDBRANCH  12  13
ENDBRANCH  11  12
ENDBRANCH   9  10
ENDBRANCH   8   9
ENDBRANCH   7   8
ENDBRANCH   5   7
ENDBRANCH   4   5
ENDBRANCH   2   4
TORSDOF 13
ENDMDL
MODEL      153
REMARK 921   NORMALIZED FREE ENERGY PREDICTED BY IDOCK:   -4.74 KCAL/MOL
REMARK 922        TOTAL FREE ENERGY PREDICTED BY IDOCK:  -11.18 KCAL/MOL
REMARK 923 INTER-LIGAND FREE ENERGY PREDICTED BY IDOCK:   -8.67 KCAL/MOL
REMARK 924 INTRA-LIGAND FREE ENERGY PREDICTED BY IDOCK:   -2.51 KCAL/MOL
REMARK 927      BINDING AFFINITY PREDICTED BY RF-SCORE:    0.00 PKD
ROOT
HETATM    1  C   UNL     1     -11.007  11.925  63.707  1.00  0.00    -0.494 C  
HETATM    2  C   UNL     1      -9.928  10.848  63.692  1.00  0.00    -0.359 C  
HETATM    3  C   UNL     1      -9.181  10.849  62.364  1.00  0.00    -0.304 C  
ENDROOT
BRANCH   2   4
HETATM    4  O   UNL     1      -8.969  11.118  64.730  1.00  0.00    -0.141 OA 
BRANCH   4   5
HETATM    5  C   UNL     1      -8.525  10.027  65.416  1.00  0.00    -0.151 C  
HETATM    6  O   UNL     1      -7.358   9.790  65.691  1.00  0.00    -0.097 OA 
BRANCH   5   7
HETATM    7  C   UNL     1      -9.681   9.120  65.747  1.00  0.00    -0.299 C  
BRANCH   7   8
HETATM    8  C   UNL     1      -9.702   8.794  67.239  1.00  0.00    -0.238 C  
BRANCH   8   9
HETATM    9  C   UNL     1     -10.714   9.677  67.964  1.00  0.00    -0.284 C  
BRANCH   9  10
HETATM   10  C   UNL     1     -10.509   9.664  69.450  1.00  0.00    -0.236 C  
HETATM   11  C   UNL     1      -9.327   9.739  70.083  1.00  0.00    -0.261 C  
BRANCH  11  12
HETATM   12  C   UNL     1      -7.974   9.848  69.431  1.00  0.00    -0.135 C  
BRANCH  12  13
HETATM   13  C   UNL     1      -7.484  11.300  69.424  1.00  0.00     0.014 C  
HETATM   14  C   UNL     1      -5.957  11.457  69.423  1.00  0.00    -0.066 C  
HETATM   15  C   UNL     1      -5.763  12.895  68.966  1.00  0.00    -0.072 C  
HETATM   16  O   UNL     1      -5.339  10.595  68.469  1.00  0.00    -0.041 OA 
HETATM   17  C   UNL     1      -6.767  13.034  67.822  1.00  0.00    -0.143 C  
HETATM   18  H   UNL     1      -4.393  10.693  68.469  1.00  0.00     0.000 HD 
HETATM   19  C   UNL     1      -7.947  12.090  68.170  1.00  0.00    -0.152 C  
HETATM   20  O   UNL     1      -6.161  12.619  66.596  1.00  0.00    -0.417 OA 
HETATM   21  H   UNL     1      -6.785  12.707  65.885  1.00  0.00     0.000 HD 
BRANCH  19  22
HETATM   22  C   UNL     1      -9.248  12.845  68.358  1.00  0.00    -0.137 C  
HETATM   23  C   UNL     1      -9.994  13.358  67.361  1.00  0.00    -0.230 C  
BRANCH  23  24
HETATM   24  C   UNL     1     -11.349  13.999  67.537  1.00  0.00    -0.321 C  
HETATM   25  F   UNL     1     -12.027  13.378  68.542  1.00  0.00    -0.345 F  
HETATM   26  F   UNL     1     -12.083  13.819  66.406  1.00  0.00    -0.376 F  
BRANCH  24  27
HETATM   27  C   UNL     1     -11.239  15.501  67.846  1.00  0.00    -0.325 C  
BRANCH  27  28
HETATM   28  O   UNL     1     -10.658  16.208  66.740  1.00  0.00    -0.309 OA 
BRANCH  28  29
HETATM   29  C   UNL     1     -10.377  17.527  66.970  1.00  0.00    -0.324 A  
HETATM   30  C   UNL     1      -9.960  17.836  68.266  1.00  0.00    -0.355 A  
HETATM   31  C   UNL     1      -9.643  19.151  68.613  1.00  0.00    -0.471 A  
HETATM   32  C   UNL     1      -9.729  20.163  67.659  1.00  0.00    -0.551 A  
HETATM   33  C   UNL     1     -10.124  19.857  66.358  1.00  0.00    -0.615 A  
HETATM   34  C   UNL     1     -10.447  18.542  66.011  1.00  0.00    -0.433 A  
ENDBRANCH  28  29
ENDBRANCH  27  28
ENDBRANCH  24  27
ENDBRANCH  23  24
ENDBRANCH  19  22
ENDBRANCH  12  13
ENDBRANCH  11  12
ENDBRANCH   9  10
ENDBRANCH   8   9
ENDBRANCH   7   8
ENDBRANCH   5   7
ENDBRANCH   4   5
ENDBRANCH   2   4
TORSDOF 13
ENDMDL
MODEL      154
REMARK 921   NORMALIZED FREE ENERGY PREDICTED BY IDOCK:   -4.73 KCAL/MOL
REMARK 922        TOTAL FREE ENERGY PREDICTED BY IDOCK:  -11.16 KCAL/MOL
REMARK 923 INTER-LIGAND FREE ENERGY PREDICTED BY IDOCK:   -9.55 KCAL/MOL
REMARK 924 INTRA-LIGAND FREE ENERGY PREDICTED BY IDOCK:   -1.61 KCAL/MOL
REMARK 927      BINDING AFFINITY PREDICTED BY RF-SCORE:    0.00 PKD
ROOT
HETATM    1  C   UNL     1     -12.274  14.469  64.352  1.00  0.00    -0.480 C  
HETATM    2  C   UNL     1     -11.710  13.073  64.590  1.00  0.00    -0.361 C  
HETATM    3  C   UNL     1     -12.396  12.052  63.691  1.00  0.00    -0.648 C  
ENDROOT
BRANCH   2   4
HETATM    4  O   UNL     1     -10.308  13.063  64.269  1.00  0.00    -0.404 OA 
BRANCH   4   5
HETATM    5  C   UNL     1      -9.812  11.865  63.851  1.00  0.00    -0.259 C  
HETATM    6  O   UNL     1      -9.527  11.580  62.696  1.00  0.00    -0.327 OA 
BRANCH   5   7
HETATM    7  C   UNL     1      -9.709  10.914  65.013  1.00  0.00    -0.319 C  
BRANCH   7   8
HETATM    8  C   UNL     1      -8.663   9.835  64.739  1.00  0.00    -0.216 C  
BRANCH   8   9
HETATM    9  C   UNL     1      -7.349  10.176  65.438  1.00  0.00    -0.144 C  
BRANCH   9  10
HETATM   10  C   UNL     1      -6.431   8.991  65.518  1.00  0.00    -0.067 C  
HETATM   11  C   UNL     1      -6.477   8.021  66.444  1.00  0.00    -0.047 C  
BRANCH  11  12
HETATM   12  C   UNL     1      -7.454   7.925  67.586  1.00  0.00    -0.097 C  
BRANCH  12  13
HETATM   13  C   UNL     1      -8.845   7.521  67.085  1.00  0.00    -0.127 C  
HETATM   14  C   UNL     1      -8.988   6.034  66.734  1.00  0.00    -0.122 C  
HETATM   15  C   UNL     1     -10.496   5.831  66.720  1.00  0.00    -0.350 C  
HETATM   16  O   UNL     1      -8.433   5.196  67.746  1.00  0.00    -0.105 OA 
HETATM   17  C   UNL     1     -10.962   6.599  67.956  1.00  0.00    -0.249 C  
HETATM   18  H   UNL     1      -8.522   4.275  67.528  1.00  0.00     0.000 HD 
HETATM   19  C   UNL     1      -9.962   7.772  68.133  1.00  0.00    -0.207 C  
HETATM   20  O   UNL     1     -10.911   5.744  69.101  1.00  0.00    -0.320 OA 
HETATM   21  H   UNL     1     -11.202   6.221  69.869  1.00  0.00     0.000 HD 
BRANCH  19  22
HETATM   22  C   UNL     1     -10.639   9.123  68.008  1.00  0.00    -0.253 C  
HETATM   23  C   UNL     1     -10.407  10.179  68.810  1.00  0.00    -0.211 C  
BRANCH  23  24
HETATM   24  C   UNL     1     -10.986  11.559  68.609  1.00  0.00    -0.223 C  
HETATM   25  F   UNL     1     -11.829  11.557  67.541  1.00  0.00    -0.353 F  
HETATM   26  F   UNL     1      -9.983  12.429  68.309  1.00  0.00    -0.200 F  
BRANCH  24  27
HETATM   27  C   UNL     1     -11.739  12.054  69.855  1.00  0.00    -0.299 C  
BRANCH  27  28
HETATM   28  O   UNL     1     -12.250  13.379  69.649  1.00  0.00    -0.291 OA 
BRANCH  28  29
HETATM   29  C   UNL     1     -12.503  14.093  70.789  1.00  0.00    -0.366 A  
HETATM   30  C   UNL     1     -11.808  15.299  70.910  1.00  0.00    -0.387 A  
HETATM   31  C   UNL     1     -11.991  16.111  72.031  1.00  0.00    -0.607 A  
HETATM   32  C   UNL     1     -12.883  15.728  73.031  1.00  0.00    -0.608 A  
HETATM   33  C   UNL     1     -13.595  14.536  72.906  1.00  0.00    -0.439 A  
HETATM   34  C   UNL     1     -13.408  13.719  71.787  1.00  0.00    -0.463 A  
ENDBRANCH  28  29
ENDBRANCH  27  28
ENDBRANCH  24  27
ENDBRANCH  23  24
ENDBRANCH  19  22
ENDBRANCH  12  13
ENDBRANCH  11  12
ENDBRANCH   9  10
ENDBRANCH   8   9
ENDBRANCH   7   8
ENDBRANCH   5   7
ENDBRANCH   4   5
ENDBRANCH   2   4
TORSDOF 13
ENDMDL
MODEL      155
REMARK 921   NORMALIZED FREE ENERGY PREDICTED BY IDOCK:   -4.71 KCAL/MOL
REMARK 922        TOTAL FREE ENERGY PREDICTED BY IDOCK:  -11.13 KCAL/MOL
REMARK 923 INTER-LIGAND FREE ENERGY PREDICTED BY IDOCK:   -9.22 KCAL/MOL
REMARK 924 INTRA-LIGAND FREE ENERGY PREDICTED BY IDOCK:   -1.91 KCAL/MOL
REMARK 927      BINDING AFFINITY PREDICTED BY RF-SCORE:    0.00 PKD
ROOT
HETATM    1  C   UNL     1     -12.502  11.892  70.990  1.00  0.00    -0.390 C  
HETATM    2  C   UNL     1     -12.560  13.370  70.616  1.00  0.00    -0.253 C  
HETATM    3  C   UNL     1     -12.509  14.244  71.863  1.00  0.00    -0.364 C  
ENDROOT
BRANCH   2   4
HETATM    4  O   UNL     1     -11.421  13.702  69.804  1.00  0.00    -0.251 OA 
BRANCH   4   5
HETATM    5  C   UNL     1     -11.705  14.309  68.618  1.00  0.00    -0.345 C  
HETATM    6  O   UNL     1     -11.803  15.516  68.444  1.00  0.00    -0.351 OA 
BRANCH   5   7
HETATM    7  C   UNL     1     -11.933  13.273  67.549  1.00  0.00    -0.371 C  
BRANCH   7   8
HETATM    8  C   UNL     1     -12.787  13.843  66.418  1.00  0.00     0.034 C  
BRANCH   8   9
HETATM    9  C   UNL     1     -11.902  14.471  65.345  1.00  0.00    -0.344 C  
BRANCH   9  10
HETATM   10  C   UNL     1     -11.980  13.727  64.044  1.00  0.00    -0.451 C  
HETATM   11  C   UNL     1     -11.228  12.673  63.693  1.00  0.00    -0.525 C  
BRANCH  11  12
HETATM   12  C   UNL     1     -10.155  12.026  64.530  1.00  0.00    -0.293 C  
BRANCH  12  13
HETATM   13  C   UNL     1      -9.834  10.617  64.018  1.00  0.00    -0.399 C  
HETATM   14  C   UNL     1      -9.313  10.568  62.576  1.00  0.00    -0.290 C  
HETATM   15  C   UNL     1      -8.669   9.192  62.495  1.00  0.00    -0.213 C  
HETATM   16  O   UNL     1      -8.304  11.549  62.345  1.00  0.00    -0.619 OA 
HETATM   17  C   UNL     1      -7.913   9.083  63.819  1.00  0.00    -0.147 C  
HETATM   18  H   UNL     1      -7.981  11.518  61.452  1.00  0.00     0.000 HD 
HETATM   19  C   UNL     1      -8.729   9.910  64.846  1.00  0.00    -0.198 C  
HETATM   20  O   UNL     1      -6.607   9.644  63.675  1.00  0.00    -0.101 OA 
HETATM   21  H   UNL     1      -6.136   9.575  64.497  1.00  0.00     0.000 HD 
BRANCH  19  22
HETATM   22  C   UNL     1      -9.256   9.053  65.981  1.00  0.00    -0.284 C  
HETATM   23  C   UNL     1      -9.414   9.468  67.252  1.00  0.00    -0.170 C  
BRANCH  23  24
HETATM   24  C   UNL     1     -10.054   8.656  68.352  1.00  0.00    -0.191 C  
HETATM   25  F   UNL     1     -11.240   9.219  68.712  1.00  0.00    -0.145 F  
HETATM   26  F   UNL     1      -9.260   8.688  69.457  1.00  0.00    -0.144 F  
BRANCH  24  27
HETATM   27  C   UNL     1     -10.287   7.196  67.929  1.00  0.00    -0.198 C  
BRANCH  27  28
HETATM   28  O   UNL     1     -11.365   6.615  68.677  1.00  0.00    -0.201 OA 
BRANCH  28  29
HETATM   29  C   UNL     1     -11.037   6.166  69.928  1.00  0.00    -0.410 A  
HETATM   30  C   UNL     1     -11.864   6.611  70.962  1.00  0.00    -0.427 A  
HETATM   31  C   UNL     1     -11.624   6.214  72.279  1.00  0.00    -0.362 A  
HETATM   32  C   UNL     1     -10.563   5.357  72.566  1.00  0.00    -0.277 A  
HETATM   33  C   UNL     1      -9.747   4.893  71.535  1.00  0.00    -0.233 A  
HETATM   34  C   UNL     1      -9.983   5.295  70.217  1.00  0.00    -0.310 A  
ENDBRANCH  28  29
ENDBRANCH  27  28
ENDBRANCH  24  27
ENDBRANCH  23  24
ENDBRANCH  19  22
ENDBRANCH  12  13
ENDBRANCH  11  12
ENDBRANCH   9  10
ENDBRANCH   8   9
ENDBRANCH   7   8
ENDBRANCH   5   7
ENDBRANCH   4   5
ENDBRANCH   2   4
TORSDOF 13
ENDMDL
MODEL      156
REMARK 921   NORMALIZED FREE ENERGY PREDICTED BY IDOCK:   -4.68 KCAL/MOL
REMARK 922        TOTAL FREE ENERGY PREDICTED BY IDOCK:  -11.08 KCAL/MOL
REMARK 923 INTER-LIGAND FREE ENERGY PREDICTED BY IDOCK:   -8.72 KCAL/MOL
REMARK 924 INTRA-LIGAND FREE ENERGY PREDICTED BY IDOCK:   -2.36 KCAL/MOL
REMARK 927      BINDING AFFINITY PREDICTED BY RF-SCORE:    0.00 PKD
ROOT
HETATM    1  C   UNL     1      -9.233   8.480  72.109  1.00  0.00    -0.336 C  
HETATM    2  C   UNL     1     -10.178   8.202  70.945  1.00  0.00    -0.189 C  
HETATM    3  C   UNL     1     -11.583   8.699  71.258  1.00  0.00    -0.340 C  
ENDROOT
BRANCH   2   4
HETATM    4  O   UNL     1      -9.718   8.907  69.778  1.00  0.00    -0.168 OA 
BRANCH   4   5
HETATM    5  C   UNL     1     -10.245   8.487  68.594  1.00  0.00    -0.197 C  
HETATM    6  O   UNL     1     -10.503   7.327  68.305  1.00  0.00    -0.198 OA 
BRANCH   5   7
HETATM    7  C   UNL     1     -10.421   9.657  67.663  1.00  0.00    -0.317 C  
BRANCH   7   8
HETATM    8  C   UNL     1     -10.018  10.960  68.350  1.00  0.00    -0.188 C  
BRANCH   8   9
HETATM    9  C   UNL     1      -8.755  11.532  67.711  1.00  0.00    -0.142 C  
BRANCH   9  10
HETATM   10  C   UNL     1      -7.781  12.029  68.739  1.00  0.00    -0.054 C  
HETATM   11  C   UNL     1      -7.024  13.133  68.637  1.00  0.00    -0.102 C  
BRANCH  11  12
HETATM   12  C   UNL     1      -6.997  14.090  67.475  1.00  0.00    -0.167 C  
BRANCH  12  13
HETATM   13  C   UNL     1      -7.730  15.392  67.819  1.00  0.00    -0.160 C  
HETATM   14  C   UNL     1      -6.816  16.530  68.292  1.00  0.00    -0.142 C  
HETATM   15  C   UNL     1      -7.693  17.762  68.121  1.00  0.00    -0.254 C  
HETATM   16  O   UNL     1      -5.672  16.673  67.453  1.00  0.00    -0.129 OA 
HETATM   17  C   UNL     1      -8.355  17.532  66.763  1.00  0.00    -0.251 C  
HETATM   18  H   UNL     1      -5.107  17.379  67.746  1.00  0.00     0.000 HD 
HETATM   19  C   UNL     1      -8.492  15.995  66.609  1.00  0.00    -0.323 C  
HETATM   20  O   UNL     1      -7.518  18.049  65.726  1.00  0.00    -0.514 OA 
HETATM   21  H   UNL     1      -7.930  17.906  64.882  1.00  0.00     0.000 HD 
BRANCH  19  22
HETATM   22  C   UNL     1      -9.941  15.558  66.508  1.00  0.00    -0.283 C  
HETATM   23  C   UNL     1     -10.388  14.310  66.743  1.00  0.00    -0.274 C  
BRANCH  23  24
HETATM   24  C   UNL     1     -11.842  13.903  66.764  1.00  0.00    -0.424 C  
HETATM   25  F   UNL     1     -11.953  12.568  66.519  1.00  0.00    -0.430 F  
HETATM   26  F   UNL     1     -12.502  14.537  65.757  1.00  0.00    -0.376 F  
BRANCH  24  27
HETATM   27  C   UNL     1     -12.513  14.235  68.107  1.00  0.00     0.250 C  
BRANCH  27  28
HETATM   28  O   UNL     1     -11.610  14.006  69.199  1.00  0.00    -0.269 OA 
BRANCH  28  29
HETATM   29  C   UNL     1     -12.015  14.501  70.409  1.00  0.00    -0.318 A  
HETATM   30  C   UNL     1     -13.222  13.993  70.893  1.00  0.00    -0.245 A  
HETATM   31  C   UNL     1     -13.731  14.425  72.119  1.00  0.00    -0.557 A  
HETATM   32  C   UNL     1     -13.025  15.358  72.875  1.00  0.00    -0.577 A  
HETATM   33  C   UNL     1     -11.809  15.854  72.408  1.00  0.00    -0.618 A  
HETATM   34  C   UNL     1     -11.302  15.426  71.177  1.00  0.00    -0.427 A  
ENDBRANCH  28  29
ENDBRANCH  27  28
ENDBRANCH  24  27
ENDBRANCH  23  24
ENDBRANCH  19  22
ENDBRANCH  12  13
ENDBRANCH  11  12
ENDBRANCH   9  10
ENDBRANCH   8   9
ENDBRANCH   7   8
ENDBRANCH   5   7
ENDBRANCH   4   5
ENDBRANCH   2   4
TORSDOF 13
ENDMDL
MODEL      157
REMARK 921   NORMALIZED FREE ENERGY PREDICTED BY IDOCK:   -4.66 KCAL/MOL
REMARK 922        TOTAL FREE ENERGY PREDICTED BY IDOCK:  -11.04 KCAL/MOL
REMARK 923 INTER-LIGAND FREE ENERGY PREDICTED BY IDOCK:   -8.54 KCAL/MOL
REMARK 924 INTRA-LIGAND FREE ENERGY PREDICTED BY IDOCK:   -2.51 KCAL/MOL
REMARK 927      BINDING AFFINITY PREDICTED BY RF-SCORE:    0.00 PKD
ROOT
HETATM    1  C   UNL     1      -9.703  16.257  67.434  1.00  0.00    -0.234 C  
HETATM    2  C   UNL     1     -10.199  16.799  68.770  1.00  0.00    -0.299 C  
HETATM    3  C   UNL     1     -10.182  18.322  68.776  1.00  0.00    -0.342 C  
ENDROOT
BRANCH   2   4
HETATM    4  O   UNL     1     -11.558  16.379  68.981  1.00  0.00    -0.276 OA 
BRANCH   4   5
HETATM    5  C   UNL     1     -11.785  15.685  70.132  1.00  0.00    -0.360 C  
HETATM    6  O   UNL     1     -11.324  15.962  71.229  1.00  0.00    -0.379 OA 
BRANCH   5   7
HETATM    7  C   UNL     1     -12.652  14.487  69.849  1.00  0.00    -0.226 C  
BRANCH   7   8
HETATM    8  C   UNL     1     -11.827  13.202  69.882  1.00  0.00    -0.378 C  
BRANCH   8   9
HETATM    9  C   UNL     1     -10.993  13.070  68.610  1.00  0.00    -0.297 C  
BRANCH   9  10
HETATM   10  C   UNL     1     -11.850  12.908  67.390  1.00  0.00    -0.418 C  
HETATM   11  C   UNL     1     -11.432  12.493  66.183  1.00  0.00    -0.426 C  
BRANCH  11  12
HETATM   12  C   UNL     1     -10.023  12.110  65.812  1.00  0.00    -0.271 C  
BRANCH  12  13
HETATM   13  C   UNL     1      -9.897  10.593  65.633  1.00  0.00    -0.307 C  
HETATM   14  C   UNL     1      -9.144  10.162  64.367  1.00  0.00    -0.245 C  
HETATM   15  C   UNL     1      -8.778   8.716  64.665  1.00  0.00    -0.065 C  
HETATM   16  O   UNL     1      -7.939  10.903  64.191  1.00  0.00    -0.357 OA 
HETATM   17  C   UNL     1      -8.308   8.769  66.119  1.00  0.00    -0.123 C  
HETATM   18  H   UNL     1      -7.473  10.636  63.407  1.00  0.00     0.000 HD 
HETATM   19  C   UNL     1      -9.118   9.909  66.789  1.00  0.00    -0.164 C  
HETATM   20  O   UNL     1      -6.913   9.076  66.163  1.00  0.00    -0.082 OA 
HETATM   21  H   UNL     1      -6.621   9.108  67.066  1.00  0.00     0.000 HD 
BRANCH  19  22
HETATM   22  C   UNL     1      -9.997   9.401  67.915  1.00  0.00    -0.220 C  
HETATM   23  C   UNL     1      -9.912   9.798  69.199  1.00  0.00    -0.195 C  
BRANCH  23  24
HETATM   24  C   UNL     1     -10.866   9.387  70.294  1.00  0.00    -0.258 C  
HETATM   25  F   UNL     1     -12.086   9.954  70.082  1.00  0.00    -0.271 F  
HETATM   26  F   UNL     1     -10.418   9.868  71.486  1.00  0.00    -0.287 F  
BRANCH  24  27
HETATM   27  C   UNL     1     -11.020   7.860  70.381  1.00  0.00    -0.249 C  
BRANCH  27  28
HETATM   28  O   UNL     1     -11.726   7.485  71.572  1.00  0.00    -0.263 OA 
BRANCH  28  29
HETATM   29  C   UNL     1     -11.049   6.647  72.417  1.00  0.00    -0.259 A  
HETATM   30  C   UNL     1     -10.738   5.390  71.894  1.00  0.00    -0.275 A  
HETATM   31  C   UNL     1     -10.045   4.455  72.666  1.00  0.00    -0.229 A  
HETATM   32  C   UNL     1      -9.648   4.779  73.962  1.00  0.00    -0.137 A  
HETATM   33  C   UNL     1      -9.938   6.040  74.482  1.00  0.00    -0.321 A  
HETATM   34  C   UNL     1     -10.636   6.974  73.712  1.00  0.00    -0.325 A  
ENDBRANCH  28  29
ENDBRANCH  27  28
ENDBRANCH  24  27
ENDBRANCH  23  24
ENDBRANCH  19  22
ENDBRANCH  12  13
ENDBRANCH  11  12
ENDBRANCH   9  10
ENDBRANCH   8   9
ENDBRANCH   7   8
ENDBRANCH   5   7
ENDBRANCH   4   5
ENDBRANCH   2   4
TORSDOF 13
ENDMDL
MODEL      158
REMARK 921   NORMALIZED FREE ENERGY PREDICTED BY IDOCK:   -4.66 KCAL/MOL
REMARK 922        TOTAL FREE ENERGY PREDICTED BY IDOCK:  -11.04 KCAL/MOL
REMARK 923 INTER-LIGAND FREE ENERGY PREDICTED BY IDOCK:   -8.09 KCAL/MOL
REMARK 924 INTRA-LIGAND FREE ENERGY PREDICTED BY IDOCK:   -2.95 KCAL/MOL
REMARK 927      BINDING AFFINITY PREDICTED BY RF-SCORE:    0.00 PKD
ROOT
HETATM    1  C   UNL     1     -11.531  15.750  68.962  1.00  0.00    -0.394 C  
HETATM    2  C   UNL     1     -10.384  15.978  67.983  1.00  0.00    -0.266 C  
HETATM    3  C   UNL     1     -10.701  17.130  67.037  1.00  0.00    -0.149 C  
ENDROOT
BRANCH   2   4
HETATM    4  O   UNL     1      -9.196  16.331  68.714  1.00  0.00    -0.219 OA 
BRANCH   4   5
HETATM    5  C   UNL     1      -8.257  15.348  68.815  1.00  0.00    -0.172 C  
HETATM    6  O   UNL     1      -7.526  15.162  69.778  1.00  0.00    -0.203 OA 
BRANCH   5   7
HETATM    7  C   UNL     1      -8.211  14.546  67.542  1.00  0.00    -0.201 C  
BRANCH   7   8
HETATM    8  C   UNL     1      -6.896  13.776  67.436  1.00  0.00    -0.038 C  
BRANCH   8   9
HETATM    9  C   UNL     1      -7.157  12.271  67.431  1.00  0.00    -0.151 C  
BRANCH   9  10
HETATM   10  C   UNL     1      -7.377  11.734  68.815  1.00  0.00    -0.114 C  
HETATM   11  C   UNL     1      -8.209  10.735  69.149  1.00  0.00    -0.124 C  
BRANCH  11  12
HETATM   12  C   UNL     1      -9.087   9.955  68.206  1.00  0.00    -0.122 C  
BRANCH  12  13
HETATM   13  C   UNL     1     -10.557  10.364  68.359  1.00  0.00    -0.238 C  
HETATM   14  C   UNL     1     -11.242   9.817  69.618  1.00  0.00    -0.178 C  
HETATM   15  C   UNL     1     -12.468  10.707  69.751  1.00  0.00    -0.187 C  
HETATM   16  O   UNL     1     -10.431   9.992  70.778  1.00  0.00    -0.361 OA 
HETATM   17  C   UNL     1     -11.919  12.102  69.458  1.00  0.00    -0.275 C  
HETATM   18  H   UNL     1     -10.856   9.653  71.558  1.00  0.00     0.000 HD 
HETATM   19  C   UNL     1     -10.750  11.900  68.459  1.00  0.00    -0.254 C  
HETATM   20  O   UNL     1     -11.427  12.690  70.665  1.00  0.00    -0.303 OA 
HETATM   21  H   UNL     1     -11.086  13.557  70.482  1.00  0.00     0.000 HD 
BRANCH  19  22
HETATM   22  C   UNL     1     -11.010  12.581  67.129  1.00  0.00    -0.302 C  
HETATM   23  C   UNL     1     -11.809  12.099  66.159  1.00  0.00    -0.327 C  
BRANCH  23  24
HETATM   24  C   UNL     1     -12.167  12.835  64.890  1.00  0.00    -0.463 C  
HETATM   25  F   UNL     1     -12.558  14.105  65.185  1.00  0.00    -0.417 F  
HETATM   26  F   UNL     1     -13.234  12.228  64.303  1.00  0.00    -0.483 F  
BRANCH  24  27
HETATM   27  C   UNL     1     -10.992  12.878  63.899  1.00  0.00    -0.384 C  
BRANCH  27  28
HETATM   28  O   UNL     1     -10.827  11.611  63.247  1.00  0.00    -0.363 OA 
BRANCH  28  29
HETATM   29  C   UNL     1      -9.615  11.004  63.441  1.00  0.00    -0.333 A  
HETATM   30  C   UNL     1      -8.738  11.053  62.356  1.00  0.00    -0.356 A  
HETATM   31  C   UNL     1      -7.472  10.469  62.442  1.00  0.00    -0.168 A  
HETATM   32  C   UNL     1      -7.073   9.847  63.623  1.00  0.00    -0.121 A  
HETATM   33  C   UNL     1      -7.936   9.813  64.717  1.00  0.00    -0.138 A  
HETATM   34  C   UNL     1      -9.205  10.392  64.629  1.00  0.00    -0.282 A  
ENDBRANCH  28  29
ENDBRANCH  27  28
ENDBRANCH  24  27
ENDBRANCH  23  24
ENDBRANCH  19  22
ENDBRANCH  12  13
ENDBRANCH  11  12
ENDBRANCH   9  10
ENDBRANCH   8   9
ENDBRANCH   7   8
ENDBRANCH   5   7
ENDBRANCH   4   5
ENDBRANCH   2   4
TORSDOF 13
ENDMDL
MODEL      159
REMARK 921   NORMALIZED FREE ENERGY PREDICTED BY IDOCK:   -4.66 KCAL/MOL
REMARK 922        TOTAL FREE ENERGY PREDICTED BY IDOCK:  -11.03 KCAL/MOL
REMARK 923 INTER-LIGAND FREE ENERGY PREDICTED BY IDOCK:   -8.66 KCAL/MOL
REMARK 924 INTRA-LIGAND FREE ENERGY PREDICTED BY IDOCK:   -2.38 KCAL/MOL
REMARK 927      BINDING AFFINITY PREDICTED BY RF-SCORE:    0.00 PKD
ROOT
HETATM    1  C   UNL     1     -13.071  10.001  71.676  1.00  0.00    -0.547 C  
HETATM    2  C   UNL     1     -12.859   8.524  71.989  1.00  0.00    -0.374 C  
HETATM    3  C   UNL     1     -13.942   7.672  71.337  1.00  0.00    -0.447 C  
ENDROOT
BRANCH   2   4
HETATM    4  O   UNL     1     -11.592   8.099  71.455  1.00  0.00    -0.264 OA 
BRANCH   4   5
HETATM    5  C   UNL     1     -10.813   7.372  72.303  1.00  0.00    -0.247 C  
HETATM    6  O   UNL     1     -10.269   7.802  73.310  1.00  0.00    -0.317 OA 
BRANCH   5   7
HETATM    7  C   UNL     1     -10.673   5.962  71.795  1.00  0.00    -0.299 C  
BRANCH   7   8
HETATM    8  C   UNL     1      -9.567   5.873  70.745  1.00  0.00    -0.203 C  
BRANCH   8   9
HETATM    9  C   UNL     1     -10.102   5.252  69.457  1.00  0.00    -0.322 C  
BRANCH   9  10
HETATM   10  C   UNL     1     -11.157   6.106  68.816  1.00  0.00    -0.398 C  
HETATM   11  C   UNL     1     -11.124   6.592  67.565  1.00  0.00    -0.396 C  
BRANCH  11  12
HETATM   12  C   UNL     1     -10.025   6.380  66.556  1.00  0.00    -0.162 C  
BRANCH  12  13
HETATM   13  C   UNL     1      -8.872   7.364  66.786  1.00  0.00    -0.148 C  
HETATM   14  C   UNL     1      -7.481   6.717  66.818  1.00  0.00    -0.082 C  
HETATM   15  C   UNL     1      -6.551   7.901  66.599  1.00  0.00    -0.058 C  
HETATM   16  O   UNL     1      -7.300   5.800  65.741  1.00  0.00    -0.073 OA 
HETATM   17  C   UNL     1      -7.245   8.688  65.488  1.00  0.00    -0.084 C  
HETATM   18  H   UNL     1      -6.438   5.400  65.761  1.00  0.00     0.000 HD 
HETATM   19  C   UNL     1      -8.765   8.441  65.673  1.00  0.00    -0.204 C  
HETATM   20  O   UNL     1      -6.827   8.193  64.214  1.00  0.00    -0.064 OA 
HETATM   21  H   UNL     1      -7.258   8.682  63.523  1.00  0.00     0.000 HD 
BRANCH  19  22
HETATM   22  C   UNL     1      -9.520   9.721  65.974  1.00  0.00    -0.269 C  
HETATM   23  C   UNL     1      -9.886  10.131  67.203  1.00  0.00    -0.231 C  
BRANCH  23  24
HETATM   24  C   UNL     1     -10.526  11.462  67.515  1.00  0.00    -0.201 C  
HETATM   25  F   UNL     1     -11.528  11.713  66.627  1.00  0.00    -0.357 F  
HETATM   26  F   UNL     1      -9.608  12.453  67.353  1.00  0.00    -0.176 F  
BRANCH  24  27
HETATM   27  C   UNL     1     -11.087  11.510  68.946  1.00  0.00    -0.232 C  
BRANCH  27  28
HETATM   28  O   UNL     1     -12.273  12.316  69.002  1.00  0.00    -0.198 OA 
BRANCH  28  29
HETATM   29  C   UNL     1     -12.119  13.546  69.584  1.00  0.00    -0.306 A  
HETATM   30  C   UNL     1     -12.521  13.634  70.918  1.00  0.00    -0.448 A  
HETATM   31  C   UNL     1     -12.407  14.840  71.613  1.00  0.00    -0.409 A  
HETATM   32  C   UNL     1     -11.874  15.960  70.980  1.00  0.00    -0.468 A  
HETATM   33  C   UNL     1     -11.451  15.873  69.655  1.00  0.00    -0.346 A  
HETATM   34  C   UNL     1     -11.571  14.668  68.957  1.00  0.00    -0.328 A  
ENDBRANCH  28  29
ENDBRANCH  27  28
ENDBRANCH  24  27
ENDBRANCH  23  24
ENDBRANCH  19  22
ENDBRANCH  12  13
ENDBRANCH  11  12
ENDBRANCH   9  10
ENDBRANCH   8   9
ENDBRANCH   7   8
ENDBRANCH   5   7
ENDBRANCH   4   5
ENDBRANCH   2   4
TORSDOF 13
ENDMDL
MODEL      160
REMARK 921   NORMALIZED FREE ENERGY PREDICTED BY IDOCK:   -4.64 KCAL/MOL
REMARK 922        TOTAL FREE ENERGY PREDICTED BY IDOCK:  -11.01 KCAL/MOL
REMARK 923 INTER-LIGAND FREE ENERGY PREDICTED BY IDOCK:   -9.27 KCAL/MOL
REMARK 924 INTRA-LIGAND FREE ENERGY PREDICTED BY IDOCK:   -1.74 KCAL/MOL
REMARK 927      BINDING AFFINITY PREDICTED BY RF-SCORE:    0.00 PKD
ROOT
HETATM    1  C   UNL     1     -11.250  15.884  64.479  1.00  0.00    -0.324 C  
HETATM    2  C   UNL     1     -11.495  14.435  64.888  1.00  0.00    -0.386 C  
HETATM    3  C   UNL     1     -12.257  14.367  66.206  1.00  0.00    -0.366 C  
ENDROOT
BRANCH   2   4
HETATM    4  O   UNL     1     -12.298  13.786  63.887  1.00  0.00    -0.652 OA 
BRANCH   4   5
HETATM    5  C   UNL     1     -12.086  12.447  63.744  1.00  0.00    -0.529 C  
HETATM    6  O   UNL     1     -12.937  11.624  63.439  1.00  0.00    -0.495 OA 
BRANCH   5   7
HETATM    7  C   UNL     1     -10.654  12.114  64.066  1.00  0.00    -0.429 C  
BRANCH   7   8
HETATM    8  C   UNL     1     -10.504  10.629  64.391  1.00  0.00    -0.247 C  
BRANCH   8   9
HETATM    9  C   UNL     1      -9.613  10.437  65.616  1.00  0.00    -0.281 C  
BRANCH   9  10
HETATM   10  C   UNL     1      -9.708  11.594  66.567  1.00  0.00    -0.227 C  
HETATM   11  C   UNL     1      -9.906  11.509  67.892  1.00  0.00    -0.192 C  
BRANCH  11  12
HETATM   12  C   UNL     1     -10.074  10.242  68.689  1.00  0.00    -0.187 C  
BRANCH  12  13
HETATM   13  C   UNL     1     -10.719  10.530  70.049  1.00  0.00    -0.282 C  
HETATM   14  C   UNL     1     -12.021  11.338  69.978  1.00  0.00    -0.368 C  
HETATM   15  C   UNL     1     -12.652  11.087  71.339  1.00  0.00    -0.498 C  
HETATM   16  O   UNL     1     -12.902  10.833  68.976  1.00  0.00    -0.549 OA 
HETATM   17  C   UNL     1     -12.434   9.589  71.553  1.00  0.00    -0.376 C  
HETATM   18  H   UNL     1     -13.708  11.334  68.932  1.00  0.00     0.000 HD 
HETATM   19  C   UNL     1     -11.114   9.240  70.817  1.00  0.00    -0.349 C  
HETATM   20  O   UNL     1     -13.518   8.858  70.976  1.00  0.00    -0.548 OA 
HETATM   21  H   UNL     1     -13.382   7.927  71.109  1.00  0.00     0.000 HD 
BRANCH  19  22
HETATM   22  C   UNL     1     -10.047   8.731  71.767  1.00  0.00    -0.403 C  
HETATM   23  C   UNL     1      -9.792   7.433  72.016  1.00  0.00    -0.191 C  
BRANCH  23  24
HETATM   24  C   UNL     1      -8.651   6.925  72.864  1.00  0.00    -0.115 C  
HETATM   25  F   UNL     1      -9.134   6.152  73.876  1.00  0.00    -0.125 F  
HETATM   26  F   UNL     1      -8.019   7.978  73.449  1.00  0.00    -0.160 F  
BRANCH  24  27
HETATM   27  C   UNL     1      -7.639   6.112  72.039  1.00  0.00    -0.096 C  
BRANCH  27  28
HETATM   28  O   UNL     1      -7.830   4.704  72.239  1.00  0.00    -0.089 OA 
BRANCH  28  29
HETATM   29  C   UNL     1      -8.355   4.026  71.172  1.00  0.00    -0.072 A  
HETATM   30  C   UNL     1      -8.372   4.727  69.964  1.00  0.00    -0.072 A  
HETATM   31  C   UNL     1      -8.882   4.132  68.809  1.00  0.00    -0.143 A  
HETATM   32  C   UNL     1      -9.365   2.826  68.853  1.00  0.00    -0.220 A  
HETATM   33  C   UNL     1      -9.331   2.114  70.051  1.00  0.00    -0.172 A  
HETATM   34  C   UNL     1      -8.825   2.711  71.209  1.00  0.00    -0.130 A  
ENDBRANCH  28  29
ENDBRANCH  27  28
ENDBRANCH  24  27
ENDBRANCH  23  24
ENDBRANCH  19  22
ENDBRANCH  12  13
ENDBRANCH  11  12
ENDBRANCH   9  10
ENDBRANCH   8   9
ENDBRANCH   7   8
ENDBRANCH   5   7
ENDBRANCH   4   5
ENDBRANCH   2   4
TORSDOF 13
ENDMDL
MODEL      161
REMARK 921   NORMALIZED FREE ENERGY PREDICTED BY IDOCK:   -4.60 KCAL/MOL
REMARK 922        TOTAL FREE ENERGY PREDICTED BY IDOCK:  -10.93 KCAL/MOL
REMARK 923 INTER-LIGAND FREE ENERGY PREDICTED BY IDOCK:   -9.33 KCAL/MOL
REMARK 924 INTRA-LIGAND FREE ENERGY PREDICTED BY IDOCK:   -1.61 KCAL/MOL
REMARK 927      BINDING AFFINITY PREDICTED BY RF-SCORE:    0.00 PKD
ROOT
HETATM    1  C   UNL     1     -10.902   5.969  68.705  1.00  0.00    -0.379 C  
HETATM    2  C   UNL     1     -10.626   6.735  67.415  1.00  0.00    -0.302 C  
HETATM    3  C   UNL     1     -10.211   8.169  67.716  1.00  0.00    -0.288 C  
ENDROOT
BRANCH   2   4
HETATM    4  O   UNL     1      -9.541   6.107  66.709  1.00  0.00    -0.139 OA 
BRANCH   4   5
HETATM    5  C   UNL     1      -8.308   6.269  67.267  1.00  0.00    -0.109 C  
HETATM    6  O   UNL     1      -7.980   5.892  68.383  1.00  0.00    -0.103 OA 
BRANCH   5   7
HETATM    7  C   UNL     1      -7.412   7.031  66.327  1.00  0.00    -0.080 C  
BRANCH   7   8
HETATM    8  C   UNL     1      -7.791   6.751  64.874  1.00  0.00    -0.119 C  
BRANCH   8   9
HETATM    9  C   UNL     1      -8.023   8.059  64.121  1.00  0.00    -0.137 C  
BRANCH   9  10
HETATM   10  C   UNL     1      -7.811   9.258  64.997  1.00  0.00    -0.111 C  
HETATM   11  C   UNL     1      -8.650  10.298  65.126  1.00  0.00    -0.181 C  
BRANCH  11  12
HETATM   12  C   UNL     1      -9.969  10.470  64.418  1.00  0.00    -0.410 C  
BRANCH  12  13
HETATM   13  C   UNL     1     -10.371  11.948  64.361  1.00  0.00    -0.341 C  
HETATM   14  C   UNL     1     -11.276  12.316  63.178  1.00  0.00    -0.165 C  
HETATM   15  C   UNL     1     -11.868  13.651  63.605  1.00  0.00    -0.304 C  
HETATM   16  O   UNL     1     -12.342  11.383  63.018  1.00  0.00    -0.952 OA 
HETATM   17  C   UNL     1     -12.216  13.422  65.075  1.00  0.00    -0.424 C  
HETATM   18  H   UNL     1     -12.903  11.611  62.285  1.00  0.00     0.000 HD 
HETATM   19  C   UNL     1     -11.174  12.406  65.609  1.00  0.00    -0.360 C  
HETATM   20  O   UNL     1     -13.529  12.868  65.179  1.00  0.00    -0.461 OA 
HETATM   21  H   UNL     1     -13.746  12.726  66.093  1.00  0.00     0.000 HD 
BRANCH  19  22
HETATM   22  C   UNL     1     -10.319  12.991  66.716  1.00  0.00    -0.256 C  
HETATM   23  C   UNL     1      -9.446  14.004  66.564  1.00  0.00    -0.295 C  
BRANCH  23  24
HETATM   24  C   UNL     1      -8.688  14.669  67.688  1.00  0.00    -0.177 C  
HETATM   25  F   UNL     1      -7.973  13.738  68.377  1.00  0.00    -0.120 F  
HETATM   26  F   UNL     1      -9.573  15.209  68.570  1.00  0.00    -0.191 F  
BRANCH  24  27
HETATM   27  C   UNL     1      -7.741  15.765  67.174  1.00  0.00    -0.219 C  
BRANCH  27  28
HETATM   28  O   UNL     1      -8.371  16.545  66.147  1.00  0.00    -0.316 OA 
BRANCH  28  29
HETATM   29  C   UNL     1      -8.797  17.787  66.532  1.00  0.00    -0.262 A  
HETATM   30  C   UNL     1     -10.082  18.139  66.112  1.00  0.00    -0.338 A  
HETATM   31  C   UNL     1     -10.621  19.382  66.450  1.00  0.00    -0.558 A  
HETATM   32  C   UNL     1      -9.881  20.274  67.223  1.00  0.00    -0.593 A  
HETATM   33  C   UNL     1      -8.607  19.921  67.663  1.00  0.00    -0.385 A  
HETATM   34  C   UNL     1      -8.064  18.679  67.321  1.00  0.00    -0.249 A  
ENDBRANCH  28  29
ENDBRANCH  27  28
ENDBRANCH  24  27
ENDBRANCH  23  24
ENDBRANCH  19  22
ENDBRANCH  12  13
ENDBRANCH  11  12
ENDBRANCH   9  10
ENDBRANCH   8   9
ENDBRANCH   7   8
ENDBRANCH   5   7
ENDBRANCH   4   5
ENDBRANCH   2   4
TORSDOF 13
ENDMDL
MODEL      162
REMARK 921   NORMALIZED FREE ENERGY PREDICTED BY IDOCK:   -4.59 KCAL/MOL
REMARK 922        TOTAL FREE ENERGY PREDICTED BY IDOCK:  -10.92 KCAL/MOL
REMARK 923 INTER-LIGAND FREE ENERGY PREDICTED BY IDOCK:   -9.45 KCAL/MOL
REMARK 924 INTRA-LIGAND FREE ENERGY PREDICTED BY IDOCK:   -1.47 KCAL/MOL
REMARK 927      BINDING AFFINITY PREDICTED BY RF-SCORE:    0.00 PKD
ROOT
HETATM    1  C   UNL     1     -11.628  13.711  69.993  1.00  0.00    -0.250 C  
HETATM    2  C   UNL     1     -11.988  15.175  69.761  1.00  0.00    -0.334 C  
HETATM    3  C   UNL     1     -12.734  15.744  70.962  1.00  0.00    -0.453 C  
ENDROOT
BRANCH   2   4
HETATM    4  O   UNL     1     -10.784  15.943  69.594  1.00  0.00    -0.252 OA 
BRANCH   4   5
HETATM    5  C   UNL     1     -10.339  16.062  68.311  1.00  0.00    -0.261 C  
HETATM    6  O   UNL     1      -9.295  16.600  67.971  1.00  0.00    -0.221 OA 
BRANCH   5   7
HETATM    7  C   UNL     1     -11.347  15.478  67.358  1.00  0.00    -0.203 C  
BRANCH   7   8
HETATM    8  C   UNL     1     -10.854  15.584  65.917  1.00  0.00    -0.317 C  
BRANCH   8   9
HETATM    9  C   UNL     1     -10.142  14.299  65.500  1.00  0.00    -0.370 C  
BRANCH   9  10
HETATM   10  C   UNL     1     -11.096  13.282  64.945  1.00  0.00    -0.345 C  
HETATM   11  C   UNL     1     -11.608  12.236  65.612  1.00  0.00    -0.433 C  
BRANCH  11  12
HETATM   12  C   UNL     1     -11.329  11.871  67.046  1.00  0.00    -0.392 C  
BRANCH  12  13
HETATM   13  C   UNL     1     -11.058  10.369  67.188  1.00  0.00    -0.195 C  
HETATM   14  C   UNL     1     -10.282   9.750  66.018  1.00  0.00    -0.193 C  
HETATM   15  C   UNL     1      -9.773   8.441  66.604  1.00  0.00    -0.320 C  
HETATM   16  O   UNL     1      -9.156  10.545  65.651  1.00  0.00    -0.167 OA 
HETATM   17  C   UNL     1      -9.294   8.846  67.997  1.00  0.00    -0.142 C  
HETATM   18  H   UNL     1      -8.676  10.160  64.927  1.00  0.00     0.000 HD 
HETATM   19  C   UNL     1     -10.203  10.023  68.436  1.00  0.00    -0.196 C  
HETATM   20  O   UNL     1      -7.935   9.283  67.931  1.00  0.00    -0.099 OA 
HETATM   21  H   UNL     1      -7.637   9.534  68.797  1.00  0.00     0.000 HD 
BRANCH  19  22
HETATM   22  C   UNL     1     -11.016   9.689  69.672  1.00  0.00    -0.253 C  
HETATM   23  C   UNL     1     -12.100  10.368  70.090  1.00  0.00    -0.334 C  
BRANCH  23  24
HETATM   24  C   UNL     1     -12.981   9.962  71.247  1.00  0.00    -0.395 C  
HETATM   25  F   UNL     1     -14.251   9.741  70.806  1.00  0.00    -0.217 F  
HETATM   26  F   UNL     1     -13.055  10.987  72.139  1.00  0.00    -0.564 F  
BRANCH  24  27
HETATM   27  C   UNL     1     -12.458   8.701  71.954  1.00  0.00    -0.357 C  
BRANCH  27  28
HETATM   28  O   UNL     1     -12.815   7.520  71.221  1.00  0.00    -0.334 OA 
BRANCH  28  29
HETATM   29  C   UNL     1     -11.786   6.654  70.968  1.00  0.00    -0.372 A  
HETATM   30  C   UNL     1     -11.029   6.279  72.080  1.00  0.00    -0.299 A  
HETATM   31  C   UNL     1      -9.956   5.396  71.940  1.00  0.00    -0.233 A  
HETATM   32  C   UNL     1      -9.644   4.872  70.687  1.00  0.00    -0.254 A  
HETATM   33  C   UNL     1     -10.410   5.226  69.577  1.00  0.00    -0.333 A  
HETATM   34  C   UNL     1     -11.480   6.114  69.715  1.00  0.00    -0.362 A  
ENDBRANCH  28  29
ENDBRANCH  27  28
ENDBRANCH  24  27
ENDBRANCH  23  24
ENDBRANCH  19  22
ENDBRANCH  12  13
ENDBRANCH  11  12
ENDBRANCH   9  10
ENDBRANCH   8   9
ENDBRANCH   7   8
ENDBRANCH   5   7
ENDBRANCH   4   5
ENDBRANCH   2   4
TORSDOF 13
ENDMDL
MODEL      163
REMARK 921   NORMALIZED FREE ENERGY PREDICTED BY IDOCK:   -4.58 KCAL/MOL
REMARK 922        TOTAL FREE ENERGY PREDICTED BY IDOCK:  -10.89 KCAL/MOL
REMARK 923 INTER-LIGAND FREE ENERGY PREDICTED BY IDOCK:   -9.04 KCAL/MOL
REMARK 924 INTRA-LIGAND FREE ENERGY PREDICTED BY IDOCK:   -1.85 KCAL/MOL
REMARK 927      BINDING AFFINITY PREDICTED BY RF-SCORE:    0.00 PKD
ROOT
HETATM    1  C   UNL     1      -8.574  17.465  66.359  1.00  0.00    -0.282 C  
HETATM    2  C   UNL     1      -9.966  17.771  66.902  1.00  0.00    -0.332 C  
HETATM    3  C   UNL     1     -10.542  19.017  66.241  1.00  0.00    -0.493 C  
ENDROOT
BRANCH   2   4
HETATM    4  O   UNL     1     -10.847  16.674  66.603  1.00  0.00    -0.184 OA 
BRANCH   4   5
HETATM    5  C   UNL     1     -10.659  16.086  65.388  1.00  0.00    -0.408 C  
HETATM    6  O   UNL     1     -10.952  16.579  64.309  1.00  0.00    -0.848 OA 
BRANCH   5   7
HETATM    7  C   UNL     1     -10.079  14.707  65.566  1.00  0.00    -0.405 C  
BRANCH   7   8
HETATM    8  C   UNL     1     -11.175  13.700  65.906  1.00  0.00    -0.311 C  
BRANCH   8   9
HETATM    9  C   UNL     1     -10.750  12.823  67.081  1.00  0.00    -0.264 C  
BRANCH   9  10
HETATM   10  C   UNL     1     -11.454  13.201  68.351  1.00  0.00    -0.350 C  
HETATM   11  C   UNL     1     -11.740  12.375  69.369  1.00  0.00    -0.384 C  
BRANCH  11  12
HETATM   12  C   UNL     1     -11.414  10.906  69.443  1.00  0.00    -0.373 C  
BRANCH  12  13
HETATM   13  C   UNL     1     -11.594  10.376  70.870  1.00  0.00    -0.428 C  
HETATM   14  C   UNL     1     -13.053  10.279  71.334  1.00  0.00    -0.414 C  
HETATM   15  C   UNL     1     -12.968   9.340  72.528  1.00  0.00    -0.384 C  
HETATM   16  O   UNL     1     -13.883   9.673  70.344  1.00  0.00    -0.377 OA 
HETATM   17  C   UNL     1     -12.016   8.247  72.044  1.00  0.00    -0.348 C  
HETATM   18  H   UNL     1     -14.787   9.613  70.632  1.00  0.00     0.000 HD 
HETATM   19  C   UNL     1     -11.040   8.937  71.055  1.00  0.00    -0.340 C  
HETATM   20  O   UNL     1     -12.755   7.230  71.364  1.00  0.00    -0.362 OA 
HETATM   21  H   UNL     1     -12.162   6.551  71.064  1.00  0.00     0.000 HD 
BRANCH  19  22
HETATM   22  C   UNL     1      -9.604   8.882  71.536  1.00  0.00    -0.362 C  
HETATM   23  C   UNL     1      -8.762   7.850  71.335  1.00  0.00    -0.148 C  
BRANCH  23  24
HETATM   24  C   UNL     1      -7.298   7.846  71.703  1.00  0.00    -0.070 C  
HETATM   25  F   UNL     1      -6.850   6.564  71.801  1.00  0.00    -0.058 F  
HETATM   26  F   UNL     1      -7.141   8.405  72.933  1.00  0.00    -0.115 F  
BRANCH  24  27
HETATM   27  C   UNL     1      -6.444   8.610  70.678  1.00  0.00    -0.040 C  
BRANCH  27  28
HETATM   28  O   UNL     1      -6.362  10.001  71.018  1.00  0.00    -0.253 OA 
BRANCH  28  29
HETATM   29  C   UNL     1      -6.577  10.872  69.983  1.00  0.00    -0.151 A  
HETATM   30  C   UNL     1      -7.405  10.399  68.963  1.00  0.00    -0.097 A  
HETATM   31  C   UNL     1      -7.695  11.203  67.858  1.00  0.00    -0.105 A  
HETATM   32  C   UNL     1      -7.169  12.491  67.777  1.00  0.00    -0.125 A  
HETATM   33  C   UNL     1      -6.359  12.976  68.803  1.00  0.00    -0.084 A  
HETATM   34  C   UNL     1      -6.063  12.169  69.906  1.00  0.00    -0.146 A  
ENDBRANCH  28  29
ENDBRANCH  27  28
ENDBRANCH  24  27
ENDBRANCH  23  24
ENDBRANCH  19  22
ENDBRANCH  12  13
ENDBRANCH  11  12
ENDBRANCH   9  10
ENDBRANCH   8   9
ENDBRANCH   7   8
ENDBRANCH   5   7
ENDBRANCH   4   5
ENDBRANCH   2   4
TORSDOF 13
ENDMDL
MODEL      164
REMARK 921   NORMALIZED FREE ENERGY PREDICTED BY IDOCK:   -4.58 KCAL/MOL
REMARK 922        TOTAL FREE ENERGY PREDICTED BY IDOCK:  -10.89 KCAL/MOL
REMARK 923 INTER-LIGAND FREE ENERGY PREDICTED BY IDOCK:   -9.31 KCAL/MOL
REMARK 924 INTRA-LIGAND FREE ENERGY PREDICTED BY IDOCK:   -1.58 KCAL/MOL
REMARK 927      BINDING AFFINITY PREDICTED BY RF-SCORE:    0.00 PKD
ROOT
HETATM    1  C   UNL     1      -7.998   6.065  71.283  1.00  0.00    -0.113 C  
HETATM    2  C   UNL     1      -9.467   5.695  71.104  1.00  0.00    -0.158 C  
HETATM    3  C   UNL     1      -9.611   4.233  70.700  1.00  0.00    -0.260 C  
ENDROOT
BRANCH   2   4
HETATM    4  O   UNL     1     -10.159   5.871  72.352  1.00  0.00    -0.174 OA 
BRANCH   4   5
HETATM    5  C   UNL     1     -11.518   5.793  72.284  1.00  0.00    -0.262 C  
HETATM    6  O   UNL     1     -12.219   5.040  72.946  1.00  0.00    -0.088 OA 
BRANCH   5   7
HETATM    7  C   UNL     1     -12.038   6.738  71.233  1.00  0.00    -0.421 C  
BRANCH   7   8
HETATM    8  C   UNL     1     -13.079   7.685  71.825  1.00  0.00    -0.359 C  
BRANCH   8   9
HETATM    9  C   UNL     1     -12.454   9.046  72.124  1.00  0.00    -0.450 C  
BRANCH   9  10
HETATM   10  C   UNL     1     -12.681  10.026  71.009  1.00  0.00    -0.455 C  
HETATM   11  C   UNL     1     -11.750  10.473  70.152  1.00  0.00    -0.410 C  
BRANCH  11  12
HETATM   12  C   UNL     1     -10.295  10.085  70.136  1.00  0.00    -0.321 C  
BRANCH  12  13
HETATM   13  C   UNL     1      -9.701  10.242  68.732  1.00  0.00    -0.178 C  
HETATM   14  C   UNL     1      -8.602   9.228  68.388  1.00  0.00    -0.124 C  
HETATM   15  C   UNL     1      -8.529   9.307  66.871  1.00  0.00    -0.128 C  
HETATM   16  O   UNL     1      -8.977   7.900  68.751  1.00  0.00    -0.141 OA 
HETATM   17  C   UNL     1      -9.999   9.345  66.453  1.00  0.00    -0.276 C  
HETATM   18  H   UNL     1      -8.297   7.272  68.537  1.00  0.00     0.000 HD 
HETATM   19  C   UNL     1     -10.752  10.059  67.605  1.00  0.00    -0.340 C  
HETATM   20  O   UNL     1     -10.492   8.012  66.307  1.00  0.00    -0.385 OA 
HETATM   21  H   UNL     1     -11.406   8.035  66.046  1.00  0.00     0.000 HD 
BRANCH  19  22
HETATM   22  C   UNL     1     -11.404  11.350  67.148  1.00  0.00    -0.327 C  
HETATM   23  C   UNL     1     -11.151  11.971  65.981  1.00  0.00    -0.364 C  
BRANCH  23  24
HETATM   24  C   UNL     1     -11.889  13.185  65.471  1.00  0.00    -0.380 C  
HETATM   25  F   UNL     1     -12.563  13.780  66.493  1.00  0.00    -0.436 F  
HETATM   26  F   UNL     1     -12.827  12.796  64.565  1.00  0.00    -0.458 F  
BRANCH  24  27
HETATM   27  C   UNL     1     -10.939  14.205  64.822  1.00  0.00    -0.400 C  
BRANCH  27  28
HETATM   28  O   UNL     1     -10.749  15.341  65.677  1.00  0.00    -0.325 OA 
BRANCH  28  29
HETATM   29  C   UNL     1      -9.528  15.415  66.291  1.00  0.00    -0.309 A  
HETATM   30  C   UNL     1      -8.884  16.651  66.202  1.00  0.00    -0.323 A  
HETATM   31  C   UNL     1      -7.634  16.842  66.794  1.00  0.00    -0.280 A  
HETATM   32  C   UNL     1      -7.028  15.800  67.492  1.00  0.00    -0.216 A  
HETATM   33  C   UNL     1      -7.675  14.570  67.603  1.00  0.00    -0.194 A  
HETATM   34  C   UNL     1      -8.924  14.377  67.006  1.00  0.00    -0.257 A  
ENDBRANCH  28  29
ENDBRANCH  27  28
ENDBRANCH  24  27
ENDBRANCH  23  24
ENDBRANCH  19  22
ENDBRANCH  12  13
ENDBRANCH  11  12
ENDBRANCH   9  10
ENDBRANCH   8   9
ENDBRANCH   7   8
ENDBRANCH   5   7
ENDBRANCH   4   5
ENDBRANCH   2   4
TORSDOF 13
ENDMDL
MODEL      165
REMARK 921   NORMALIZED FREE ENERGY PREDICTED BY IDOCK:   -4.57 KCAL/MOL
REMARK 922        TOTAL FREE ENERGY PREDICTED BY IDOCK:  -10.88 KCAL/MOL
REMARK 923 INTER-LIGAND FREE ENERGY PREDICTED BY IDOCK:   -9.25 KCAL/MOL
REMARK 924 INTRA-LIGAND FREE ENERGY PREDICTED BY IDOCK:   -1.62 KCAL/MOL
REMARK 927      BINDING AFFINITY PREDICTED BY RF-SCORE:    0.00 PKD
ROOT
HETATM    1  C   UNL     1      -5.237   8.243  63.982  1.00  0.00    -0.041 C  
HETATM    2  C   UNL     1      -5.138   8.824  65.388  1.00  0.00    -0.033 C  
HETATM    3  C   UNL     1      -5.654  10.258  65.418  1.00  0.00    -0.098 C  
ENDROOT
BRANCH   2   4
HETATM    4  O   UNL     1      -5.955   8.050  66.284  1.00  0.00    -0.040 OA 
BRANCH   4   5
HETATM    5  C   UNL     1      -7.247   8.465  66.404  1.00  0.00    -0.072 C  
HETATM    6  O   UNL     1      -8.041   8.589  65.482  1.00  0.00    -0.112 OA 
BRANCH   5   7
HETATM    7  C   UNL     1      -7.550   8.801  67.841  1.00  0.00    -0.097 C  
BRANCH   7   8
HETATM    8  C   UNL     1      -8.907   9.490  67.960  1.00  0.00    -0.123 C  
BRANCH   8   9
HETATM    9  C   UNL     1      -9.968   8.502  68.439  1.00  0.00    -0.208 C  
BRANCH   9  10
HETATM   10  C   UNL     1      -9.373   7.382  69.241  1.00  0.00    -0.154 C  
HETATM   11  C   UNL     1      -9.511   7.201  70.563  1.00  0.00    -0.162 C  
BRANCH  11  12
HETATM   12  C   UNL     1     -10.287   8.082  71.507  1.00  0.00    -0.258 C  
BRANCH  12  13
HETATM   13  C   UNL     1     -11.762   8.160  71.097  1.00  0.00    -0.309 C  
HETATM   14  C   UNL     1     -12.605   6.949  71.517  1.00  0.00    -0.367 C  
HETATM   15  C   UNL     1     -14.029   7.471  71.408  1.00  0.00    -0.468 C  
HETATM   16  O   UNL     1     -12.364   6.582  72.874  1.00  0.00    -0.228 OA 
HETATM   17  C   UNL     1     -13.936   8.866  72.026  1.00  0.00    -0.437 C  
HETATM   18  H   UNL     1     -12.886   5.832  73.134  1.00  0.00     0.000 HD 
HETATM   19  C   UNL     1     -12.501   9.372  71.725  1.00  0.00    -0.471 C  
HETATM   20  O   UNL     1     -14.132   8.781  73.439  1.00  0.00    -1.167 OA 
HETATM   21  H   UNL     1     -14.074   9.648  73.823  1.00  0.00     0.000 HD 
BRANCH  19  22
HETATM   22  C   UNL     1     -12.504  10.615  70.856  1.00  0.00    -0.495 C  
HETATM   23  C   UNL     1     -11.417  11.144  70.263  1.00  0.00    -0.329 C  
BRANCH  23  24
HETATM   24  C   UNL     1     -11.439  12.306  69.299  1.00  0.00    -0.292 C  
HETATM   25  F   UNL     1     -10.166  12.711  69.033  1.00  0.00    -0.172 F  
HETATM   26  F   UNL     1     -12.067  13.364  69.882  1.00  0.00    -0.342 F  
BRANCH  24  27
HETATM   27  C   UNL     1     -12.148  11.949  67.982  1.00  0.00     0.060 C  
BRANCH  27  28
HETATM   28  O   UNL     1     -12.005  13.007  67.023  1.00  0.00    -0.383 OA 
BRANCH  28  29
HETATM   29  C   UNL     1     -11.805  12.603  65.730  1.00  0.00    -0.444 A  
HETATM   30  C   UNL     1     -10.818  11.632  65.550  1.00  0.00    -0.334 A  
HETATM   31  C   UNL     1     -10.531  11.143  64.273  1.00  0.00    -0.427 A  
HETATM   32  C   UNL     1     -11.242  11.615  63.172  1.00  0.00    -0.180 A  
HETATM   33  C   UNL     1     -12.243  12.569  63.348  1.00  0.00    -0.613 A  
HETATM   34  C   UNL     1     -12.527  13.062  64.625  1.00  0.00    -0.460 A  
ENDBRANCH  28  29
ENDBRANCH  27  28
ENDBRANCH  24  27
ENDBRANCH  23  24
ENDBRANCH  19  22
ENDBRANCH  12  13
ENDBRANCH  11  12
ENDBRANCH   9  10
ENDBRANCH   8   9
ENDBRANCH   7   8
ENDBRANCH   5   7
ENDBRANCH   4   5
ENDBRANCH   2   4
TORSDOF 13
ENDMDL
MODEL      166
REMARK 921   NORMALIZED FREE ENERGY PREDICTED BY IDOCK:   -4.57 KCAL/MOL
REMARK 922        TOTAL FREE ENERGY PREDICTED BY IDOCK:  -10.87 KCAL/MOL
REMARK 923 INTER-LIGAND FREE ENERGY PREDICTED BY IDOCK:  -10.22 KCAL/MOL
REMARK 924 INTRA-LIGAND FREE ENERGY PREDICTED BY IDOCK:   -0.65 KCAL/MOL
REMARK 927      BINDING AFFINITY PREDICTED BY RF-SCORE:    0.00 PKD
ROOT
HETATM    1  C   UNL     1     -10.641  19.586  66.308  1.00  0.00    -0.580 C  
HETATM    2  C   UNL     1      -9.175  19.228  66.528  1.00  0.00    -0.350 C  
HETATM    3  C   UNL     1      -8.657  19.840  67.824  1.00  0.00    -0.373 C  
ENDROOT
BRANCH   2   4
HETATM    4  O   UNL     1      -9.043  17.800  66.639  1.00  0.00    -0.252 OA 
BRANCH   4   5
HETATM    5  C   UNL     1     -10.174  17.134  67.005  1.00  0.00    -0.313 C  
HETATM    6  O   UNL     1     -10.731  17.226  68.090  1.00  0.00    -0.377 OA 
BRANCH   5   7
HETATM    7  C   UNL     1     -10.619  16.222  65.892  1.00  0.00    -0.307 C  
BRANCH   7   8
HETATM    8  C   UNL     1     -10.585  14.763  66.343  1.00  0.00    -0.300 C  
BRANCH   8   9
HETATM    9  C   UNL     1     -12.002  14.236  66.557  1.00  0.00    -0.448 C  
BRANCH   9  10
HETATM   10  C   UNL     1     -12.457  13.370  65.419  1.00  0.00    -0.543 C  
HETATM   11  C   UNL     1     -11.876  12.228  65.017  1.00  0.00    -0.412 C  
BRANCH  11  12
HETATM   12  C   UNL     1     -10.654  11.589  65.623  1.00  0.00    -0.326 C  
BRANCH  12  13
HETATM   13  C   UNL     1     -10.141  10.443  64.744  1.00  0.00    -0.387 C  
HETATM   14  C   UNL     1      -9.877  10.831  63.283  1.00  0.00    -0.346 C  
HETATM   15  C   UNL     1      -8.986   9.702  62.787  1.00  0.00    -0.264 C  
HETATM   16  O   UNL     1      -9.150  12.054  63.184  1.00  0.00    -0.654 OA 
HETATM   17  C   UNL     1      -8.006   9.500  63.943  1.00  0.00    -0.141 C  
HETATM   18  H   UNL     1      -8.987  12.293  62.279  1.00  0.00     0.000 HD 
HETATM   19  C   UNL     1      -8.786   9.865  65.233  1.00  0.00    -0.210 C  
HETATM   20  O   UNL     1      -6.890  10.378  63.788  1.00  0.00    -0.278 OA 
HETATM   21  H   UNL     1      -6.281  10.252  64.506  1.00  0.00     0.000 HD 
BRANCH  19  22
HETATM   22  C   UNL     1      -8.919   8.683  66.175  1.00  0.00    -0.221 C  
HETATM   23  C   UNL     1     -10.029   7.935  66.322  1.00  0.00    -0.083 C  
BRANCH  23  24
HETATM   24  C   UNL     1     -10.123   6.686  67.164  1.00  0.00    -0.174 C  
HETATM   25  F   UNL     1      -9.662   5.616  66.458  1.00  0.00    -0.144 F  
HETATM   26  F   UNL     1     -11.429   6.429  67.446  1.00  0.00    -0.401 F  
BRANCH  24  27
HETATM   27  C   UNL     1      -9.330   6.814  68.475  1.00  0.00    -0.126 C  
BRANCH  27  28
HETATM   28  O   UNL     1      -9.975   6.093  69.534  1.00  0.00    -0.156 OA 
BRANCH  28  29
HETATM   29  C   UNL     1     -10.505   6.865  70.532  1.00  0.00    -0.211 A  
HETATM   30  C   UNL     1     -11.889   6.769  70.694  1.00  0.00    -0.442 A  
HETATM   31  C   UNL     1     -12.538   7.511  71.684  1.00  0.00    -0.376 A  
HETATM   32  C   UNL     1     -11.802   8.341  72.526  1.00  0.00    -0.439 A  
HETATM   33  C   UNL     1     -10.418   8.425  72.383  1.00  0.00    -0.402 A  
HETATM   34  C   UNL     1      -9.768   7.688  71.388  1.00  0.00    -0.183 A  
ENDBRANCH  28  29
ENDBRANCH  27  28
ENDBRANCH  24  27
ENDBRANCH  23  24
ENDBRANCH  19  22
ENDBRANCH  12  13
ENDBRANCH  11  12
ENDBRANCH   9  10
ENDBRANCH   8   9
ENDBRANCH   7   8
ENDBRANCH   5   7
ENDBRANCH   4   5
ENDBRANCH   2   4
TORSDOF 13
ENDMDL
MODEL      167
REMARK 921   NORMALIZED FREE ENERGY PREDICTED BY IDOCK:   -4.55 KCAL/MOL
REMARK 922        TOTAL FREE ENERGY PREDICTED BY IDOCK:  -10.85 KCAL/MOL
REMARK 923 INTER-LIGAND FREE ENERGY PREDICTED BY IDOCK:   -7.76 KCAL/MOL
REMARK 924 INTRA-LIGAND FREE ENERGY PREDICTED BY IDOCK:   -3.09 KCAL/MOL
REMARK 927      BINDING AFFINITY PREDICTED BY RF-SCORE:    0.00 PKD
ROOT
HETATM    1  C   UNL     1     -11.249   9.589  71.294  1.00  0.00    -0.452 C  
HETATM    2  C   UNL     1     -12.148   8.566  71.981  1.00  0.00    -0.364 C  
HETATM    3  C   UNL     1     -13.604   9.011  71.937  1.00  0.00    -0.486 C  
ENDROOT
BRANCH   2   4
HETATM    4  O   UNL     1     -12.056   7.309  71.288  1.00  0.00    -0.307 OA 
BRANCH   4   5
HETATM    5  C   UNL     1     -10.967   6.550  71.593  1.00  0.00    -0.249 C  
HETATM    6  O   UNL     1     -10.655   6.176  72.715  1.00  0.00    -0.207 OA 
BRANCH   5   7
HETATM    7  C   UNL     1     -10.164   6.274  70.349  1.00  0.00    -0.248 C  
BRANCH   7   8
HETATM    8  C   UNL     1     -11.079   6.141  69.134  1.00  0.00    -0.448 C  
BRANCH   8   9
HETATM    9  C   UNL     1     -10.631   7.085  68.021  1.00  0.00    -0.260 C  
BRANCH   9  10
HETATM   10  C   UNL     1      -9.155   7.351  68.070  1.00  0.00    -0.130 C  
HETATM   11  C   UNL     1      -8.371   7.641  67.019  1.00  0.00    -0.124 C  
BRANCH  11  12
HETATM   12  C   UNL     1      -8.813   7.756  65.584  1.00  0.00    -0.102 C  
BRANCH  12  13
HETATM   13  C   UNL     1      -8.414   9.113  64.994  1.00  0.00    -0.187 C  
HETATM   14  C   UNL     1      -7.803   9.041  63.588  1.00  0.00    -0.137 C  
HETATM   15  C   UNL     1      -7.930  10.472  63.089  1.00  0.00    -0.083 C  
HETATM   16  O   UNL     1      -8.562   8.196  62.725  1.00  0.00    -0.406 OA 
HETATM   17  C   UNL     1      -9.338  10.871  63.530  1.00  0.00    -0.272 C  
HETATM   18  H   UNL     1      -8.184   8.152  61.855  1.00  0.00     0.000 HD 
HETATM   19  C   UNL     1      -9.616  10.082  64.836  1.00  0.00    -0.375 C  
HETATM   20  O   UNL     1     -10.283  10.494  62.527  1.00  0.00    -0.749 OA 
HETATM   21  H   UNL     1     -11.157  10.743  62.801  1.00  0.00     0.000 HD 
BRANCH  19  22
HETATM   22  C   UNL     1      -9.833  11.000  66.024  1.00  0.00    -0.273 C  
HETATM   23  C   UNL     1     -10.996  11.607  66.327  1.00  0.00    -0.338 C  
BRANCH  23  24
HETATM   24  C   UNL     1     -11.247  12.419  67.575  1.00  0.00    -0.294 C  
HETATM   25  F   UNL     1     -11.336  11.592  68.654  1.00  0.00    -0.221 F  
HETATM   26  F   UNL     1     -12.449  13.048  67.470  1.00  0.00    -0.273 F  
BRANCH  24  27
HETATM   27  C   UNL     1     -10.141  13.459  67.817  1.00  0.00    -0.232 C  
BRANCH  27  28
HETATM   28  O   UNL     1      -9.267  13.039  68.874  1.00  0.00     0.092 OA 
BRANCH  28  29
HETATM   29  C   UNL     1      -8.244  12.212  68.496  1.00  0.00    -0.104 A  
HETATM   30  C   UNL     1      -7.394  12.720  67.512  1.00  0.00    -0.153 A  
HETATM   31  C   UNL     1      -6.314  11.964  67.051  1.00  0.00    -0.141 A  
HETATM   32  C   UNL     1      -6.071  10.700  67.584  1.00  0.00    -0.048 A  
HETATM   33  C   UNL     1      -6.904  10.196  68.582  1.00  0.00    -0.057 A  
HETATM   34  C   UNL     1      -7.989  10.950  69.040  1.00  0.00    -0.131 A  
ENDBRANCH  28  29
ENDBRANCH  27  28
ENDBRANCH  24  27
ENDBRANCH  23  24
ENDBRANCH  19  22
ENDBRANCH  12  13
ENDBRANCH  11  12
ENDBRANCH   9  10
ENDBRANCH   8   9
ENDBRANCH   7   8
ENDBRANCH   5   7
ENDBRANCH   4   5
ENDBRANCH   2   4
TORSDOF 13
ENDMDL
MODEL      168
REMARK 921   NORMALIZED FREE ENERGY PREDICTED BY IDOCK:   -4.54 KCAL/MOL
REMARK 922        TOTAL FREE ENERGY PREDICTED BY IDOCK:  -10.83 KCAL/MOL
REMARK 923 INTER-LIGAND FREE ENERGY PREDICTED BY IDOCK:   -8.68 KCAL/MOL
REMARK 924 INTRA-LIGAND FREE ENERGY PREDICTED BY IDOCK:   -2.14 KCAL/MOL
REMARK 927      BINDING AFFINITY PREDICTED BY RF-SCORE:    0.00 PKD
ROOT
HETATM    1  C   UNL     1      -6.523   5.816  70.791  1.00  0.00    -0.036 C  
HETATM    2  C   UNL     1      -7.319   6.251  72.016  1.00  0.00    -0.093 C  
HETATM    3  C   UNL     1      -7.349   7.770  72.130  1.00  0.00    -0.083 C  
ENDROOT
BRANCH   2   4
HETATM    4  O   UNL     1      -8.678   5.798  71.888  1.00  0.00    -0.134 OA 
BRANCH   4   5
HETATM    5  C   UNL     1      -9.167   5.103  72.954  1.00  0.00    -0.134 C  
HETATM    6  O   UNL     1      -8.512   4.374  73.685  1.00  0.00    -0.096 OA 
BRANCH   5   7
HETATM    7  C   UNL     1     -10.652   5.321  73.075  1.00  0.00    -0.278 C  
BRANCH   7   8
HETATM    8  C   UNL     1     -11.143   6.301  72.012  1.00  0.00    -0.313 C  
BRANCH   8   9
HETATM    9  C   UNL     1     -11.684   7.571  72.664  1.00  0.00    -0.279 C  
BRANCH   9  10
HETATM   10  C   UNL     1     -12.370   8.465  71.673  1.00  0.00    -0.359 C  
HETATM   11  C   UNL     1     -11.779   9.413  70.927  1.00  0.00    -0.378 C  
BRANCH  11  12
HETATM   12  C   UNL     1     -10.316   9.770  70.936  1.00  0.00    -0.245 C  
BRANCH  12  13
HETATM   13  C   UNL     1      -9.784   9.938  69.508  1.00  0.00    -0.238 C  
HETATM   14  C   UNL     1      -8.859   8.808  69.037  1.00  0.00    -0.137 C  
HETATM   15  C   UNL     1      -8.859   8.977  67.525  1.00  0.00    -0.128 C  
HETATM   16  O   UNL     1      -9.395   7.523  69.345  1.00  0.00    -0.153 OA 
HETATM   17  C   UNL     1     -10.330   9.242  67.205  1.00  0.00    -0.265 C  
HETATM   18  H   UNL     1      -8.822   6.823  69.053  1.00  0.00     0.000 HD 
HETATM   19  C   UNL     1     -10.911   9.974  68.442  1.00  0.00    -0.266 C  
HETATM   20  O   UNL     1     -11.012   8.001  67.013  1.00  0.00    -0.447 OA 
HETATM   21  H   UNL     1     -11.926   8.166  66.813  1.00  0.00     0.000 HD 
BRANCH  19  22
HETATM   22  C   UNL     1     -11.400  11.369  68.103  1.00  0.00    -0.374 C  
HETATM   23  C   UNL     1     -10.720  12.267  67.366  1.00  0.00    -0.261 C  
BRANCH  23  24
HETATM   24  C   UNL     1     -11.258  13.607  66.924  1.00  0.00    -0.312 C  
HETATM   25  F   UNL     1     -12.512  13.789  67.424  1.00  0.00    -0.371 F  
HETATM   26  F   UNL     1     -11.375  13.621  65.569  1.00  0.00    -0.298 F  
BRANCH  24  27
HETATM   27  C   UNL     1     -10.355  14.767  67.374  1.00  0.00    -0.242 C  
BRANCH  27  28
HETATM   28  O   UNL     1     -10.317  15.800  66.379  1.00  0.00    -0.280 OA 
BRANCH  28  29
HETATM   29  C   UNL     1     -10.249  17.078  66.863  1.00  0.00    -0.305 A  
HETATM   30  C   UNL     1     -10.363  18.090  65.907  1.00  0.00    -0.274 A  
HETATM   31  C   UNL     1     -10.310  19.432  66.287  1.00  0.00    -0.584 A  
HETATM   32  C   UNL     1     -10.159  19.769  67.630  1.00  0.00    -0.550 A  
HETATM   33  C   UNL     1     -10.066  18.764  68.592  1.00  0.00    -0.432 A  
HETATM   34  C   UNL     1     -10.112  17.420  68.211  1.00  0.00    -0.339 A  
ENDBRANCH  28  29
ENDBRANCH  27  28
ENDBRANCH  24  27
ENDBRANCH  23  24
ENDBRANCH  19  22
ENDBRANCH  12  13
ENDBRANCH  11  12
ENDBRANCH   9  10
ENDBRANCH   8   9
ENDBRANCH   7   8
ENDBRANCH   5   7
ENDBRANCH   4   5
ENDBRANCH   2   4
TORSDOF 13
ENDMDL
MODEL      169
REMARK 921   NORMALIZED FREE ENERGY PREDICTED BY IDOCK:   -4.54 KCAL/MOL
REMARK 922        TOTAL FREE ENERGY PREDICTED BY IDOCK:  -10.82 KCAL/MOL
REMARK 923 INTER-LIGAND FREE ENERGY PREDICTED BY IDOCK:   -9.60 KCAL/MOL
REMARK 924 INTRA-LIGAND FREE ENERGY PREDICTED BY IDOCK:   -1.22 KCAL/MOL
REMARK 927      BINDING AFFINITY PREDICTED BY RF-SCORE:    0.00 PKD
ROOT
HETATM    1  C   UNL     1      -9.684   5.602  66.243  1.00  0.00    -0.162 C  
HETATM    2  C   UNL     1      -9.909   7.021  66.755  1.00  0.00    -0.186 C  
HETATM    3  C   UNL     1     -11.146   7.086  67.642  1.00  0.00    -0.190 C  
ENDROOT
BRANCH   2   4
HETATM    4  O   UNL     1      -8.781   7.425  67.552  1.00  0.00    -0.124 OA 
BRANCH   4   5
HETATM    5  C   UNL     1      -7.560   7.088  67.051  1.00  0.00    -0.102 C  
HETATM    6  O   UNL     1      -7.127   7.417  65.956  1.00  0.00    -0.063 OA 
BRANCH   5   7
HETATM    7  C   UNL     1      -6.829   6.203  68.026  1.00  0.00    -0.067 C  
BRANCH   7   8
HETATM    8  C   UNL     1      -7.008   6.710  69.456  1.00  0.00    -0.067 C  
BRANCH   8   9
HETATM    9  C   UNL     1      -8.166   5.986  70.138  1.00  0.00    -0.119 C  
BRANCH   9  10
HETATM   10  C   UNL     1      -7.999   5.936  71.628  1.00  0.00    -0.113 C  
HETATM   11  C   UNL     1      -8.366   6.894  72.494  1.00  0.00    -0.116 C  
BRANCH  11  12
HETATM   12  C   UNL     1      -9.016   8.208  72.146  1.00  0.00    -0.246 C  
BRANCH  12  13
HETATM   13  C   UNL     1     -10.395   7.987  71.514  1.00  0.00    -0.258 C  
HETATM   14  C   UNL     1     -11.248   6.915  72.205  1.00  0.00    -0.263 C  
HETATM   15  C   UNL     1     -12.650   7.218  71.699  1.00  0.00    -0.403 C  
HETATM   16  O   UNL     1     -11.240   7.067  73.623  1.00  0.00    -0.504 OA 
HETATM   17  C   UNL     1     -12.728   8.742  71.783  1.00  0.00    -0.359 C  
HETATM   18  H   UNL     1     -11.769   6.403  74.051  1.00  0.00     0.000 HD 
HETATM   19  C   UNL     1     -11.285   9.258  71.544  1.00  0.00    -0.457 C  
HETATM   20  O   UNL     1     -13.172   9.131  73.085  1.00  0.00    -0.772 OA 
HETATM   21  H   UNL     1     -13.221  10.078  73.136  1.00  0.00     0.000 HD 
BRANCH  19  22
HETATM   22  C   UNL     1     -11.184  10.117  70.299  1.00  0.00    -0.387 C  
HETATM   23  C   UNL     1     -11.687  11.360  70.175  1.00  0.00    -0.414 C  
BRANCH  23  24
HETATM   24  C   UNL     1     -11.479  12.262  68.983  1.00  0.00    -0.297 C  
HETATM   25  F   UNL     1     -11.966  11.664  67.861  1.00  0.00    -0.371 F  
HETATM   26  F   UNL     1     -10.145  12.439  68.779  1.00  0.00    -0.213 F  
BRANCH  24  27
HETATM   27  C   UNL     1     -12.157  13.629  69.170  1.00  0.00    -0.319 C  
BRANCH  27  28
HETATM   28  O   UNL     1     -11.422  14.440  70.097  1.00  0.00    -0.263 OA 
BRANCH  28  29
HETATM   29  C   UNL     1     -12.124  14.859  71.195  1.00  0.00    -0.327 A  
HETATM   30  C   UNL     1     -13.476  15.129  70.976  1.00  0.00    -0.493 A  
HETATM   31  C   UNL     1     -14.291  15.560  72.025  1.00  0.00    -0.600 A  
HETATM   32  C   UNL     1     -13.758  15.710  73.304  1.00  0.00    -0.330 A  
HETATM   33  C   UNL     1     -12.413  15.422  73.533  1.00  0.00    -0.666 A  
HETATM   34  C   UNL     1     -11.596  14.995  72.482  1.00  0.00    -0.348 A  
ENDBRANCH  28  29
ENDBRANCH  27  28
ENDBRANCH  24  27
ENDBRANCH  23  24
ENDBRANCH  19  22
ENDBRANCH  12  13
ENDBRANCH  11  12
ENDBRANCH   9  10
ENDBRANCH   8   9
ENDBRANCH   7   8
ENDBRANCH   5   7
ENDBRANCH   4   5
ENDBRANCH   2   4
TORSDOF 13
ENDMDL
MODEL      170
REMARK 921   NORMALIZED FREE ENERGY PREDICTED BY IDOCK:   -4.52 KCAL/MOL
REMARK 922        TOTAL FREE ENERGY PREDICTED BY IDOCK:  -10.79 KCAL/MOL
REMARK 923 INTER-LIGAND FREE ENERGY PREDICTED BY IDOCK:   -9.83 KCAL/MOL
REMARK 924 INTRA-LIGAND FREE ENERGY PREDICTED BY IDOCK:   -0.96 KCAL/MOL
REMARK 927      BINDING AFFINITY PREDICTED BY RF-SCORE:    0.00 PKD
ROOT
HETATM    1  C   UNL     1     -10.648  19.971  65.868  1.00  0.00    -0.459 C  
HETATM    2  C   UNL     1      -9.179  19.829  66.250  1.00  0.00    -0.388 C  
HETATM    3  C   UNL     1      -8.949  20.273  67.690  1.00  0.00    -0.393 C  
ENDROOT
BRANCH   2   4
HETATM    4  O   UNL     1      -8.792  18.447  66.155  1.00  0.00    -0.463 OA 
BRANCH   4   5
HETATM    5  C   UNL     1      -8.758  17.765  67.334  1.00  0.00    -0.235 C  
HETATM    6  O   UNL     1      -7.869  17.839  68.170  1.00  0.00    -0.245 OA 
BRANCH   5   7
HETATM    7  C   UNL     1      -9.957  16.860  67.442  1.00  0.00    -0.269 C  
BRANCH   7   8
HETATM    8  C   UNL     1     -10.517  16.872  68.863  1.00  0.00    -0.346 C  
BRANCH   8   9
HETATM    9  C   UNL     1     -11.173  15.533  69.190  1.00  0.00    -0.300 C  
BRANCH   9  10
HETATM   10  C   UNL     1     -10.434  14.380  68.575  1.00  0.00    -0.254 C  
HETATM   11  C   UNL     1     -10.880  13.601  67.577  1.00  0.00    -0.275 C  
BRANCH  11  12
HETATM   12  C   UNL     1     -12.208  13.726  66.876  1.00  0.00    -0.408 C  
BRANCH  12  13
HETATM   13  C   UNL     1     -12.280  12.786  65.667  1.00  0.00    -0.503 C  
HETATM   14  C   UNL     1     -12.380  13.499  64.312  1.00  0.00    -0.335 C  
HETATM   15  C   UNL     1     -11.984  12.410  63.326  1.00  0.00    -0.509 C  
HETATM   16  O   UNL     1     -11.439  14.565  64.205  1.00  0.00    -0.620 OA 
HETATM   17  C   UNL     1     -10.784  11.747  64.002  1.00  0.00    -0.378 C  
HETATM   18  H   UNL     1     -11.501  15.006  63.365  1.00  0.00     0.000 HD 
HETATM   19  C   UNL     1     -11.026  11.881  65.528  1.00  0.00    -0.347 C  
HETATM   20  O   UNL     1      -9.586  12.437  63.640  1.00  0.00    -0.659 OA 
HETATM   21  H   UNL     1      -8.840  12.025  64.060  1.00  0.00     0.000 HD 
BRANCH  19  22
HETATM   22  C   UNL     1     -11.157  10.531  66.207  1.00  0.00     0.145 C  
HETATM   23  C   UNL     1     -10.142   9.850  66.771  1.00  0.00    -0.292 C  
BRANCH  23  24
HETATM   24  C   UNL     1     -10.292   8.568  67.554  1.00  0.00    -0.267 C  
HETATM   25  F   UNL     1     -11.145   7.728  66.907  1.00  0.00    -0.390 F  
HETATM   26  F   UNL     1     -10.858   8.841  68.761  1.00  0.00    -0.224 F  
BRANCH  24  27
HETATM   27  C   UNL     1      -8.942   7.863  67.767  1.00  0.00    -0.128 C  
BRANCH  27  28
HETATM   28  O   UNL     1      -9.131   6.457  67.987  1.00  0.00    -0.116 OA 
BRANCH  28  29
HETATM   29  C   UNL     1      -9.247   6.079  69.297  1.00  0.00    -0.127 A  
HETATM   30  C   UNL     1      -8.354   6.690  70.180  1.00  0.00    -0.135 A  
HETATM   31  C   UNL     1      -8.384   6.381  71.542  1.00  0.00    -0.125 A  
HETATM   32  C   UNL     1      -9.319   5.470  72.029  1.00  0.00    -0.164 A  
HETATM   33  C   UNL     1     -10.226   4.872  71.155  1.00  0.00    -0.261 A  
HETATM   34  C   UNL     1     -10.193   5.176  69.791  1.00  0.00    -0.357 A  
ENDBRANCH  28  29
ENDBRANCH  27  28
ENDBRANCH  24  27
ENDBRANCH  23  24
ENDBRANCH  19  22
ENDBRANCH  12  13
ENDBRANCH  11  12
ENDBRANCH   9  10
ENDBRANCH   8   9
ENDBRANCH   7   8
ENDBRANCH   5   7
ENDBRANCH   4   5
ENDBRANCH   2   4
TORSDOF 13
ENDMDL
MODEL      171
REMARK 921   NORMALIZED FREE ENERGY PREDICTED BY IDOCK:   -4.51 KCAL/MOL
REMARK 922        TOTAL FREE ENERGY PREDICTED BY IDOCK:  -10.77 KCAL/MOL
REMARK 923 INTER-LIGAND FREE ENERGY PREDICTED BY IDOCK:   -7.52 KCAL/MOL
REMARK 924 INTRA-LIGAND FREE ENERGY PREDICTED BY IDOCK:   -3.26 KCAL/MOL
REMARK 927      BINDING AFFINITY PREDICTED BY RF-SCORE:    0.00 PKD
ROOT
HETATM    1  C   UNL     1     -12.091  13.397  63.966  1.00  0.00    -0.506 C  
HETATM    2  C   UNL     1     -11.594  12.220  64.797  1.00  0.00    -0.337 C  
HETATM    3  C   UNL     1     -10.639  11.352  63.988  1.00  0.00    -0.444 C  
ENDROOT
BRANCH   2   4
HETATM    4  O   UNL     1     -10.871  12.713  65.939  1.00  0.00    -0.263 OA 
BRANCH   4   5
HETATM    5  C   UNL     1     -10.921  11.925  67.049  1.00  0.00    -0.278 C  
HETATM    6  O   UNL     1     -11.914  11.343  67.461  1.00  0.00    -0.626 OA 
BRANCH   5   7
HETATM    7  C   UNL     1      -9.579  11.910  67.733  1.00  0.00    -0.190 C  
BRANCH   7   8
HETATM    8  C   UNL     1      -9.348  10.577  68.441  1.00  0.00    -0.158 C  
BRANCH   8   9
HETATM    9  C   UNL     1      -7.904  10.117  68.255  1.00  0.00    -0.093 C  
BRANCH   9  10
HETATM   10  C   UNL     1      -7.462   9.193  69.352  1.00  0.00    -0.077 C  
HETATM   11  C   UNL     1      -7.375   7.856  69.267  1.00  0.00    -0.082 C  
BRANCH  11  12
HETATM   12  C   UNL     1      -7.702   7.016  68.060  1.00  0.00    -0.113 C  
BRANCH  12  13
HETATM   13  C   UNL     1      -9.189   6.646  68.036  1.00  0.00    -0.112 C  
HETATM   14  C   UNL     1     -10.023   7.426  67.011  1.00  0.00    -0.231 C  
HETATM   15  C   UNL     1     -11.280   6.580  66.881  1.00  0.00    -0.205 C  
HETATM   16  O   UNL     1      -9.382   7.477  65.738  1.00  0.00    -0.395 OA 
HETATM   17  C   UNL     1     -10.735   5.153  66.824  1.00  0.00    -0.112 C  
HETATM   18  H   UNL     1      -9.899   7.960  65.104  1.00  0.00     0.000 HD 
HETATM   19  C   UNL     1      -9.436   5.157  67.673  1.00  0.00    -0.145 C  
HETATM   20  O   UNL     1     -10.427   4.809  65.471  1.00  0.00    -0.415 OA 
HETATM   21  H   UNL     1     -10.089   3.922  65.436  1.00  0.00     0.000 HD 
BRANCH  19  22
HETATM   22  C   UNL     1      -9.533   4.233  68.871  1.00  0.00    -0.236 C  
HETATM   23  C   UNL     1      -8.600   4.120  69.835  1.00  0.00    -0.103 C  
BRANCH  23  24
HETATM   24  C   UNL     1      -8.752   3.295  71.090  1.00  0.00    -0.078 C  
HETATM   25  F   UNL     1      -7.586   2.643  71.359  1.00  0.00    -0.038 F  
HETATM   26  F   UNL     1      -9.694   2.334  70.888  1.00  0.00    -0.204 F  
BRANCH  24  27
HETATM   27  C   UNL     1      -9.148   4.155  72.301  1.00  0.00    -0.116 C  
BRANCH  27  28
HETATM   28  O   UNL     1     -10.465   4.700  72.131  1.00  0.00    -0.197 OA 
BRANCH  28  29
HETATM   29  C   UNL     1     -10.515   6.043  71.876  1.00  0.00    -0.218 A  
HETATM   30  C   UNL     1      -9.688   6.838  72.671  1.00  0.00    -0.164 A  
HETATM   31  C   UNL     1      -9.656   8.223  72.496  1.00  0.00    -0.365 A  
HETATM   32  C   UNL     1     -10.443   8.819  71.512  1.00  0.00    -0.373 A  
HETATM   33  C   UNL     1     -11.255   8.028  70.700  1.00  0.00    -0.266 A  
HETATM   34  C   UNL     1     -11.292   6.642  70.879  1.00  0.00    -0.377 A  
ENDBRANCH  28  29
ENDBRANCH  27  28
ENDBRANCH  24  27
ENDBRANCH  23  24
ENDBRANCH  19  22
ENDBRANCH  12  13
ENDBRANCH  11  12
ENDBRANCH   9  10
ENDBRANCH   8   9
ENDBRANCH   7   8
ENDBRANCH   5   7
ENDBRANCH   4   5
ENDBRANCH   2   4
TORSDOF 13
ENDMDL
MODEL      172
REMARK 921   NORMALIZED FREE ENERGY PREDICTED BY IDOCK:   -4.50 KCAL/MOL
REMARK 922        TOTAL FREE ENERGY PREDICTED BY IDOCK:  -10.75 KCAL/MOL
REMARK 923 INTER-LIGAND FREE ENERGY PREDICTED BY IDOCK:   -7.81 KCAL/MOL
REMARK 924 INTRA-LIGAND FREE ENERGY PREDICTED BY IDOCK:   -2.95 KCAL/MOL
REMARK 927      BINDING AFFINITY PREDICTED BY RF-SCORE:    0.00 PKD
ROOT
HETATM    1  C   UNL     1      -7.509  12.238  68.255  1.00  0.00    -0.119 C  
HETATM    2  C   UNL     1      -6.438  13.317  68.129  1.00  0.00    -0.112 C  
HETATM    3  C   UNL     1      -5.140  12.730  67.590  1.00  0.00    -0.094 C  
ENDROOT
BRANCH   2   4
HETATM    4  O   UNL     1      -6.880  14.322  67.200  1.00  0.00    -0.177 OA 
BRANCH   4   5
HETATM    5  C   UNL     1      -6.556  15.604  67.527  1.00  0.00    -0.182 C  
HETATM    6  O   UNL     1      -6.042  16.420  66.774  1.00  0.00    -0.314 OA 
BRANCH   5   7
HETATM    7  C   UNL     1      -6.877  15.865  68.975  1.00  0.00    -0.153 C  
BRANCH   7   8
HETATM    8  C   UNL     1      -8.317  16.351  69.131  1.00  0.00    -0.182 C  
BRANCH   8   9
HETATM    9  C   UNL     1      -9.226  15.201  69.555  1.00  0.00    -0.139 C  
BRANCH   9  10
HETATM   10  C   UNL     1     -10.671  15.493  69.274  1.00  0.00    -0.245 C  
HETATM   11  C   UNL     1     -11.276  15.396  68.079  1.00  0.00    -0.326 C  
BRANCH  11  12
HETATM   12  C   UNL     1     -10.629  14.979  66.784  1.00  0.00    -0.301 C  
BRANCH  12  13
HETATM   13  C   UNL     1     -11.455  13.895  66.083  1.00  0.00    -0.351 C  
HETATM   14  C   UNL     1     -11.391  13.938  64.550  1.00  0.00    -0.372 C  
HETATM   15  C   UNL     1     -11.884  12.556  64.151  1.00  0.00    -0.487 C  
HETATM   16  O   UNL     1     -10.053  14.090  64.081  1.00  0.00    -0.617 OA 
HETATM   17  C   UNL     1     -11.171  11.633  65.139  1.00  0.00    -0.197 C  
HETATM   18  H   UNL     1     -10.014  14.117  63.132  1.00  0.00     0.000 HD 
HETATM   19  C   UNL     1     -10.994  12.456  66.441  1.00  0.00    -0.315 C  
HETATM   20  O   UNL     1      -9.891  11.268  64.620  1.00  0.00    -0.241 OA 
HETATM   21  H   UNL     1      -9.449  10.694  65.234  1.00  0.00     0.000 HD 
BRANCH  19  22
HETATM   22  C   UNL     1     -11.735  11.841  67.612  1.00  0.00    -0.320 C  
HETATM   23  C   UNL     1     -11.165  11.453  68.769  1.00  0.00    -0.308 C  
BRANCH  23  24
HETATM   24  C   UNL     1     -11.917  10.957  69.980  1.00  0.00    -0.350 C  
HETATM   25  F   UNL     1     -13.153  10.522  69.609  1.00  0.00    -0.179 F  
HETATM   26  F   UNL     1     -12.113  11.990  70.843  1.00  0.00    -0.439 F  
BRANCH  24  27
HETATM   27  C   UNL     1     -11.169   9.822  70.697  1.00  0.00    -0.334 C  
BRANCH  27  28
HETATM   28  O   UNL     1     -10.426   9.028  69.761  1.00  0.00    -0.207 OA 
BRANCH  28  29
HETATM   29  C   UNL     1      -9.133   8.756  70.119  1.00  0.00    -0.167 A  
HETATM   30  C   UNL     1      -8.227   8.645  69.062  1.00  0.00    -0.122 A  
HETATM   31  C   UNL     1      -6.880   8.371  69.310  1.00  0.00    -0.047 A  
HETATM   32  C   UNL     1      -6.430   8.223  70.620  1.00  0.00    -0.036 A  
HETATM   33  C   UNL     1      -7.326   8.354  71.681  1.00  0.00    -0.110 A  
HETATM   34  C   UNL     1      -8.675   8.621  71.432  1.00  0.00    -0.262 A  
ENDBRANCH  28  29
ENDBRANCH  27  28
ENDBRANCH  24  27
ENDBRANCH  23  24
ENDBRANCH  19  22
ENDBRANCH  12  13
ENDBRANCH  11  12
ENDBRANCH   9  10
ENDBRANCH   8   9
ENDBRANCH   7   8
ENDBRANCH   5   7
ENDBRANCH   4   5
ENDBRANCH   2   4
TORSDOF 13
ENDMDL
MODEL      173
REMARK 921   NORMALIZED FREE ENERGY PREDICTED BY IDOCK:   -4.49 KCAL/MOL
REMARK 922        TOTAL FREE ENERGY PREDICTED BY IDOCK:  -10.73 KCAL/MOL
REMARK 923 INTER-LIGAND FREE ENERGY PREDICTED BY IDOCK:   -8.69 KCAL/MOL
REMARK 924 INTRA-LIGAND FREE ENERGY PREDICTED BY IDOCK:   -2.04 KCAL/MOL
REMARK 927      BINDING AFFINITY PREDICTED BY RF-SCORE:    0.00 PKD
ROOT
HETATM    1  C   UNL     1     -10.542  11.247  64.418  1.00  0.00    -0.410 C  
HETATM    2  C   UNL     1     -11.242  12.502  64.928  1.00  0.00    -0.305 C  
HETATM    3  C   UNL     1     -12.134  13.100  63.848  1.00  0.00    -0.536 C  
ENDROOT
BRANCH   2   4
HETATM    4  O   UNL     1     -12.081  12.161  66.046  1.00  0.00    -0.612 OA 
BRANCH   4   5
HETATM    5  C   UNL     1     -11.549  12.410  67.275  1.00  0.00    -0.365 C  
HETATM    6  O   UNL     1     -11.062  13.473  67.634  1.00  0.00    -0.257 OA 
BRANCH   5   7
HETATM    7  C   UNL     1     -11.599  11.166  68.122  1.00  0.00    -0.350 C  
BRANCH   7   8
HETATM    8  C   UNL     1     -11.642  11.524  69.606  1.00  0.00    -0.403 C  
BRANCH   8   9
HETATM    9  C   UNL     1     -11.423  10.280  70.462  1.00  0.00    -0.427 C  
BRANCH   9  10
HETATM   10  C   UNL     1     -12.458  10.149  71.541  1.00  0.00    -0.526 C  
HETATM   11  C   UNL     1     -13.023   9.004  71.956  1.00  0.00    -0.470 C  
BRANCH  11  12
HETATM   12  C   UNL     1     -12.735   7.625  71.424  1.00  0.00    -0.357 C  
BRANCH  12  13
HETATM   13  C   UNL     1     -11.270   7.240  71.662  1.00  0.00    -0.275 C  
HETATM   14  C   UNL     1     -11.023   6.441  72.949  1.00  0.00    -0.250 C  
HETATM   15  C   UNL     1      -9.653   5.826  72.709  1.00  0.00    -0.159 C  
HETATM   16  O   UNL     1     -11.969   5.385  73.105  1.00  0.00    -0.546 OA 
HETATM   17  C   UNL     1      -9.733   5.353  71.258  1.00  0.00    -0.162 C  
HETATM   18  H   UNL     1     -11.815   4.890  73.901  1.00  0.00     0.000 HD 
HETATM   19  C   UNL     1     -10.691   6.339  70.539  1.00  0.00    -0.327 C  
HETATM   20  O   UNL     1     -10.276   4.032  71.212  1.00  0.00    -0.112 OA 
HETATM   21  H   UNL     1     -10.325   3.738  70.310  1.00  0.00     0.000 HD 
BRANCH  19  22
HETATM   22  C   UNL     1      -9.997   7.102  69.428  1.00  0.00    -0.164 C  
HETATM   23  C   UNL     1     -10.423   7.165  68.152  1.00  0.00    -0.244 C  
BRANCH  23  24
HETATM   24  C   UNL     1      -9.804   8.023  67.075  1.00  0.00    -0.227 C  
HETATM   25  F   UNL     1      -9.061   9.012  67.643  1.00  0.00    -0.131 F  
HETATM   26  F   UNL     1     -10.789   8.638  66.367  1.00  0.00    -0.206 F  
BRANCH  24  27
HETATM   27  C   UNL     1      -8.921   7.202  66.122  1.00  0.00    -0.140 C  
BRANCH  27  28
HETATM   28  O   UNL     1      -9.218   5.802  66.229  1.00  0.00    -0.152 OA 
BRANCH  28  29
HETATM   29  C   UNL     1      -8.609   5.001  65.301  1.00  0.00    -0.145 A  
HETATM   30  C   UNL     1      -8.561   3.642  65.620  1.00  0.00    -0.113 A  
HETATM   31  C   UNL     1      -7.965   2.731  64.745  1.00  0.00    -0.082 A  
HETATM   32  C   UNL     1      -7.428   3.174  63.539  1.00  0.00    -0.062 A  
HETATM   33  C   UNL     1      -7.491   4.526  63.205  1.00  0.00    -0.054 A  
HETATM   34  C   UNL     1      -8.082   5.439  64.083  1.00  0.00    -0.123 A  
ENDBRANCH  28  29
ENDBRANCH  27  28
ENDBRANCH  24  27
ENDBRANCH  23  24
ENDBRANCH  19  22
ENDBRANCH  12  13
ENDBRANCH  11  12
ENDBRANCH   9  10
ENDBRANCH   8   9
ENDBRANCH   7   8
ENDBRANCH   5   7
ENDBRANCH   4   5
ENDBRANCH   2   4
TORSDOF 13
ENDMDL
MODEL      174
REMARK 921   NORMALIZED FREE ENERGY PREDICTED BY IDOCK:   -4.48 KCAL/MOL
REMARK 922        TOTAL FREE ENERGY PREDICTED BY IDOCK:  -10.72 KCAL/MOL
REMARK 923 INTER-LIGAND FREE ENERGY PREDICTED BY IDOCK:   -8.33 KCAL/MOL
REMARK 924 INTRA-LIGAND FREE ENERGY PREDICTED BY IDOCK:   -2.38 KCAL/MOL
REMARK 927      BINDING AFFINITY PREDICTED BY RF-SCORE:    0.00 PKD
ROOT
HETATM    1  C   UNL     1     -11.611  12.041  67.649  1.00  0.00    -0.392 C  
HETATM    2  C   UNL     1     -11.815  13.443  67.083  1.00  0.00    -0.382 C  
HETATM    3  C   UNL     1     -11.348  14.500  68.077  1.00  0.00    -0.326 C  
ENDROOT
BRANCH   2   4
HETATM    4  O   UNL     1     -11.031  13.594  65.887  1.00  0.00    -0.282 OA 
BRANCH   4   5
HETATM    5  C   UNL     1     -11.732  13.919  64.765  1.00  0.00    -0.386 C  
HETATM    6  O   UNL     1     -12.588  14.789  64.691  1.00  0.00    -0.519 OA 
BRANCH   5   7
HETATM    7  C   UNL     1     -11.335  13.015  63.628  1.00  0.00    -0.392 C  
BRANCH   7   8
HETATM    8  C   UNL     1     -11.128  11.585  64.123  1.00  0.00    -0.417 C  
BRANCH   8   9
HETATM    9  C   UNL     1      -9.782  11.044  63.646  1.00  0.00    -0.364 C  
BRANCH   9  10
HETATM   10  C   UNL     1      -9.508   9.668  64.178  1.00  0.00    -0.044 C  
HETATM   11  C   UNL     1      -9.028   9.377  65.397  1.00  0.00    -0.251 C  
BRANCH  11  12
HETATM   12  C   UNL     1      -8.667  10.368  66.473  1.00  0.00    -0.143 C  
BRANCH  12  13
HETATM   13  C   UNL     1      -7.889   9.689  67.606  1.00  0.00    -0.095 C  
HETATM   14  C   UNL     1      -6.370   9.892  67.545  1.00  0.00    -0.063 C  
HETATM   15  C   UNL     1      -5.923   9.536  68.955  1.00  0.00    -0.042 C  
HETATM   16  O   UNL     1      -6.028  11.254  67.296  1.00  0.00    -0.055 OA 
HETATM   17  C   UNL     1      -6.971  10.217  69.834  1.00  0.00    -0.142 C  
HETATM   18  H   UNL     1      -5.087  11.379  67.258  1.00  0.00     0.000 HD 
HETATM   19  C   UNL     1      -8.286  10.214  69.012  1.00  0.00    -0.138 C  
HETATM   20  O   UNL     1      -6.573  11.563  70.104  1.00  0.00    -0.341 OA 
HETATM   21  H   UNL     1      -7.224  11.985  70.651  1.00  0.00     0.000 HD 
BRANCH  19  22
HETATM   22  C   UNL     1      -9.381   9.412  69.687  1.00  0.00    -0.199 C  
HETATM   23  C   UNL     1      -9.671   9.456  71.002  1.00  0.00    -0.293 C  
BRANCH  23  24
HETATM   24  C   UNL     1     -10.838   8.755  71.653  1.00  0.00    -0.329 C  
HETATM   25  F   UNL     1     -11.837   9.648  71.895  1.00  0.00    -0.432 F  
HETATM   26  F   UNL     1     -10.454   8.267  72.863  1.00  0.00    -0.373 F  
BRANCH  24  27
HETATM   27  C   UNL     1     -11.378   7.607  70.784  1.00  0.00    -0.281 C  
BRANCH  27  28
HETATM   28  O   UNL     1     -10.744   6.366  71.126  1.00  0.00    -0.228 OA 
BRANCH  28  29
HETATM   29  C   UNL     1     -10.280   5.633  70.067  1.00  0.00    -0.252 A  
HETATM   30  C   UNL     1     -10.523   6.180  68.806  1.00  0.00    -0.295 A  
HETATM   31  C   UNL     1     -10.091   5.519  67.653  1.00  0.00    -0.217 A  
HETATM   32  C   UNL     1      -9.400   4.314  67.760  1.00  0.00    -0.200 A  
HETATM   33  C   UNL     1      -9.135   3.774  69.018  1.00  0.00    -0.199 A  
HETATM   34  C   UNL     1      -9.573   4.432  70.171  1.00  0.00    -0.263 A  
ENDBRANCH  28  29
ENDBRANCH  27  28
ENDBRANCH  24  27
ENDBRANCH  23  24
ENDBRANCH  19  22
ENDBRANCH  12  13
ENDBRANCH  11  12
ENDBRANCH   9  10
ENDBRANCH   8   9
ENDBRANCH   7   8
ENDBRANCH   5   7
ENDBRANCH   4   5
ENDBRANCH   2   4
TORSDOF 13
ENDMDL
MODEL      175
REMARK 921   NORMALIZED FREE ENERGY PREDICTED BY IDOCK:   -4.48 KCAL/MOL
REMARK 922        TOTAL FREE ENERGY PREDICTED BY IDOCK:  -10.72 KCAL/MOL
REMARK 923 INTER-LIGAND FREE ENERGY PREDICTED BY IDOCK:   -7.22 KCAL/MOL
REMARK 924 INTRA-LIGAND FREE ENERGY PREDICTED BY IDOCK:   -3.50 KCAL/MOL
REMARK 927      BINDING AFFINITY PREDICTED BY RF-SCORE:    0.00 PKD
ROOT
HETATM    1  C   UNL     1      -9.966   8.475  72.673  1.00  0.00    -0.265 C  
HETATM    2  C   UNL     1     -10.711   8.211  71.369  1.00  0.00    -0.232 C  
HETATM    3  C   UNL     1     -12.140   8.734  71.447  1.00  0.00    -0.361 C  
ENDROOT
BRANCH   2   4
HETATM    4  O   UNL     1     -10.053   8.905  70.294  1.00  0.00    -0.176 OA 
BRANCH   4   5
HETATM    5  C   UNL     1     -10.474   8.576  69.040  1.00  0.00    -0.200 C  
HETATM    6  O   UNL     1     -10.581   7.439  68.604  1.00  0.00    -0.198 OA 
BRANCH   5   7
HETATM    7  C   UNL     1     -10.743   9.825  68.243  1.00  0.00    -0.277 C  
BRANCH   7   8
HETATM    8  C   UNL     1     -10.025  11.025  68.857  1.00  0.00    -0.201 C  
BRANCH   8   9
HETATM    9  C   UNL     1      -8.864  11.465  67.969  1.00  0.00    -0.155 C  
BRANCH   9  10
HETATM   10  C   UNL     1      -7.774  12.132  68.756  1.00  0.00    -0.034 C  
HETATM   11  C   UNL     1      -7.223  13.325  68.484  1.00  0.00    -0.110 C  
BRANCH  11  12
HETATM   12  C   UNL     1      -7.585  14.233  67.338  1.00  0.00    -0.185 C  
BRANCH  12  13
HETATM   13  C   UNL     1      -9.021  14.749  67.478  1.00  0.00    -0.192 C  
HETATM   14  C   UNL     1      -9.138  16.136  68.125  1.00  0.00    -0.189 C  
HETATM   15  C   UNL     1     -10.541  16.576  67.733  1.00  0.00    -0.332 C  
HETATM   16  O   UNL     1      -8.206  17.059  67.567  1.00  0.00    -0.177 OA 
HETATM   17  C   UNL     1     -10.637  16.164  66.264  1.00  0.00    -0.274 C  
HETATM   18  H   UNL     1      -8.279  17.918  67.968  1.00  0.00     0.000 HD 
HETATM   19  C   UNL     1      -9.745  14.904  66.114  1.00  0.00    -0.333 C  
HETATM   20  O   UNL     1     -10.133  17.215  65.436  1.00  0.00    -0.571 OA 
HETATM   21  H   UNL     1     -10.194  16.959  64.523  1.00  0.00     0.000 HD 
BRANCH  19  22
HETATM   22  C   UNL     1     -10.543  13.686  65.693  1.00  0.00    -0.294 C  
HETATM   23  C   UNL     1     -10.346  12.989  64.557  1.00  0.00    -0.386 C  
BRANCH  23  24
HETATM   24  C   UNL     1     -11.055  11.706  64.197  1.00  0.00    -0.364 C  
HETATM   25  F   UNL     1     -12.156  11.981  63.446  1.00  0.00    -0.529 F  
HETATM   26  F   UNL     1     -11.502  11.104  65.333  1.00  0.00    -0.162 F  
BRANCH  24  27
HETATM   27  C   UNL     1     -10.139  10.739  63.429  1.00  0.00    -0.284 C  
BRANCH  27  28
HETATM   28  O   UNL     1      -8.759  11.007  63.715  1.00  0.00    -0.072 OA 
BRANCH  28  29
HETATM   29  C   UNL     1      -8.180  10.182  64.641  1.00  0.00    -0.165 A  
HETATM   30  C   UNL     1      -6.931  10.591  65.112  1.00  0.00    -0.023 A  
HETATM   31  C   UNL     1      -6.248   9.827  66.061  1.00  0.00    -0.071 A  
HETATM   32  C   UNL     1      -6.821   8.657  66.556  1.00  0.00    -0.072 A  
HETATM   33  C   UNL     1      -8.078   8.255  66.105  1.00  0.00    -0.111 A  
HETATM   34  C   UNL     1      -8.759   9.016  65.150  1.00  0.00    -0.223 A  
ENDBRANCH  28  29
ENDBRANCH  27  28
ENDBRANCH  24  27
ENDBRANCH  23  24
ENDBRANCH  19  22
ENDBRANCH  12  13
ENDBRANCH  11  12
ENDBRANCH   9  10
ENDBRANCH   8   9
ENDBRANCH   7   8
ENDBRANCH   5   7
ENDBRANCH   4   5
ENDBRANCH   2   4
TORSDOF 13
ENDMDL
MODEL      176
REMARK 921   NORMALIZED FREE ENERGY PREDICTED BY IDOCK:   -4.47 KCAL/MOL
REMARK 922        TOTAL FREE ENERGY PREDICTED BY IDOCK:  -10.70 KCAL/MOL
REMARK 923 INTER-LIGAND FREE ENERGY PREDICTED BY IDOCK:   -8.97 KCAL/MOL
REMARK 924 INTRA-LIGAND FREE ENERGY PREDICTED BY IDOCK:   -1.73 KCAL/MOL
REMARK 927      BINDING AFFINITY PREDICTED BY RF-SCORE:    0.00 PKD
ROOT
HETATM    1  C   UNL     1     -10.645  19.092  66.508  1.00  0.00    -0.523 C  
HETATM    2  C   UNL     1      -9.942  17.886  65.894  1.00  0.00    -0.111 C  
HETATM    3  C   UNL     1      -8.605  17.632  66.579  1.00  0.00    -0.287 C  
ENDROOT
BRANCH   2   4
HETATM    4  O   UNL     1     -10.755  16.714  66.080  1.00  0.00    -0.249 OA 
BRANCH   4   5
HETATM    5  C   UNL     1     -11.158  16.092  64.937  1.00  0.00    -0.325 C  
HETATM    6  O   UNL     1     -11.655  16.646  63.966  1.00  0.00    -1.197 OA 
BRANCH   5   7
HETATM    7  C   UNL     1     -10.949  14.606  65.056  1.00  0.00    -0.415 C  
BRANCH   7   8
HETATM    8  C   UNL     1     -10.613  14.221  66.495  1.00  0.00    -0.286 C  
BRANCH   8   9
HETATM    9  C   UNL     1     -11.843  13.650  67.197  1.00  0.00    -0.435 C  
BRANCH   9  10
HETATM   10  C   UNL     1     -11.728  13.735  68.691  1.00  0.00    -0.391 C  
HETATM   11  C   UNL     1     -11.771  12.700  69.544  1.00  0.00    -0.374 C  
BRANCH  11  12
HETATM   12  C   UNL     1     -11.944  11.249  69.176  1.00  0.00    -0.405 C  
BRANCH  12  13
HETATM   13  C   UNL     1     -11.384  10.335  70.272  1.00  0.00    -0.398 C  
HETATM   14  C   UNL     1     -12.368  10.028  71.409  1.00  0.00    -0.415 C  
HETATM   15  C   UNL     1     -11.754   8.802  72.068  1.00  0.00    -0.442 C  
HETATM   16  O   UNL     1     -13.656   9.672  70.911  1.00  0.00    -0.570 OA 
HETATM   17  C   UNL     1     -11.327   7.944  70.877  1.00  0.00    -0.277 C  
HETATM   18  H   UNL     1     -14.265   9.481  71.615  1.00  0.00     0.000 HD 
HETATM   19  C   UNL     1     -10.970   8.937  69.741  1.00  0.00    -0.164 C  
HETATM   20  O   UNL     1     -12.416   7.113  70.468  1.00  0.00    -0.605 OA 
HETATM   21  H   UNL     1     -12.151   6.579  69.729  1.00  0.00     0.000 HD 
BRANCH  19  22
HETATM   22  C   UNL     1      -9.514   8.835  69.330  1.00  0.00    -0.161 C  
HETATM   23  C   UNL     1      -8.475   8.752  70.182  1.00  0.00    -0.139 C  
BRANCH  23  24
HETATM   24  C   UNL     1      -7.039   8.526  69.775  1.00  0.00    -0.051 C  
HETATM   25  F   UNL     1      -6.608   7.325  70.250  1.00  0.00    -0.042 F  
HETATM   26  F   UNL     1      -6.252   9.475  70.351  1.00  0.00    -0.040 F  
BRANCH  24  27
HETATM   27  C   UNL     1      -6.860   8.567  68.249  1.00  0.00    -0.066 C  
BRANCH  27  28
HETATM   28  O   UNL     1      -6.181   7.392  67.783  1.00  0.00    -0.040 OA 
BRANCH  28  29
HETATM   29  C   UNL     1      -6.949   6.518  67.061  1.00  0.00    -0.068 A  
HETATM   30  C   UNL     1      -6.332   5.310  66.728  1.00  0.00    -0.040 A  
HETATM   31  C   UNL     1      -7.022   4.343  65.994  1.00  0.00    -0.066 A  
HETATM   32  C   UNL     1      -8.339   4.573  65.604  1.00  0.00    -0.115 A  
HETATM   33  C   UNL     1      -8.967   5.769  65.952  1.00  0.00    -0.158 A  
HETATM   34  C   UNL     1      -8.275   6.740  66.681  1.00  0.00    -0.115 A  
ENDBRANCH  28  29
ENDBRANCH  27  28
ENDBRANCH  24  27
ENDBRANCH  23  24
ENDBRANCH  19  22
ENDBRANCH  12  13
ENDBRANCH  11  12
ENDBRANCH   9  10
ENDBRANCH   8   9
ENDBRANCH   7   8
ENDBRANCH   5   7
ENDBRANCH   4   5
ENDBRANCH   2   4
TORSDOF 13
ENDMDL
MODEL      177
REMARK 921   NORMALIZED FREE ENERGY PREDICTED BY IDOCK:   -4.45 KCAL/MOL
REMARK 922        TOTAL FREE ENERGY PREDICTED BY IDOCK:  -10.67 KCAL/MOL
REMARK 923 INTER-LIGAND FREE ENERGY PREDICTED BY IDOCK:   -8.85 KCAL/MOL
REMARK 924 INTRA-LIGAND FREE ENERGY PREDICTED BY IDOCK:   -1.82 KCAL/MOL
REMARK 927      BINDING AFFINITY PREDICTED BY RF-SCORE:    0.00 PKD
ROOT
HETATM    1  C   UNL     1     -11.360   6.481  68.802  1.00  0.00    -0.237 C  
HETATM    2  C   UNL     1     -11.026   5.788  70.118  1.00  0.00    -0.298 C  
HETATM    3  C   UNL     1      -9.873   4.809  69.937  1.00  0.00    -0.291 C  
ENDROOT
BRANCH   2   4
HETATM    4  O   UNL     1     -10.614   6.771  71.085  1.00  0.00    -0.220 OA 
BRANCH   4   5
HETATM    5  C   UNL     1     -11.587   7.631  71.496  1.00  0.00    -0.274 C  
HETATM    6  O   UNL     1     -12.737   7.322  71.772  1.00  0.00    -0.332 OA 
BRANCH   5   7
HETATM    7  C   UNL     1     -11.055   9.040  71.515  1.00  0.00    -0.419 C  
BRANCH   7   8
HETATM    8  C   UNL     1     -11.876   9.940  70.594  1.00  0.00    -0.386 C  
BRANCH   8   9
HETATM    9  C   UNL     1     -10.958  10.782  69.711  1.00  0.00    -0.314 C  
BRANCH   9  10
HETATM   10  C   UNL     1     -11.596  11.121  68.396  1.00  0.00    -0.376 C  
HETATM   11  C   UNL     1     -10.962  11.228  67.218  1.00  0.00    -0.342 C  
BRANCH  11  12
HETATM   12  C   UNL     1      -9.488  11.032  66.978  1.00  0.00    -0.191 C  
BRANCH  12  13
HETATM   13  C   UNL     1      -9.107  11.433  65.549  1.00  0.00    -0.149 C  
HETATM   14  C   UNL     1      -8.833  10.252  64.608  1.00  0.00    -0.199 C  
HETATM   15  C   UNL     1      -8.935  10.886  63.229  1.00  0.00    -0.204 C  
HETATM   16  O   UNL     1      -9.838   9.247  64.716  1.00  0.00    -0.333 OA 
HETATM   17  C   UNL     1     -10.167  11.783  63.348  1.00  0.00    -0.449 C  
HETATM   18  H   UNL     1      -9.669   8.516  64.132  1.00  0.00     0.000 HD 
HETATM   19  C   UNL     1     -10.220  12.241  64.829  1.00  0.00    -0.308 C  
HETATM   20  O   UNL     1     -11.341  11.033  63.032  1.00  0.00    -0.738 OA 
HETATM   21  H   UNL     1     -12.107  11.590  63.106  1.00  0.00     0.000 HD 
BRANCH  19  22
HETATM   22  C   UNL     1     -10.083  13.745  64.967  1.00  0.00    -0.310 C  
HETATM   23  C   UNL     1     -10.531  14.468  66.011  1.00  0.00    -0.315 C  
BRANCH  23  24
HETATM   24  C   UNL     1     -10.286  15.944  66.208  1.00  0.00    -0.311 C  
HETATM   25  F   UNL     1     -11.266  16.662  65.593  1.00  0.00    -0.118 F  
HETATM   26  F   UNL     1      -9.116  16.292  65.606  1.00  0.00    -0.330 F  
BRANCH  24  27
HETATM   27  C   UNL     1     -10.231  16.325  67.697  1.00  0.00    -0.272 C  
BRANCH  27  28
HETATM   28  O   UNL     1      -9.347  15.451  68.415  1.00  0.00    -0.185 OA 
BRANCH  28  29
HETATM   29  C   UNL     1      -8.095  15.950  68.654  1.00  0.00    -0.162 A  
HETATM   30  C   UNL     1      -7.053  15.024  68.571  1.00  0.00    -0.110 A  
HETATM   31  C   UNL     1      -5.734  15.423  68.794  1.00  0.00    -0.092 A  
HETATM   32  C   UNL     1      -5.449  16.755  69.086  1.00  0.00    -0.141 A  
HETATM   33  C   UNL     1      -6.483  17.689  69.150  1.00  0.00    -0.237 A  
HETATM   34  C   UNL     1      -7.805  17.289  68.933  1.00  0.00    -0.206 A  
ENDBRANCH  28  29
ENDBRANCH  27  28
ENDBRANCH  24  27
ENDBRANCH  23  24
ENDBRANCH  19  22
ENDBRANCH  12  13
ENDBRANCH  11  12
ENDBRANCH   9  10
ENDBRANCH   8   9
ENDBRANCH   7   8
ENDBRANCH   5   7
ENDBRANCH   4   5
ENDBRANCH   2   4
TORSDOF 13
ENDMDL
MODEL      178
REMARK 921   NORMALIZED FREE ENERGY PREDICTED BY IDOCK:   -4.45 KCAL/MOL
REMARK 922        TOTAL FREE ENERGY PREDICTED BY IDOCK:  -10.67 KCAL/MOL
REMARK 923 INTER-LIGAND FREE ENERGY PREDICTED BY IDOCK:   -8.67 KCAL/MOL
REMARK 924 INTRA-LIGAND FREE ENERGY PREDICTED BY IDOCK:   -2.00 KCAL/MOL
REMARK 927      BINDING AFFINITY PREDICTED BY RF-SCORE:    0.00 PKD
ROOT
HETATM    1  C   UNL     1      -5.388   5.281  67.040  1.00  0.00    -0.008 C  
HETATM    2  C   UNL     1      -6.612   6.186  67.139  1.00  0.00    -0.055 C  
HETATM    3  C   UNL     1      -7.619   5.856  66.044  1.00  0.00    -0.086 C  
ENDROOT
BRANCH   2   4
HETATM    4  O   UNL     1      -7.262   5.973  68.405  1.00  0.00    -0.079 OA 
BRANCH   4   5
HETATM    5  C   UNL     1      -8.063   4.874  68.475  1.00  0.00    -0.085 C  
HETATM    6  O   UNL     1      -7.706   3.722  68.270  1.00  0.00    -0.064 OA 
BRANCH   5   7
HETATM    7  C   UNL     1      -9.477   5.284  68.793  1.00  0.00    -0.171 C  
BRANCH   7   8
HETATM    8  C   UNL     1      -9.491   6.495  69.723  1.00  0.00    -0.155 C  
BRANCH   8   9
HETATM    9  C   UNL     1      -9.211   6.067  71.162  1.00  0.00    -0.160 C  
BRANCH   9  10
HETATM   10  C   UNL     1     -10.408   5.427  71.801  1.00  0.00    -0.271 C  
HETATM   11  C   UNL     1     -11.360   6.061  72.503  1.00  0.00    -0.344 C  
BRANCH  11  12
HETATM   12  C   UNL     1     -11.420   7.539  72.789  1.00  0.00    -0.352 C  
BRANCH  12  13
HETATM   13  C   UNL     1     -12.264   8.268  71.738  1.00  0.00    -0.367 C  
HETATM   14  C   UNL     1     -13.749   8.407  72.099  1.00  0.00    -0.333 C  
HETATM   15  C   UNL     1     -14.223   9.510  71.166  1.00  0.00     0.196 C  
HETATM   16  O   UNL     1     -13.927   8.848  73.443  1.00  0.00    -1.236 OA 
HETATM   17  C   UNL     1     -13.094  10.537  71.238  1.00  0.00    -0.383 C  
HETATM   18  H   UNL     1     -14.847   8.934  73.666  1.00  0.00     0.000 HD 
HETATM   19  C   UNL     1     -11.795   9.727  71.492  1.00  0.00    -0.476 C  
HETATM   20  O   UNL     1     -13.326  11.432  72.328  1.00  0.00    -0.629 OA 
HETATM   21  H   UNL     1     -12.624  12.071  72.373  1.00  0.00     0.000 HD 
BRANCH  19  22
HETATM   22  C   UNL     1     -10.798   9.877  70.359  1.00  0.00    -0.380 C  
HETATM   23  C   UNL     1     -11.101   9.799  69.049  1.00  0.00    -0.143 C  
BRANCH  23  24
HETATM   24  C   UNL     1     -10.134  10.071  67.922  1.00  0.00    -0.169 C  
HETATM   25  F   UNL     1     -10.467   9.319  66.836  1.00  0.00    -0.294 F  
HETATM   26  F   UNL     1      -8.885   9.681  68.295  1.00  0.00    -0.118 F  
BRANCH  24  27
HETATM   27  C   UNL     1     -10.112  11.557  67.528  1.00  0.00    -0.183 C  
BRANCH  27  28
HETATM   28  O   UNL     1     -11.418  12.139  67.660  1.00  0.00    -0.287 OA 
BRANCH  28  29
HETATM   29  C   UNL     1     -11.467  13.317  68.356  1.00  0.00    -0.314 A  
HETATM   30  C   UNL     1     -10.938  14.428  67.695  1.00  0.00    -0.294 A  
HETATM   31  C   UNL     1     -10.939  15.682  68.309  1.00  0.00    -0.315 A  
HETATM   32  C   UNL     1     -11.483  15.834  69.582  1.00  0.00    -0.348 A  
HETATM   33  C   UNL     1     -12.031  14.733  70.238  1.00  0.00    -0.367 A  
HETATM   34  C   UNL     1     -12.026  13.476  69.627  1.00  0.00    -0.397 A  
ENDBRANCH  28  29
ENDBRANCH  27  28
ENDBRANCH  24  27
ENDBRANCH  23  24
ENDBRANCH  19  22
ENDBRANCH  12  13
ENDBRANCH  11  12
ENDBRANCH   9  10
ENDBRANCH   8   9
ENDBRANCH   7   8
ENDBRANCH   5   7
ENDBRANCH   4   5
ENDBRANCH   2   4
TORSDOF 13
ENDMDL
MODEL      179
REMARK 921   NORMALIZED FREE ENERGY PREDICTED BY IDOCK:   -4.44 KCAL/MOL
REMARK 922        TOTAL FREE ENERGY PREDICTED BY IDOCK:  -10.65 KCAL/MOL
REMARK 923 INTER-LIGAND FREE ENERGY PREDICTED BY IDOCK:   -8.30 KCAL/MOL
REMARK 924 INTRA-LIGAND FREE ENERGY PREDICTED BY IDOCK:   -2.35 KCAL/MOL
REMARK 927      BINDING AFFINITY PREDICTED BY RF-SCORE:    0.00 PKD
ROOT
HETATM    1  C   UNL     1     -12.368  14.160  64.539  1.00  0.00    -0.419 C  
HETATM    2  C   UNL     1     -12.630  12.666  64.699  1.00  0.00    -0.440 C  
HETATM    3  C   UNL     1     -12.619  11.968  63.344  1.00  0.00    -0.592 C  
ENDROOT
BRANCH   2   4
HETATM    4  O   UNL     1     -11.586  12.080  65.497  1.00  0.00    -0.350 OA 
BRANCH   4   5
HETATM    5  C   UNL     1     -10.488  11.661  64.809  1.00  0.00    -0.295 C  
HETATM    6  O   UNL     1      -9.868  12.324  63.990  1.00  0.00    -0.261 OA 
BRANCH   5   7
HETATM    7  C   UNL     1     -10.170  10.232  65.165  1.00  0.00    -0.295 C  
BRANCH   7   8
HETATM    8  C   UNL     1      -8.706   9.914  64.868  1.00  0.00    -0.198 C  
BRANCH   8   9
HETATM    9  C   UNL     1      -8.184   8.850  65.831  1.00  0.00    -0.119 C  
BRANCH   9  10
HETATM   10  C   UNL     1      -9.057   7.630  65.847  1.00  0.00    -0.101 C  
HETATM   11  C   UNL     1      -9.355   6.889  66.927  1.00  0.00    -0.177 C  
BRANCH  11  12
HETATM   12  C   UNL     1      -8.873   7.131  68.333  1.00  0.00    -0.127 C  
BRANCH  12  13
HETATM   13  C   UNL     1      -9.740   8.181  69.037  1.00  0.00    -0.163 C  
HETATM   14  C   UNL     1     -10.890   7.602  69.872  1.00  0.00    -0.235 C  
HETATM   15  C   UNL     1     -11.269   8.763  70.779  1.00  0.00    -0.309 C  
HETATM   16  O   UNL     1     -10.454   6.518  70.690  1.00  0.00    -0.204 OA 
HETATM   17  C   UNL     1      -9.915   9.317  71.220  1.00  0.00    -0.271 C  
HETATM   18  H   UNL     1     -11.166   6.160  71.208  1.00  0.00     0.000 HD 
HETATM   19  C   UNL     1      -8.940   9.051  70.043  1.00  0.00    -0.184 C  
HETATM   20  O   UNL     1      -9.467   8.623  72.386  1.00  0.00    -0.284 OA 
HETATM   21  H   UNL     1      -8.626   8.968  72.660  1.00  0.00     0.000 HD 
BRANCH  19  22
HETATM   22  C   UNL     1      -8.390  10.335  69.454  1.00  0.00    -0.169 C  
HETATM   23  C   UNL     1      -9.049  11.134  68.594  1.00  0.00    -0.166 C  
BRANCH  23  24
HETATM   24  C   UNL     1      -8.553  12.473  68.105  1.00  0.00    -0.189 C  
HETATM   25  F   UNL     1      -7.997  12.338  66.870  1.00  0.00    -0.167 F  
HETATM   26  F   UNL     1      -7.564  12.916  68.929  1.00  0.00    -0.116 F  
BRANCH  24  27
HETATM   27  C   UNL     1      -9.679  13.518  68.047  1.00  0.00    -0.228 C  
BRANCH  27  28
HETATM   28  O   UNL     1      -9.575  14.315  66.859  1.00  0.00    -0.242 OA 
BRANCH  28  29
HETATM   29  C   UNL     1      -9.918  15.633  67.004  1.00  0.00    -0.240 A  
HETATM   30  C   UNL     1     -10.174  16.046  68.313  1.00  0.00    -0.237 A  
HETATM   31  C   UNL     1     -10.530  17.370  68.579  1.00  0.00    -0.370 A  
HETATM   32  C   UNL     1     -10.615  18.291  67.537  1.00  0.00    -0.432 A  
HETATM   33  C   UNL     1     -10.340  17.889  66.231  1.00  0.00    -0.364 A  
HETATM   34  C   UNL     1      -9.990  16.563  65.963  1.00  0.00    -0.359 A  
ENDBRANCH  28  29
ENDBRANCH  27  28
ENDBRANCH  24  27
ENDBRANCH  23  24
ENDBRANCH  19  22
ENDBRANCH  12  13
ENDBRANCH  11  12
ENDBRANCH   9  10
ENDBRANCH   8   9
ENDBRANCH   7   8
ENDBRANCH   5   7
ENDBRANCH   4   5
ENDBRANCH   2   4
TORSDOF 13
ENDMDL
MODEL      180
REMARK 921   NORMALIZED FREE ENERGY PREDICTED BY IDOCK:   -4.43 KCAL/MOL
REMARK 922        TOTAL FREE ENERGY PREDICTED BY IDOCK:  -10.64 KCAL/MOL
REMARK 923 INTER-LIGAND FREE ENERGY PREDICTED BY IDOCK:   -8.45 KCAL/MOL
REMARK 924 INTRA-LIGAND FREE ENERGY PREDICTED BY IDOCK:   -2.19 KCAL/MOL
REMARK 927      BINDING AFFINITY PREDICTED BY RF-SCORE:    0.00 PKD
ROOT
HETATM    1  C   UNL     1     -11.423  15.402  64.750  1.00  0.00    -0.337 C  
HETATM    2  C   UNL     1     -11.277  14.108  65.543  1.00  0.00    -0.317 C  
HETATM    3  C   UNL     1     -12.499  13.217  65.354  1.00  0.00    -0.543 C  
ENDROOT
BRANCH   2   4
HETATM    4  O   UNL     1     -10.132  13.381  65.066  1.00  0.00    -0.301 OA 
BRANCH   4   5
HETATM    5  C   UNL     1      -9.895  12.190  65.684  1.00  0.00    -0.237 C  
HETATM    6  O   UNL     1     -10.004  11.088  65.164  1.00  0.00    -0.243 OA 
BRANCH   5   7
HETATM    7  C   UNL     1      -9.525  12.420  67.125  1.00  0.00    -0.198 C  
BRANCH   7   8
HETATM    8  C   UNL     1      -8.644  13.660  67.266  1.00  0.00    -0.220 C  
BRANCH   8   9
HETATM    9  C   UNL     1      -8.461  14.021  68.738  1.00  0.00    -0.038 C  
BRANCH   9  10
HETATM   10  C   UNL     1      -8.867  15.436  69.025  1.00  0.00    -0.231 C  
HETATM   11  C   UNL     1     -10.107  15.855  69.321  1.00  0.00    -0.249 C  
BRANCH  11  12
HETATM   12  C   UNL     1     -11.338  14.992  69.424  1.00  0.00    -0.314 C  
BRANCH  12  13
HETATM   13  C   UNL     1     -11.446  14.355  70.814  1.00  0.00    -0.140 C  
HETATM   14  C   UNL     1     -11.486  15.360  71.973  1.00  0.00    -0.434 C  
HETATM   15  C   UNL     1     -12.037  14.530  73.123  1.00  0.00    -0.105 C  
HETATM   16  O   UNL     1     -12.394  16.429  71.715  1.00  0.00    -0.584 OA 
HETATM   17  C   UNL     1     -13.169  13.738  72.469  1.00  0.00    -0.498 C  
HETATM   18  H   UNL     1     -12.419  17.050  72.434  1.00  0.00     0.000 HD 
HETATM   19  C   UNL     1     -12.739  13.515  70.995  1.00  0.00    -0.399 C  
HETATM   20  O   UNL     1     -14.377  14.500  72.510  1.00  0.00    -0.479 OA 
HETATM   21  H   UNL     1     -15.080  14.008  72.104  1.00  0.00     0.000 HD 
BRANCH  19  22
HETATM   22  C   UNL     1     -12.576  12.045  70.663  1.00  0.00    -0.255 C  
HETATM   23  C   UNL     1     -12.347  11.071  71.564  1.00  0.00    -0.299 C  
BRANCH  23  24
HETATM   24  C   UNL     1     -12.309   9.595  71.250  1.00  0.00    -0.360 C  
HETATM   25  F   UNL     1     -13.575   9.096  71.220  1.00  0.00    -0.378 F  
HETATM   26  F   UNL     1     -11.658   8.938  72.248  1.00  0.00    -0.414 F  
BRANCH  24  27
HETATM   27  C   UNL     1     -11.614   9.310  69.908  1.00  0.00     0.107 C  
BRANCH  27  28
HETATM   28  O   UNL     1     -10.692   8.217  70.033  1.00  0.00    -0.237 OA 
BRANCH  28  29
HETATM   29  C   UNL     1      -9.560   8.315  69.270  1.00  0.00    -0.164 A  
HETATM   30  C   UNL     1      -8.735   9.406  69.555  1.00  0.00    -0.162 A  
HETATM   31  C   UNL     1      -7.552   9.603  68.840  1.00  0.00    -0.076 A  
HETATM   32  C   UNL     1      -7.181   8.701  67.846  1.00  0.00    -0.088 A  
HETATM   33  C   UNL     1      -7.989   7.599  67.571  1.00  0.00    -0.120 A  
HETATM   34  C   UNL     1      -9.176   7.404  68.282  1.00  0.00    -0.137 A  
ENDBRANCH  28  29
ENDBRANCH  27  28
ENDBRANCH  24  27
ENDBRANCH  23  24
ENDBRANCH  19  22
ENDBRANCH  12  13
ENDBRANCH  11  12
ENDBRANCH   9  10
ENDBRANCH   8   9
ENDBRANCH   7   8
ENDBRANCH   5   7
ENDBRANCH   4   5
ENDBRANCH   2   4
TORSDOF 13
ENDMDL
MODEL      181
REMARK 921   NORMALIZED FREE ENERGY PREDICTED BY IDOCK:   -4.43 KCAL/MOL
REMARK 922        TOTAL FREE ENERGY PREDICTED BY IDOCK:  -10.63 KCAL/MOL
REMARK 923 INTER-LIGAND FREE ENERGY PREDICTED BY IDOCK:   -8.73 KCAL/MOL
REMARK 924 INTRA-LIGAND FREE ENERGY PREDICTED BY IDOCK:   -1.91 KCAL/MOL
REMARK 927      BINDING AFFINITY PREDICTED BY RF-SCORE:    0.00 PKD
ROOT
HETATM    1  C   UNL     1     -11.000  17.027  68.200  1.00  0.00    -0.263 C  
HETATM    2  C   UNL     1      -9.992  18.059  67.705  1.00  0.00    -0.329 C  
HETATM    3  C   UNL     1     -10.701  19.221  67.020  1.00  0.00    -0.565 C  
ENDROOT
BRANCH   2   4
HETATM    4  O   UNL     1      -9.265  18.593  68.825  1.00  0.00    -0.330 OA 
BRANCH   4   5
HETATM    5  C   UNL     1      -7.926  18.751  68.633  1.00  0.00    -0.336 C  
HETATM    6  O   UNL     1      -7.292  19.771  68.863  1.00  0.00    -0.338 OA 
BRANCH   5   7
HETATM    7  C   UNL     1      -7.337  17.497  68.042  1.00  0.00    -0.208 C  
BRANCH   7   8
HETATM    8  C   UNL     1      -6.511  16.745  69.083  1.00  0.00    -0.208 C  
BRANCH   8   9
HETATM    9  C   UNL     1      -5.875  15.502  68.466  1.00  0.00    -0.099 C  
BRANCH   9  10
HETATM   10  C   UNL     1      -6.340  14.241  69.134  1.00  0.00    -0.104 C  
HETATM   11  C   UNL     1      -7.277  13.402  68.666  1.00  0.00    -0.107 C  
BRANCH  11  12
HETATM   12  C   UNL     1      -8.049  13.555  67.382  1.00  0.00    -0.184 C  
BRANCH  12  13
HETATM   13  C   UNL     1      -9.451  12.948  67.509  1.00  0.00    -0.198 C  
HETATM   14  C   UNL     1     -10.554  13.739  66.792  1.00  0.00    -0.273 C  
HETATM   15  C   UNL     1     -11.685  12.727  66.690  1.00  0.00    -0.459 C  
HETATM   16  O   UNL     1     -10.164  14.112  65.472  1.00  0.00    -0.320 OA 
HETATM   17  C   UNL     1     -10.967  11.443  66.275  1.00  0.00    -0.247 C  
HETATM   18  H   UNL     1     -10.847  14.601  65.029  1.00  0.00     0.000 HD 
HETATM   19  C   UNL     1      -9.551  11.523  66.904  1.00  0.00    -0.203 C  
HETATM   20  O   UNL     1     -10.861  11.390  64.850  1.00  0.00    -0.297 OA 
HETATM   21  H   UNL     1     -10.415  10.592  64.593  1.00  0.00     0.000 HD 
BRANCH  19  22
HETATM   22  C   UNL     1      -9.305  10.407  67.899  1.00  0.00    -0.147 C  
HETATM   23  C   UNL     1      -9.458   9.094  67.641  1.00  0.00    -0.164 C  
BRANCH  23  24
HETATM   24  C   UNL     1      -9.093   7.978  68.591  1.00  0.00    -0.140 C  
HETATM   25  F   UNL     1      -8.312   8.463  69.595  1.00  0.00    -0.113 F  
HETATM   26  F   UNL     1      -8.346   7.052  67.932  1.00  0.00    -0.114 F  
BRANCH  24  27
HETATM   27  C   UNL     1     -10.338   7.303  69.190  1.00  0.00    -0.205 C  
BRANCH  27  28
HETATM   28  O   UNL     1     -10.421   7.548  70.601  1.00  0.00    -0.212 OA 
BRANCH  28  29
HETATM   29  C   UNL     1     -11.646   7.961  71.053  1.00  0.00    -0.282 A  
HETATM   30  C   UNL     1     -11.745   9.319  71.365  1.00  0.00    -0.431 A  
HETATM   31  C   UNL     1     -12.948   9.851  71.833  1.00  0.00    -0.545 A  
HETATM   32  C   UNL     1     -14.063   9.029  71.976  1.00  0.00    -0.434 A  
HETATM   33  C   UNL     1     -13.977   7.677  71.647  1.00  0.00    -0.510 A  
HETATM   34  C   UNL     1     -12.771   7.142  71.184  1.00  0.00    -0.363 A  
ENDBRANCH  28  29
ENDBRANCH  27  28
ENDBRANCH  24  27
ENDBRANCH  23  24
ENDBRANCH  19  22
ENDBRANCH  12  13
ENDBRANCH  11  12
ENDBRANCH   9  10
ENDBRANCH   8   9
ENDBRANCH   7   8
ENDBRANCH   5   7
ENDBRANCH   4   5
ENDBRANCH   2   4
TORSDOF 13
ENDMDL
MODEL      182
REMARK 921   NORMALIZED FREE ENERGY PREDICTED BY IDOCK:   -4.43 KCAL/MOL
REMARK 922        TOTAL FREE ENERGY PREDICTED BY IDOCK:  -10.63 KCAL/MOL
REMARK 923 INTER-LIGAND FREE ENERGY PREDICTED BY IDOCK:   -8.13 KCAL/MOL
REMARK 924 INTRA-LIGAND FREE ENERGY PREDICTED BY IDOCK:   -2.50 KCAL/MOL
REMARK 927      BINDING AFFINITY PREDICTED BY RF-SCORE:    0.00 PKD
ROOT
HETATM    1  C   UNL     1      -9.980   3.130  72.260  1.00  0.00    -0.236 C  
HETATM    2  C   UNL     1     -10.797   4.254  72.889  1.00  0.00    -0.145 C  
HETATM    3  C   UNL     1     -10.552   4.325  74.391  1.00  0.00    -0.271 C  
ENDROOT
BRANCH   2   4
HETATM    4  O   UNL     1     -10.394   5.513  72.322  1.00  0.00    -0.196 OA 
BRANCH   4   5
HETATM    5  C   UNL     1     -11.344   6.490  72.330  1.00  0.00    -0.282 C  
HETATM    6  O   UNL     1     -12.447   6.410  71.808  1.00  0.00    -0.316 OA 
BRANCH   5   7
HETATM    7  C   UNL     1     -10.821   7.713  73.036  1.00  0.00    -0.457 C  
BRANCH   7   8
HETATM    8  C   UNL     1     -10.208   8.692  72.037  1.00  0.00    -0.407 C  
BRANCH   8   9
HETATM    9  C   UNL     1     -11.295   9.551  71.395  1.00  0.00    -0.462 C  
BRANCH   9  10
HETATM   10  C   UNL     1     -10.862  10.109  70.071  1.00  0.00    -0.361 C  
HETATM   11  C   UNL     1     -10.628   9.399  68.956  1.00  0.00    -0.233 C  
BRANCH  11  12
HETATM   12  C   UNL     1     -10.751   7.905  68.809  1.00  0.00    -0.082 C  
BRANCH  12  13
HETATM   13  C   UNL     1      -9.415   7.283  68.386  1.00  0.00    -0.142 C  
HETATM   14  C   UNL     1      -9.006   6.044  69.193  1.00  0.00    -0.124 C  
HETATM   15  C   UNL     1      -7.950   5.397  68.310  1.00  0.00    -0.088 C  
HETATM   16  O   UNL     1     -10.090   5.129  69.341  1.00  0.00    -0.205 OA 
HETATM   17  C   UNL     1      -8.554   5.504  66.910  1.00  0.00    -0.110 C  
HETATM   18  H   UNL     1      -9.836   4.361  69.840  1.00  0.00     0.000 HD 
HETATM   19  C   UNL     1      -9.415   6.795  66.913  1.00  0.00    -0.189 C  
HETATM   20  O   UNL     1      -9.385   4.370  66.656  1.00  0.00    -0.137 OA 
HETATM   21  H   UNL     1      -9.760   4.436  65.785  1.00  0.00     0.000 HD 
BRANCH  19  22
HETATM   22  C   UNL     1      -8.909   7.822  65.919  1.00  0.00    -0.176 C  
HETATM   23  C   UNL     1      -8.217   7.536  64.800  1.00  0.00    -0.068 C  
BRANCH  23  24
HETATM   24  C   UNL     1      -7.822   8.545  63.747  1.00  0.00    -0.150 C  
HETATM   25  F   UNL     1      -8.316   8.166  62.536  1.00  0.00    -0.169 F  
HETATM   26  F   UNL     1      -6.467   8.562  63.625  1.00  0.00    -0.077 F  
BRANCH  24  27
HETATM   27  C   UNL     1      -8.326   9.957  64.086  1.00  0.00    -0.168 C  
BRANCH  27  28
HETATM   28  O   UNL     1      -9.638  10.173  63.549  1.00  0.00    -0.293 OA 
BRANCH  28  29
HETATM   29  C   UNL     1     -10.440  11.011  64.278  1.00  0.00    -0.359 A  
HETATM   30  C   UNL     1     -11.405  11.706  63.546  1.00  0.00    -0.447 A  
HETATM   31  C   UNL     1     -12.280  12.586  64.187  1.00  0.00    -0.552 A  
HETATM   32  C   UNL     1     -12.202  12.763  65.567  1.00  0.00    -0.519 A  
HETATM   33  C   UNL     1     -11.255  12.056  66.305  1.00  0.00    -0.394 A  
HETATM   34  C   UNL     1     -10.375  11.179  65.664  1.00  0.00    -0.311 A  
ENDBRANCH  28  29
ENDBRANCH  27  28
ENDBRANCH  24  27
ENDBRANCH  23  24
ENDBRANCH  19  22
ENDBRANCH  12  13
ENDBRANCH  11  12
ENDBRANCH   9  10
ENDBRANCH   8   9
ENDBRANCH   7   8
ENDBRANCH   5   7
ENDBRANCH   4   5
ENDBRANCH   2   4
TORSDOF 13
ENDMDL
MODEL      183
REMARK 921   NORMALIZED FREE ENERGY PREDICTED BY IDOCK:   -4.41 KCAL/MOL
REMARK 922        TOTAL FREE ENERGY PREDICTED BY IDOCK:  -10.59 KCAL/MOL
REMARK 923 INTER-LIGAND FREE ENERGY PREDICTED BY IDOCK:   -7.26 KCAL/MOL
REMARK 924 INTRA-LIGAND FREE ENERGY PREDICTED BY IDOCK:   -3.33 KCAL/MOL
REMARK 927      BINDING AFFINITY PREDICTED BY RF-SCORE:    0.00 PKD
ROOT
HETATM    1  C   UNL     1      -8.556   7.635  74.019  1.00  0.00    -0.297 C  
HETATM    2  C   UNL     1      -9.154   6.877  72.839  1.00  0.00    -0.130 C  
HETATM    3  C   UNL     1      -8.460   5.533  72.653  1.00  0.00    -0.117 C  
ENDROOT
BRANCH   2   4
HETATM    4  O   UNL     1     -10.546   6.616  73.094  1.00  0.00    -0.235 OA 
BRANCH   4   5
HETATM    5  C   UNL     1     -11.422   7.238  72.256  1.00  0.00    -0.278 C  
HETATM    6  O   UNL     1     -11.905   8.347  72.432  1.00  0.00    -0.372 OA 
BRANCH   5   7
HETATM    7  C   UNL     1     -11.754   6.338  71.095  1.00  0.00    -0.292 C  
BRANCH   7   8
HETATM    8  C   UNL     1     -11.460   7.035  69.769  1.00  0.00    -0.177 C  
BRANCH   8   9
HETATM    9  C   UNL     1     -10.770   6.076  68.802  1.00  0.00    -0.375 C  
BRANCH   9  10
HETATM   10  C   UNL     1      -9.321   6.415  68.612  1.00  0.00    -0.124 C  
HETATM   11  C   UNL     1      -8.821   7.235  67.674  1.00  0.00    -0.123 C  
BRANCH  11  12
HETATM   12  C   UNL     1      -9.609   7.977  66.627  1.00  0.00    -0.297 C  
BRANCH  12  13
HETATM   13  C   UNL     1      -8.690   8.842  65.758  1.00  0.00    -0.205 C  
HETATM   14  C   UNL     1      -7.649   8.054  64.952  1.00  0.00    -0.106 C  
HETATM   15  C   UNL     1      -7.215   9.052  63.889  1.00  0.00    -0.096 C  
HETATM   16  O   UNL     1      -8.229   6.927  64.299  1.00  0.00    -0.289 OA 
HETATM   17  C   UNL     1      -8.534   9.680  63.442  1.00  0.00    -0.188 C  
HETATM   18  H   UNL     1      -7.584   6.439  63.800  1.00  0.00     0.000 HD 
HETATM   19  C   UNL     1      -9.461   9.658  64.686  1.00  0.00    -0.221 C  
HETATM   20  O   UNL     1      -9.110   8.897  62.395  1.00  0.00    -0.470 OA 
HETATM   21  H   UNL     1      -9.930   9.288  62.117  1.00  0.00     0.000 HD 
BRANCH  19  22
HETATM   22  C   UNL     1      -9.855  11.052  65.131  1.00  0.00    -0.319 C  
HETATM   23  C   UNL     1     -11.111  11.446  65.415  1.00  0.00    -0.196 C  
BRANCH  23  24
HETATM   24  C   UNL     1     -11.487  12.796  65.978  1.00  0.00    -0.350 C  
HETATM   25  F   UNL     1     -12.483  13.347  65.230  1.00  0.00    -0.407 F  
HETATM   26  F   UNL     1     -10.421  13.636  65.883  1.00  0.00    -0.274 F  
BRANCH  24  27
HETATM   27  C   UNL     1     -11.940  12.703  67.444  1.00  0.00    -0.242 C  
BRANCH  27  28
HETATM   28  O   UNL     1     -10.921  13.196  68.325  1.00  0.00    -0.234 OA 
BRANCH  28  29
HETATM   29  C   UNL     1      -9.975  12.280  68.699  1.00  0.00    -0.118 A  
HETATM   30  C   UNL     1     -10.466  11.127  69.315  1.00  0.00    -0.183 A  
HETATM   31  C   UNL     1      -9.591  10.123  69.737  1.00  0.00    -0.213 A  
HETATM   32  C   UNL     1      -8.221  10.262  69.529  1.00  0.00    -0.165 A  
HETATM   33  C   UNL     1      -7.726  11.401  68.896  1.00  0.00    -0.108 A  
HETATM   34  C   UNL     1      -8.601  12.409  68.479  1.00  0.00    -0.060 A  
ENDBRANCH  28  29
ENDBRANCH  27  28
ENDBRANCH  24  27
ENDBRANCH  23  24
ENDBRANCH  19  22
ENDBRANCH  12  13
ENDBRANCH  11  12
ENDBRANCH   9  10
ENDBRANCH   8   9
ENDBRANCH   7   8
ENDBRANCH   5   7
ENDBRANCH   4   5
ENDBRANCH   2   4
TORSDOF 13
ENDMDL
MODEL      184
REMARK 921   NORMALIZED FREE ENERGY PREDICTED BY IDOCK:   -4.41 KCAL/MOL
REMARK 922        TOTAL FREE ENERGY PREDICTED BY IDOCK:  -10.59 KCAL/MOL
REMARK 923 INTER-LIGAND FREE ENERGY PREDICTED BY IDOCK:   -8.54 KCAL/MOL
REMARK 924 INTRA-LIGAND FREE ENERGY PREDICTED BY IDOCK:   -2.05 KCAL/MOL
REMARK 927      BINDING AFFINITY PREDICTED BY RF-SCORE:    0.00 PKD
ROOT
HETATM    1  C   UNL     1     -10.221  15.051  66.798  1.00  0.00    -0.260 C  
HETATM    2  C   UNL     1      -8.760  15.471  66.925  1.00  0.00    -0.250 C  
HETATM    3  C   UNL     1      -8.535  16.839  66.293  1.00  0.00    -0.342 C  
ENDROOT
BRANCH   2   4
HETATM    4  O   UNL     1      -8.411  15.572  68.316  1.00  0.00    -0.142 OA 
BRANCH   4   5
HETATM    5  C   UNL     1      -7.363  14.798  68.714  1.00  0.00    -0.129 C  
HETATM    6  O   UNL     1      -6.700  14.969  69.728  1.00  0.00    -0.159 OA 
BRANCH   5   7
HETATM    7  C   UNL     1      -7.099  13.721  67.695  1.00  0.00    -0.187 C  
BRANCH   7   8
HETATM    8  C   UNL     1      -7.166  12.338  68.340  1.00  0.00    -0.102 C  
BRANCH   8   9
HETATM    9  C   UNL     1      -8.612  11.855  68.420  1.00  0.00    -0.152 C  
BRANCH   9  10
HETATM   10  C   UNL     1      -8.954  10.916  67.301  1.00  0.00    -0.139 C  
HETATM   11  C   UNL     1      -8.975   9.576  67.375  1.00  0.00    -0.141 C  
BRANCH  11  12
HETATM   12  C   UNL     1      -8.658   8.747  68.592  1.00  0.00    -0.134 C  
BRANCH  12  13
HETATM   13  C   UNL     1      -9.740   7.687  68.830  1.00  0.00    -0.156 C  
HETATM   14  C   UNL     1      -9.378   6.284  68.326  1.00  0.00    -0.112 C  
HETATM   15  C   UNL     1     -10.363   5.392  69.068  1.00  0.00    -0.282 C  
HETATM   16  O   UNL     1      -8.057   5.909  68.711  1.00  0.00    -0.101 OA 
HETATM   17  C   UNL     1     -10.349   5.962  70.486  1.00  0.00    -0.235 C  
HETATM   18  H   UNL     1      -7.833   5.040  68.399  1.00  0.00     0.000 HD 
HETATM   19  C   UNL     1     -10.063   7.479  70.334  1.00  0.00    -0.196 C  
HETATM   20  O   UNL     1      -9.304   5.347  71.242  1.00  0.00    -0.144 OA 
HETATM   21  H   UNL     1      -9.296   5.701  72.124  1.00  0.00     0.000 HD 
BRANCH  19  22
HETATM   22  C   UNL     1     -11.207   8.331  70.847  1.00  0.00    -0.292 C  
HETATM   23  C   UNL     1     -11.310   9.664  70.685  1.00  0.00    -0.379 C  
BRANCH  23  24
HETATM   24  C   UNL     1     -12.507  10.493  71.085  1.00  0.00    -0.412 C  
HETATM   25  F   UNL     1     -12.600  10.546  72.442  1.00  0.00    -0.327 F  
HETATM   26  F   UNL     1     -13.643   9.888  70.642  1.00  0.00    -0.386 F  
BRANCH  24  27
HETATM   27  C   UNL     1     -12.432  11.922  70.521  1.00  0.00    -0.215 C  
BRANCH  27  28
HETATM   28  O   UNL     1     -13.383  12.777  71.171  1.00  0.00    -0.060 OA 
BRANCH  28  29
HETATM   29  C   UNL     1     -12.889  13.973  71.616  1.00  0.00    -0.352 A  
HETATM   30  C   UNL     1     -13.188  14.290  72.943  1.00  0.00    -0.593 A  
HETATM   31  C   UNL     1     -12.732  15.484  73.505  1.00  0.00    -0.681 A  
HETATM   32  C   UNL     1     -11.961  16.361  72.745  1.00  0.00    -0.585 A  
HETATM   33  C   UNL     1     -11.641  16.040  71.427  1.00  0.00    -0.520 A  
HETATM   34  C   UNL     1     -12.102  14.848  70.862  1.00  0.00    -0.377 A  
ENDBRANCH  28  29
ENDBRANCH  27  28
ENDBRANCH  24  27
ENDBRANCH  23  24
ENDBRANCH  19  22
ENDBRANCH  12  13
ENDBRANCH  11  12
ENDBRANCH   9  10
ENDBRANCH   8   9
ENDBRANCH   7   8
ENDBRANCH   5   7
ENDBRANCH   4   5
ENDBRANCH   2   4
TORSDOF 13
ENDMDL
MODEL      185
REMARK 921   NORMALIZED FREE ENERGY PREDICTED BY IDOCK:   -4.40 KCAL/MOL
REMARK 922        TOTAL FREE ENERGY PREDICTED BY IDOCK:  -10.59 KCAL/MOL
REMARK 923 INTER-LIGAND FREE ENERGY PREDICTED BY IDOCK:   -8.31 KCAL/MOL
REMARK 924 INTRA-LIGAND FREE ENERGY PREDICTED BY IDOCK:   -2.27 KCAL/MOL
REMARK 927      BINDING AFFINITY PREDICTED BY RF-SCORE:    0.00 PKD
ROOT
HETATM    1  C   UNL     1     -10.022  20.806  67.419  1.00  0.00    -0.355 C  
HETATM    2  C   UNL     1      -9.384  19.457  67.105  1.00  0.00    -0.320 C  
HETATM    3  C   UNL     1     -10.203  18.700  66.067  1.00  0.00    -0.386 C  
ENDROOT
BRANCH   2   4
HETATM    4  O   UNL     1      -8.072  19.665  66.556  1.00  0.00    -0.287 OA 
BRANCH   4   5
HETATM    5  C   UNL     1      -7.165  20.227  67.403  1.00  0.00    -0.290 C  
HETATM    6  O   UNL     1      -6.680  21.344  67.283  1.00  0.00    -0.551 OA 
BRANCH   5   7
HETATM    7  C   UNL     1      -6.800  19.252  68.490  1.00  0.00    -0.319 C  
BRANCH   7   8
HETATM    8  C   UNL     1      -5.910  18.139  67.942  1.00  0.00    -0.159 C  
BRANCH   8   9
HETATM    9  C   UNL     1      -6.419  16.773  68.397  1.00  0.00    -0.144 C  
BRANCH   9  10
HETATM   10  C   UNL     1      -6.978  15.973  67.257  1.00  0.00    -0.240 C  
HETATM   11  C   UNL     1      -8.234  15.508  67.163  1.00  0.00    -0.246 C  
BRANCH  11  12
HETATM   12  C   UNL     1      -9.332  15.695  68.177  1.00  0.00    -0.194 C  
BRANCH  12  13
HETATM   13  C   UNL     1     -10.234  14.457  68.244  1.00  0.00    -0.241 C  
HETATM   14  C   UNL     1     -11.607  14.634  67.581  1.00  0.00    -0.361 C  
HETATM   15  C   UNL     1     -12.078  13.201  67.389  1.00  0.00    -0.316 C  
HETATM   16  O   UNL     1     -11.499  15.247  66.298  1.00  0.00    -0.233 OA 
HETATM   17  C   UNL     1     -10.825  12.488  66.881  1.00  0.00    -0.248 C  
HETATM   18  H   UNL     1     -12.349  15.356  65.888  1.00  0.00     0.000 HD 
HETATM   19  C   UNL     1      -9.623  13.224  67.527  1.00  0.00    -0.218 C  
HETATM   20  O   UNL     1     -10.752  12.598  65.458  1.00  0.00    -0.265 OA 
HETATM   21  H   UNL     1      -9.974  12.155  65.142  1.00  0.00     0.000 HD 
BRANCH  19  22
HETATM   22  C   UNL     1      -8.816  12.315  68.434  1.00  0.00    -0.137 C  
HETATM   23  C   UNL     1      -8.375  11.087  68.102  1.00  0.00    -0.130 C  
BRANCH  23  24
HETATM   24  C   UNL     1      -7.468  10.235  68.956  1.00  0.00    -0.097 C  
HETATM   25  F   UNL     1      -7.000  10.965  70.005  1.00  0.00    -0.144 F  
HETATM   26  F   UNL     1      -6.381   9.862  68.227  1.00  0.00    -0.053 F  
BRANCH  24  27
HETATM   27  C   UNL     1      -8.186   8.982  69.485  1.00  0.00    -0.114 C  
BRANCH  27  28
HETATM   28  O   UNL     1      -9.534   8.922  68.996  1.00  0.00    -0.154 OA 
BRANCH  28  29
HETATM   29  C   UNL     1     -10.495   8.721  69.950  1.00  0.00    -0.221 A  
HETATM   30  C   UNL     1     -10.859   7.390  70.165  1.00  0.00    -0.270 A  
HETATM   31  C   UNL     1     -11.828   7.067  71.117  1.00  0.00    -0.380 A  
HETATM   32  C   UNL     1     -12.427   8.074  71.870  1.00  0.00    -0.364 A  
HETATM   33  C   UNL     1     -12.053   9.403  71.675  1.00  0.00    -0.462 A  
HETATM   34  C   UNL     1     -11.087   9.727  70.718  1.00  0.00    -0.415 A  
ENDBRANCH  28  29
ENDBRANCH  27  28
ENDBRANCH  24  27
ENDBRANCH  23  24
ENDBRANCH  19  22
ENDBRANCH  12  13
ENDBRANCH  11  12
ENDBRANCH   9  10
ENDBRANCH   8   9
ENDBRANCH   7   8
ENDBRANCH   5   7
ENDBRANCH   4   5
ENDBRANCH   2   4
TORSDOF 13
ENDMDL
MODEL      186
REMARK 921   NORMALIZED FREE ENERGY PREDICTED BY IDOCK:   -4.40 KCAL/MOL
REMARK 922        TOTAL FREE ENERGY PREDICTED BY IDOCK:  -10.58 KCAL/MOL
REMARK 923 INTER-LIGAND FREE ENERGY PREDICTED BY IDOCK:   -8.42 KCAL/MOL
REMARK 924 INTRA-LIGAND FREE ENERGY PREDICTED BY IDOCK:   -2.16 KCAL/MOL
REMARK 927      BINDING AFFINITY PREDICTED BY RF-SCORE:    0.00 PKD
ROOT
HETATM    1  C   UNL     1     -11.223  12.249  67.827  1.00  0.00    -0.331 C  
HETATM    2  C   UNL     1     -11.911  13.576  67.526  1.00  0.00    -0.346 C  
HETATM    3  C   UNL     1     -11.503  14.638  68.541  1.00  0.00    -0.327 C  
ENDROOT
BRANCH   2   4
HETATM    4  O   UNL     1     -11.507  14.040  66.226  1.00  0.00    -0.330 OA 
BRANCH   4   5
HETATM    5  C   UNL     1     -12.437  13.901  65.240  1.00  0.00    -0.478 C  
HETATM    6  O   UNL     1     -13.648  13.984  65.390  1.00  0.00    -0.593 OA 
BRANCH   5   7
HETATM    7  C   UNL     1     -11.760  13.576  63.934  1.00  0.00    -0.415 C  
BRANCH   7   8
HETATM    8  C   UNL     1     -11.517  12.074  63.811  1.00  0.00    -0.547 C  
BRANCH   8   9
HETATM    9  C   UNL     1     -10.122  11.714  64.316  1.00  0.00    -0.328 C  
BRANCH   9  10
HETATM   10  C   UNL     1      -9.640  10.409  63.756  1.00  0.00    -0.366 C  
HETATM   11  C   UNL     1      -9.125   9.390  64.463  1.00  0.00    -0.205 C  
BRANCH  11  12
HETATM   12  C   UNL     1      -8.927   9.353  65.956  1.00  0.00    -0.205 C  
BRANCH  12  13
HETATM   13  C   UNL     1      -9.329   7.989  66.529  1.00  0.00    -0.261 C  
HETATM   14  C   UNL     1      -8.504   6.809  65.999  1.00  0.00    -0.142 C  
HETATM   15  C   UNL     1      -8.780   5.716  67.021  1.00  0.00    -0.108 C  
HETATM   16  O   UNL     1      -7.106   7.093  66.013  1.00  0.00    -0.069 OA 
HETATM   17  C   UNL     1      -8.693   6.457  68.355  1.00  0.00    -0.113 C  
HETATM   18  H   UNL     1      -6.596   6.361  65.685  1.00  0.00     0.000 HD 
HETATM   19  C   UNL     1      -9.163   7.907  68.070  1.00  0.00    -0.134 C  
HETATM   20  O   UNL     1      -7.340   6.468  68.812  1.00  0.00    -0.082 OA 
HETATM   21  H   UNL     1      -7.286   6.928  69.642  1.00  0.00     0.000 HD 
BRANCH  19  22
HETATM   22  C   UNL     1     -10.413   8.267  68.848  1.00  0.00    -0.209 C  
HETATM   23  C   UNL     1     -10.458   9.132  69.880  1.00  0.00    -0.239 C  
BRANCH  23  24
HETATM   24  C   UNL     1     -11.720   9.584  70.573  1.00  0.00    -0.222 C  
HETATM   25  F   UNL     1     -12.609  10.055  69.656  1.00  0.00    -0.029 F  
HETATM   26  F   UNL     1     -11.431  10.625  71.402  1.00  0.00    -0.312 F  
BRANCH  24  27
HETATM   27  C   UNL     1     -12.372   8.450  71.381  1.00  0.00    -0.299 C  
BRANCH  27  28
HETATM   28  O   UNL     1     -11.740   8.307  72.661  1.00  0.00    -0.403 OA 
BRANCH  28  29
HETATM   29  C   UNL     1     -11.113   7.109  72.876  1.00  0.00    -0.298 A  
HETATM   30  C   UNL     1      -9.772   7.192  73.257  1.00  0.00    -0.251 A  
HETATM   31  C   UNL     1      -9.035   6.032  73.505  1.00  0.00    -0.124 A  
HETATM   32  C   UNL     1      -9.641   4.783  73.388  1.00  0.00    -0.139 A  
HETATM   33  C   UNL     1     -10.986   4.695  73.029  1.00  0.00    -0.329 A  
HETATM   34  C   UNL     1     -11.723   5.855  72.775  1.00  0.00    -0.183 A  
ENDBRANCH  28  29
ENDBRANCH  27  28
ENDBRANCH  24  27
ENDBRANCH  23  24
ENDBRANCH  19  22
ENDBRANCH  12  13
ENDBRANCH  11  12
ENDBRANCH   9  10
ENDBRANCH   8   9
ENDBRANCH   7   8
ENDBRANCH   5   7
ENDBRANCH   4   5
ENDBRANCH   2   4
TORSDOF 13
ENDMDL
MODEL      187
REMARK 921   NORMALIZED FREE ENERGY PREDICTED BY IDOCK:   -4.39 KCAL/MOL
REMARK 922        TOTAL FREE ENERGY PREDICTED BY IDOCK:  -10.57 KCAL/MOL
REMARK 923 INTER-LIGAND FREE ENERGY PREDICTED BY IDOCK:   -9.21 KCAL/MOL
REMARK 924 INTRA-LIGAND FREE ENERGY PREDICTED BY IDOCK:   -1.36 KCAL/MOL
REMARK 927      BINDING AFFINITY PREDICTED BY RF-SCORE:    0.00 PKD
ROOT
HETATM    1  C   UNL     1      -5.584   7.153  71.995  1.00  0.00    -0.037 C  
HETATM    2  C   UNL     1      -6.424   7.228  70.724  1.00  0.00    -0.043 C  
HETATM    3  C   UNL     1      -6.260   5.962  69.893  1.00  0.00    -0.027 C  
ENDROOT
BRANCH   2   4
HETATM    4  O   UNL     1      -7.814   7.340  71.076  1.00  0.00    -0.094 OA 
BRANCH   4   5
HETATM    5  C   UNL     1      -8.261   8.608  71.300  1.00  0.00    -0.154 C  
HETATM    6  O   UNL     1      -7.683   9.633  70.968  1.00  0.00    -0.323 OA 
BRANCH   5   7
HETATM    7  C   UNL     1      -9.557   8.571  72.067  1.00  0.00    -0.371 C  
BRANCH   7   8
HETATM    8  C   UNL     1     -10.685   8.024  71.195  1.00  0.00    -0.250 C  
BRANCH   8   9
HETATM    9  C   UNL     1     -10.812   8.839  69.910  1.00  0.00    -0.211 C  
BRANCH   9  10
HETATM   10  C   UNL     1     -11.363  10.211  70.167  1.00  0.00    -0.372 C  
HETATM   11  C   UNL     1     -11.561  11.165  69.244  1.00  0.00    -0.388 C  
BRANCH  11  12
HETATM   12  C   UNL     1     -11.271  11.053  67.770  1.00  0.00    -0.374 C  
BRANCH  12  13
HETATM   13  C   UNL     1     -10.961  12.427  67.165  1.00  0.00    -0.304 C  
HETATM   14  C   UNL     1     -10.449  12.385  65.719  1.00  0.00    -0.259 C  
HETATM   15  C   UNL     1     -10.660  13.814  65.243  1.00  0.00    -0.363 C  
HETATM   16  O   UNL     1     -11.238  11.520  64.905  1.00  0.00    -0.263 OA 
HETATM   17  C   UNL     1     -12.046  14.162  65.787  1.00  0.00    -0.420 C  
HETATM   18  H   UNL     1     -10.922  11.494  64.009  1.00  0.00     0.000 HD 
HETATM   19  C   UNL     1     -12.203  13.355  67.102  1.00  0.00    -0.306 C  
HETATM   20  O   UNL     1     -13.046  13.758  64.849  1.00  0.00    -0.716 OA 
HETATM   21  H   UNL     1     -13.907  13.975  65.187  1.00  0.00     0.000 HD 
BRANCH  19  22
HETATM   22  C   UNL     1     -12.367  14.256  68.310  1.00  0.00    -0.024 C  
HETATM   23  C   UNL     1     -11.443  14.432  69.273  1.00  0.00    -0.323 C  
BRANCH  23  24
HETATM   24  C   UNL     1     -11.554  15.422  70.407  1.00  0.00    -0.324 C  
HETATM   25  F   UNL     1     -11.079  14.865  71.555  1.00  0.00    -0.350 F  
HETATM   26  F   UNL     1     -12.866  15.708  70.629  1.00  0.00    -0.445 F  
BRANCH  24  27
HETATM   27  C   UNL     1     -10.787  16.722  70.114  1.00  0.00     0.014 C  
BRANCH  27  28
HETATM   28  O   UNL     1      -9.977  16.582  68.938  1.00  0.00    -0.238 OA 
BRANCH  28  29
HETATM   29  C   UNL     1      -9.796  17.727  68.210  1.00  0.00    -0.340 A  
HETATM   30  C   UNL     1      -9.255  17.550  66.935  1.00  0.00    -0.273 A  
HETATM   31  C   UNL     1      -9.029  18.649  66.103  1.00  0.00    -0.134 A  
HETATM   32  C   UNL     1      -9.359  19.930  66.539  1.00  0.00    -0.501 A  
HETATM   33  C   UNL     1      -9.919  20.112  67.803  1.00  0.00    -0.549 A  
HETATM   34  C   UNL     1     -10.139  19.013  68.638  1.00  0.00    -0.449 A  
ENDBRANCH  28  29
ENDBRANCH  27  28
ENDBRANCH  24  27
ENDBRANCH  23  24
ENDBRANCH  19  22
ENDBRANCH  12  13
ENDBRANCH  11  12
ENDBRANCH   9  10
ENDBRANCH   8   9
ENDBRANCH   7   8
ENDBRANCH   5   7
ENDBRANCH   4   5
ENDBRANCH   2   4
TORSDOF 13
ENDMDL
MODEL      188
REMARK 921   NORMALIZED FREE ENERGY PREDICTED BY IDOCK:   -4.39 KCAL/MOL
REMARK 922        TOTAL FREE ENERGY PREDICTED BY IDOCK:  -10.55 KCAL/MOL
REMARK 923 INTER-LIGAND FREE ENERGY PREDICTED BY IDOCK:   -7.90 KCAL/MOL
REMARK 924 INTRA-LIGAND FREE ENERGY PREDICTED BY IDOCK:   -2.65 KCAL/MOL
REMARK 927      BINDING AFFINITY PREDICTED BY RF-SCORE:    0.00 PKD
ROOT
HETATM    1  C   UNL     1     -10.550  16.239  68.247  1.00  0.00    -0.300 C  
HETATM    2  C   UNL     1     -10.874  15.075  67.316  1.00  0.00    -0.310 C  
HETATM    3  C   UNL     1      -9.684  14.754  66.420  1.00  0.00    -0.311 C  
ENDROOT
BRANCH   2   4
HETATM    4  O   UNL     1     -11.158  13.902  68.098  1.00  0.00    -0.242 OA 
BRANCH   4   5
HETATM    5  C   UNL     1     -11.663  12.844  67.404  1.00  0.00    -0.372 C  
HETATM    6  O   UNL     1     -12.211  12.908  66.313  1.00  0.00    -0.454 OA 
BRANCH   5   7
HETATM    7  C   UNL     1     -11.493  11.577  68.200  1.00  0.00    -0.385 C  
BRANCH   7   8
HETATM    8  C   UNL     1     -10.188  10.875  67.828  1.00  0.00    -0.209 C  
BRANCH   8   9
HETATM    9  C   UNL     1     -10.447   9.409  67.491  1.00  0.00    -0.343 C  
BRANCH   9  10
HETATM   10  C   UNL     1      -9.667   8.482  68.376  1.00  0.00    -0.169 C  
HETATM   11  C   UNL     1      -9.892   7.168  68.533  1.00  0.00    -0.155 C  
BRANCH  11  12
HETATM   12  C   UNL     1     -10.969   6.362  67.856  1.00  0.00    -0.416 C  
BRANCH  12  13
HETATM   13  C   UNL     1     -10.493   4.931  67.581  1.00  0.00    -0.013 C  
HETATM   14  C   UNL     1     -10.171   4.639  66.110  1.00  0.00    -0.277 C  
HETATM   15  C   UNL     1      -9.326   3.376  66.191  1.00  0.00    -0.151 C  
HETATM   16  O   UNL     1      -9.379   5.672  65.527  1.00  0.00    -0.334 OA 
HETATM   17  C   UNL     1      -8.390   3.659  67.365  1.00  0.00    -0.094 C  
HETATM   18  H   UNL     1      -9.180   5.490  64.615  1.00  0.00     0.000 HD 
HETATM   19  C   UNL     1      -9.183   4.574  68.334  1.00  0.00    -0.178 C  
HETATM   20  O   UNL     1      -7.226   4.344  66.898  1.00  0.00    -0.070 OA 
HETATM   21  H   UNL     1      -6.643   4.519  67.628  1.00  0.00     0.000 HD 
BRANCH  19  22
HETATM   22  C   UNL     1      -9.402   3.922  69.685  1.00  0.00    -0.246 C  
HETATM   23  C   UNL     1      -9.092   4.480  70.871  1.00  0.00    -0.185 C  
BRANCH  23  24
HETATM   24  C   UNL     1      -9.423   3.886  72.219  1.00  0.00    -0.128 C  
HETATM   25  F   UNL     1      -8.512   2.925  72.537  1.00  0.00    -0.070 F  
HETATM   26  F   UNL     1     -10.633   3.266  72.153  1.00  0.00    -0.186 F  
BRANCH  24  27
HETATM   27  C   UNL     1      -9.451   4.951  73.326  1.00  0.00    -0.123 C  
BRANCH  27  28
HETATM   28  O   UNL     1     -10.784   5.442  73.529  1.00  0.00    -0.246 OA 
BRANCH  28  29
HETATM   29  C   UNL     1     -11.138   6.515  72.756  1.00  0.00    -0.245 A  
HETATM   30  C   UNL     1     -12.292   6.347  71.988  1.00  0.00    -0.268 A  
HETATM   31  C   UNL     1     -12.749   7.377  71.163  1.00  0.00    -0.318 A  
HETATM   32  C   UNL     1     -12.060   8.587  71.115  1.00  0.00    -0.283 A  
HETATM   33  C   UNL     1     -10.919   8.768  71.895  1.00  0.00    -0.435 A  
HETATM   34  C   UNL     1     -10.458   7.735  72.716  1.00  0.00    -0.390 A  
ENDBRANCH  28  29
ENDBRANCH  27  28
ENDBRANCH  24  27
ENDBRANCH  23  24
ENDBRANCH  19  22
ENDBRANCH  12  13
ENDBRANCH  11  12
ENDBRANCH   9  10
ENDBRANCH   8   9
ENDBRANCH   7   8
ENDBRANCH   5   7
ENDBRANCH   4   5
ENDBRANCH   2   4
TORSDOF 13
ENDMDL
MODEL      189
REMARK 921   NORMALIZED FREE ENERGY PREDICTED BY IDOCK:   -4.38 KCAL/MOL
REMARK 922        TOTAL FREE ENERGY PREDICTED BY IDOCK:  -10.55 KCAL/MOL
REMARK 923 INTER-LIGAND FREE ENERGY PREDICTED BY IDOCK:   -8.28 KCAL/MOL
REMARK 924 INTRA-LIGAND FREE ENERGY PREDICTED BY IDOCK:   -2.27 KCAL/MOL
REMARK 927      BINDING AFFINITY PREDICTED BY RF-SCORE:    0.00 PKD
ROOT
HETATM    1  C   UNL     1      -8.067   8.015  66.961  1.00  0.00    -0.116 C  
HETATM    2  C   UNL     1      -7.139   8.681  67.971  1.00  0.00    -0.082 C  
HETATM    3  C   UNL     1      -6.909  10.144  67.611  1.00  0.00    -0.076 C  
ENDROOT
BRANCH   2   4
HETATM    4  O   UNL     1      -7.747   8.645  69.274  1.00  0.00    -0.091 OA 
BRANCH   4   5
HETATM    5  C   UNL     1      -6.957   9.068  70.301  1.00  0.00    -0.052 C  
HETATM    6  O   UNL     1      -7.106  10.107  70.928  1.00  0.00    -0.325 OA 
BRANCH   5   7
HETATM    7  C   UNL     1      -5.834   8.091  70.524  1.00  0.00    -0.029 C  
BRANCH   7   8
HETATM    8  C   UNL     1      -6.256   6.995  71.500  1.00  0.00    -0.037 C  
BRANCH   8   9
HETATM    9  C   UNL     1      -6.147   7.491  72.940  1.00  0.00    -0.055 C  
BRANCH   9  10
HETATM   10  C   UNL     1      -6.920   6.627  73.893  1.00  0.00    -0.080 C  
HETATM   11  C   UNL     1      -8.208   6.789  74.236  1.00  0.00    -0.149 C  
BRANCH  11  12
HETATM   12  C   UNL     1      -9.133   7.867  73.737  1.00  0.00    -0.306 C  
BRANCH  12  13
HETATM   13  C   UNL     1      -9.719   7.498  72.369  1.00  0.00    -0.208 C  
HETATM   14  C   UNL     1     -10.257   6.064  72.273  1.00  0.00    -0.187 C  
HETATM   15  C   UNL     1     -11.148   6.118  71.042  1.00  0.00    -0.359 C  
HETATM   16  O   UNL     1     -11.066   5.727  73.398  1.00  0.00    -0.398 OA 
HETATM   17  C   UNL     1     -11.896   7.440  71.211  1.00  0.00    -0.301 C  
HETATM   18  H   UNL     1     -11.399   4.839  73.338  1.00  0.00     0.000 HD 
HETATM   19  C   UNL     1     -10.928   8.385  71.969  1.00  0.00    -0.394 C  
HETATM   20  O   UNL     1     -13.076   7.230  71.990  1.00  0.00    -0.492 OA 
HETATM   21  H   UNL     1     -13.541   8.051  72.094  1.00  0.00     0.000 HD 
BRANCH  19  22
HETATM   22  C   UNL     1     -10.559   9.605  71.147  1.00  0.00    -0.327 C  
HETATM   23  C   UNL     1     -11.016   9.867  69.908  1.00  0.00    -0.321 C  
BRANCH  23  24
HETATM   24  C   UNL     1     -10.748  11.140  69.141  1.00  0.00    -0.221 C  
HETATM   25  F   UNL     1      -9.408  11.376  69.091  1.00  0.00    -0.143 F  
HETATM   26  F   UNL     1     -11.302  12.191  69.803  1.00  0.00    -0.307 F  
BRANCH  24  27
HETATM   27  C   UNL     1     -11.310  11.078  67.711  1.00  0.00    -0.292 C  
BRANCH  27  28
HETATM   28  O   UNL     1     -12.272  12.121  67.496  1.00  0.00    -0.474 OA 
BRANCH  28  29
HETATM   29  C   UNL     1     -11.879  13.114  66.639  1.00  0.00    -0.391 A  
HETATM   30  C   UNL     1     -10.697  13.772  66.984  1.00  0.00    -0.283 A  
HETATM   31  C   UNL     1     -10.200  14.800  66.180  1.00  0.00    -0.310 A  
HETATM   32  C   UNL     1     -10.876  15.165  65.018  1.00  0.00    -0.457 A  
HETATM   33  C   UNL     1     -12.046  14.497  64.657  1.00  0.00    -0.486 A  
HETATM   34  C   UNL     1     -12.547  13.472  65.465  1.00  0.00    -0.531 A  
ENDBRANCH  28  29
ENDBRANCH  27  28
ENDBRANCH  24  27
ENDBRANCH  23  24
ENDBRANCH  19  22
ENDBRANCH  12  13
ENDBRANCH  11  12
ENDBRANCH   9  10
ENDBRANCH   8   9
ENDBRANCH   7   8
ENDBRANCH   5   7
ENDBRANCH   4   5
ENDBRANCH   2   4
TORSDOF 13
ENDMDL
MODEL      190
REMARK 921   NORMALIZED FREE ENERGY PREDICTED BY IDOCK:   -4.38 KCAL/MOL
REMARK 922        TOTAL FREE ENERGY PREDICTED BY IDOCK:  -10.55 KCAL/MOL
REMARK 923 INTER-LIGAND FREE ENERGY PREDICTED BY IDOCK:   -8.96 KCAL/MOL
REMARK 924 INTRA-LIGAND FREE ENERGY PREDICTED BY IDOCK:   -1.59 KCAL/MOL
REMARK 927      BINDING AFFINITY PREDICTED BY RF-SCORE:    0.00 PKD
ROOT
HETATM    1  C   UNL     1     -11.152   9.401  71.139  1.00  0.00    -0.432 C  
HETATM    2  C   UNL     1     -12.124   8.670  72.059  1.00  0.00    -0.375 C  
HETATM    3  C   UNL     1     -13.431   9.442  72.189  1.00  0.00    -0.543 C  
ENDROOT
BRANCH   2   4
HETATM    4  O   UNL     1     -12.435   7.382  71.498  1.00  0.00    -0.328 OA 
BRANCH   4   5
HETATM    5  C   UNL     1     -11.367   6.562  71.288  1.00  0.00    -0.303 C  
HETATM    6  O   UNL     1     -10.478   6.336  72.096  1.00  0.00    -0.193 OA 
BRANCH   5   7
HETATM    7  C   UNL     1     -11.410   6.006  69.889  1.00  0.00    -0.355 C  
BRANCH   7   8
HETATM    8  C   UNL     1     -10.091   5.321  69.539  1.00  0.00    -0.322 C  
BRANCH   8   9
HETATM    9  C   UNL     1      -9.742   5.552  68.071  1.00  0.00    -0.159 C  
BRANCH   9  10
HETATM   10  C   UNL     1     -10.611   6.603  67.445  1.00  0.00    -0.370 C  
HETATM   11  C   UNL     1     -10.310   7.907  67.328  1.00  0.00    -0.377 C  
BRANCH  11  12
HETATM   12  C   UNL     1      -9.046   8.575  67.801  1.00  0.00    -0.143 C  
BRANCH  12  13
HETATM   13  C   UNL     1      -8.577   9.634  66.797  1.00  0.00    -0.140 C  
HETATM   14  C   UNL     1      -7.531   9.138  65.790  1.00  0.00    -0.090 C  
HETATM   15  C   UNL     1      -7.593  10.188  64.691  1.00  0.00    -0.135 C  
HETATM   16  O   UNL     1      -7.895   7.878  65.228  1.00  0.00    -0.097 OA 
HETATM   17  C   UNL     1      -9.093  10.422  64.517  1.00  0.00    -0.229 C  
HETATM   18  H   UNL     1      -7.248   7.571  64.604  1.00  0.00     0.000 HD 
HETATM   19  C   UNL     1      -9.728  10.180  65.911  1.00  0.00    -0.292 C  
HETATM   20  O   UNL     1      -9.620   9.484  63.576  1.00  0.00    -0.467 OA 
HETATM   21  H   UNL     1     -10.553   9.629  63.468  1.00  0.00     0.000 HD 
BRANCH  19  22
HETATM   22  C   UNL     1     -10.395  11.427  66.459  1.00  0.00    -0.277 C  
HETATM   23  C   UNL     1     -10.714  12.514  65.732  1.00  0.00    -0.299 C  
BRANCH  23  24
HETATM   24  C   UNL     1     -11.489  13.702  66.249  1.00  0.00    -0.333 C  
HETATM   25  F   UNL     1     -12.420  13.289  67.153  1.00  0.00    -0.343 F  
HETATM   26  F   UNL     1     -12.175  14.275  65.223  1.00  0.00    -0.366 F  
BRANCH  24  27
HETATM   27  C   UNL     1     -10.571  14.749  66.901  1.00  0.00    -0.294 C  
BRANCH  27  28
HETATM   28  O   UNL     1      -9.264  14.720  66.310  1.00  0.00    -0.283 OA 
BRANCH  28  29
HETATM   29  C   UNL     1      -8.475  15.807  66.577  1.00  0.00    -0.300 A  
HETATM   30  C   UNL     1      -7.356  15.555  67.374  1.00  0.00    -0.241 A  
HETATM   31  C   UNL     1      -6.479  16.589  67.708  1.00  0.00    -0.162 A  
HETATM   32  C   UNL     1      -6.710  17.878  67.233  1.00  0.00    -0.192 A  
HETATM   33  C   UNL     1      -7.814  18.132  66.420  1.00  0.00    -0.295 A  
HETATM   34  C   UNL     1      -8.695  17.098  66.091  1.00  0.00    -0.223 A  
ENDBRANCH  28  29
ENDBRANCH  27  28
ENDBRANCH  24  27
ENDBRANCH  23  24
ENDBRANCH  19  22
ENDBRANCH  12  13
ENDBRANCH  11  12
ENDBRANCH   9  10
ENDBRANCH   8   9
ENDBRANCH   7   8
ENDBRANCH   5   7
ENDBRANCH   4   5
ENDBRANCH   2   4
TORSDOF 13
ENDMDL
MODEL      191
REMARK 921   NORMALIZED FREE ENERGY PREDICTED BY IDOCK:   -4.38 KCAL/MOL
REMARK 922        TOTAL FREE ENERGY PREDICTED BY IDOCK:  -10.54 KCAL/MOL
REMARK 923 INTER-LIGAND FREE ENERGY PREDICTED BY IDOCK:   -8.08 KCAL/MOL
REMARK 924 INTRA-LIGAND FREE ENERGY PREDICTED BY IDOCK:   -2.46 KCAL/MOL
REMARK 927      BINDING AFFINITY PREDICTED BY RF-SCORE:    0.00 PKD
ROOT
HETATM    1  C   UNL     1      -5.493   5.594  69.052  1.00  0.00    -0.007 C  
HETATM    2  C   UNL     1      -6.734   6.233  69.666  1.00  0.00    -0.053 C  
HETATM    3  C   UNL     1      -6.400   7.594  70.266  1.00  0.00    -0.034 C  
ENDROOT
BRANCH   2   4
HETATM    4  O   UNL     1      -7.721   6.441  68.641  1.00  0.00    -0.098 OA 
BRANCH   4   5
HETATM    5  C   UNL     1      -8.362   5.319  68.209  1.00  0.00    -0.097 C  
HETATM    6  O   UNL     1      -8.270   4.838  67.089  1.00  0.00    -0.106 OA 
BRANCH   5   7
HETATM    7  C   UNL     1      -9.246   4.776  69.300  1.00  0.00    -0.172 C  
BRANCH   7   8
HETATM    8  C   UNL     1     -10.591   5.501  69.316  1.00  0.00    -0.325 C  
BRANCH   8   9
HETATM    9  C   UNL     1     -11.072   5.702  70.751  1.00  0.00    -0.196 C  
BRANCH   9  10
HETATM   10  C   UNL     1     -12.167   6.725  70.839  1.00  0.00    -0.386 C  
HETATM   11  C   UNL     1     -12.023   8.001  71.230  1.00  0.00    -0.321 C  
BRANCH  11  12
HETATM   12  C   UNL     1     -10.740   8.662  71.659  1.00  0.00    -0.374 C  
BRANCH  12  13
HETATM   13  C   UNL     1     -10.491   9.948  70.862  1.00  0.00    -0.192 C  
HETATM   14  C   UNL     1      -9.460   9.808  69.734  1.00  0.00    -0.228 C  
HETATM   15  C   UNL     1      -9.742  11.024  68.865  1.00  0.00    -0.184 C  
HETATM   16  O   UNL     1      -9.687   8.636  68.954  1.00  0.00    -0.164 OA 
HETATM   17  C   UNL     1     -11.268  11.062  68.803  1.00  0.00    -0.266 C  
HETATM   18  H   UNL     1      -9.048   8.551  68.255  1.00  0.00     0.000 HD 
HETATM   19  C   UNL     1     -11.765  10.473  70.149  1.00  0.00    -0.410 C  
HETATM   20  O   UNL     1     -11.726  10.249  67.721  1.00  0.00    -0.643 OA 
HETATM   21  H   UNL     1     -12.675  10.273  67.682  1.00  0.00     0.000 HD 
BRANCH  19  22
HETATM   22  C   UNL     1     -12.558  11.483  70.957  1.00  0.00    -0.457 C  
HETATM   23  C   UNL     1     -12.174  12.750  71.197  1.00  0.00    -0.097 C  
BRANCH  23  24
HETATM   24  C   UNL     1     -13.017  13.791  71.894  1.00  0.00    -0.350 C  
HETATM   25  F   UNL     1     -12.366  14.251  72.997  1.00  0.00    -0.323 F  
HETATM   26  F   UNL     1     -14.169  13.216  72.336  1.00  0.00    -0.553 F  
BRANCH  24  27
HETATM   27  C   UNL     1     -13.354  14.972  70.969  1.00  0.00    -0.419 C  
BRANCH  27  28
HETATM   28  O   UNL     1     -12.284  15.927  70.950  1.00  0.00    -0.405 OA 
BRANCH  28  29
HETATM   29  C   UNL     1     -11.364  15.759  69.950  1.00  0.00    -0.349 A  
HETATM   30  C   UNL     1     -10.032  15.701  70.362  1.00  0.00     0.246 A  
HETATM   31  C   UNL     1      -9.009  15.528  69.427  1.00  0.00    -0.275 A  
HETATM   32  C   UNL     1      -9.317  15.397  68.075  1.00  0.00    -0.196 A  
HETATM   33  C   UNL     1     -10.647  15.433  67.659  1.00  0.00    -0.280 A  
HETATM   34  C   UNL     1     -11.671  15.612  68.594  1.00  0.00    -0.364 A  
ENDBRANCH  28  29
ENDBRANCH  27  28
ENDBRANCH  24  27
ENDBRANCH  23  24
ENDBRANCH  19  22
ENDBRANCH  12  13
ENDBRANCH  11  12
ENDBRANCH   9  10
ENDBRANCH   8   9
ENDBRANCH   7   8
ENDBRANCH   5   7
ENDBRANCH   4   5
ENDBRANCH   2   4
TORSDOF 13
ENDMDL
MODEL      192
REMARK 921   NORMALIZED FREE ENERGY PREDICTED BY IDOCK:   -4.37 KCAL/MOL
REMARK 922        TOTAL FREE ENERGY PREDICTED BY IDOCK:  -10.52 KCAL/MOL
REMARK 923 INTER-LIGAND FREE ENERGY PREDICTED BY IDOCK:   -9.08 KCAL/MOL
REMARK 924 INTRA-LIGAND FREE ENERGY PREDICTED BY IDOCK:   -1.45 KCAL/MOL
REMARK 927      BINDING AFFINITY PREDICTED BY RF-SCORE:    0.00 PKD
ROOT
HETATM    1  C   UNL     1      -5.398   9.074  71.762  1.00  0.00    -0.052 C  
HETATM    2  C   UNL     1      -6.587   9.376  70.856  1.00  0.00    -0.098 C  
HETATM    3  C   UNL     1      -6.118   9.890  69.501  1.00  0.00    -0.044 C  
ENDROOT
BRANCH   2   4
HETATM    4  O   UNL     1      -7.333   8.167  70.628  1.00  0.00    -0.051 OA 
BRANCH   4   5
HETATM    5  C   UNL     1      -8.689   8.299  70.669  1.00  0.00    -0.138 C  
HETATM    6  O   UNL     1      -9.303   9.094  71.366  1.00  0.00    -0.254 OA 
BRANCH   5   7
HETATM    7  C   UNL     1      -9.334   7.283  69.763  1.00  0.00    -0.150 C  
BRANCH   7   8
HETATM    8  C   UNL     1      -8.770   7.385  68.348  1.00  0.00    -0.123 C  
BRANCH   8   9
HETATM    9  C   UNL     1      -8.842   8.826  67.847  1.00  0.00    -0.136 C  
BRANCH   9  10
HETATM   10  C   UNL     1     -10.257   9.280  67.642  1.00  0.00    -0.285 C  
HETATM   11  C   UNL     1     -10.699  10.048  66.633  1.00  0.00    -0.128 C  
BRANCH  11  12
HETATM   12  C   UNL     1      -9.868  10.607  65.508  1.00  0.00    -0.316 C  
BRANCH  12  13
HETATM   13  C   UNL     1     -10.392  11.978  65.068  1.00  0.00    -0.318 C  
HETATM   14  C   UNL     1     -10.481  12.167  63.547  1.00  0.00    -0.454 C  
HETATM   15  C   UNL     1     -11.415  13.359  63.407  1.00  0.00     0.055 C  
HETATM   16  O   UNL     1     -11.087  11.044  62.910  1.00  0.00    -0.775 OA 
HETATM   17  C   UNL     1     -12.514  13.062  64.427  1.00  0.00    -0.337 C  
HETATM   18  H   UNL     1     -11.142  11.162  61.969  1.00  0.00     0.000 HD 
HETATM   19  C   UNL     1     -11.832  12.266  65.570  1.00  0.00    -0.420 C  
HETATM   20  O   UNL     1     -13.530  12.261  63.820  1.00  0.00    -0.431 OA 
HETATM   21  H   UNL     1     -14.214  12.077  64.454  1.00  0.00     0.000 HD 
BRANCH  19  22
HETATM   22  C   UNL     1     -11.892  13.002  66.894  1.00  0.00    -0.442 C  
HETATM   23  C   UNL     1     -10.975  13.888  67.327  1.00  0.00    -0.299 C  
BRANCH  23  24
HETATM   24  C   UNL     1     -11.096  14.713  68.585  1.00  0.00    -0.262 C  
HETATM   25  F   UNL     1      -9.952  14.615  69.316  1.00  0.00    -0.215 F  
HETATM   26  F   UNL     1     -12.095  14.209  69.360  1.00  0.00    -0.316 F  
BRANCH  24  27
HETATM   27  C   UNL     1     -11.382  16.193  68.278  1.00  0.00    -0.316 C  
BRANCH  27  28
HETATM   28  O   UNL     1     -10.392  17.039  68.880  1.00  0.00    -0.300 OA 
BRANCH  28  29
HETATM   29  C   UNL     1     -10.095  18.181  68.186  1.00  0.00    -0.378 A  
HETATM   30  C   UNL     1     -10.537  18.210  66.862  1.00  0.00    -0.326 A  
HETATM   31  C   UNL     1     -10.292  19.327  66.059  1.00  0.00    -0.556 A  
HETATM   32  C   UNL     1      -9.617  20.427  66.584  1.00  0.00    -0.480 A  
HETATM   33  C   UNL     1      -9.193  20.412  67.912  1.00  0.00    -0.272 A  
HETATM   34  C   UNL     1      -9.432  19.292  68.714  1.00  0.00    -0.459 A  
ENDBRANCH  28  29
ENDBRANCH  27  28
ENDBRANCH  24  27
ENDBRANCH  23  24
ENDBRANCH  19  22
ENDBRANCH  12  13
ENDBRANCH  11  12
ENDBRANCH   9  10
ENDBRANCH   8   9
ENDBRANCH   7   8
ENDBRANCH   5   7
ENDBRANCH   4   5
ENDBRANCH   2   4
TORSDOF 13
ENDMDL
MODEL      193
REMARK 921   NORMALIZED FREE ENERGY PREDICTED BY IDOCK:   -4.36 KCAL/MOL
REMARK 922        TOTAL FREE ENERGY PREDICTED BY IDOCK:  -10.52 KCAL/MOL
REMARK 923 INTER-LIGAND FREE ENERGY PREDICTED BY IDOCK:   -8.75 KCAL/MOL
REMARK 924 INTRA-LIGAND FREE ENERGY PREDICTED BY IDOCK:   -1.76 KCAL/MOL
REMARK 927      BINDING AFFINITY PREDICTED BY RF-SCORE:    0.00 PKD
ROOT
HETATM    1  C   UNL     1      -9.376   7.141  70.595  1.00  0.00    -0.158 C  
HETATM    2  C   UNL     1     -10.336   5.957  70.571  1.00  0.00    -0.235 C  
HETATM    3  C   UNL     1     -11.394   6.096  71.658  1.00  0.00    -0.341 C  
ENDROOT
BRANCH   2   4
HETATM    4  O   UNL     1     -11.017   5.919  69.304  1.00  0.00    -0.334 OA 
BRANCH   4   5
HETATM    5  C   UNL     1     -10.357   5.273  68.303  1.00  0.00    -0.111 C  
HETATM    6  O   UNL     1      -9.601   4.323  68.451  1.00  0.00    -0.153 OA 
BRANCH   5   7
HETATM    7  C   UNL     1     -10.651   5.931  66.981  1.00  0.00    -0.376 C  
BRANCH   7   8
HETATM    8  C   UNL     1     -10.712   7.449  67.135  1.00  0.00    -0.400 C  
BRANCH   8   9
HETATM    9  C   UNL     1      -9.324   8.060  66.956  1.00  0.00    -0.197 C  
BRANCH   9  10
HETATM   10  C   UNL     1      -9.315   9.143  65.917  1.00  0.00    -0.306 C  
HETATM   11  C   UNL     1      -9.422  10.460  66.152  1.00  0.00    -0.227 C  
BRANCH  11  12
HETATM   12  C   UNL     1      -9.572  11.115  67.500  1.00  0.00    -0.181 C  
BRANCH  12  13
HETATM   13  C   UNL     1     -10.071  12.558  67.357  1.00  0.00    -0.211 C  
HETATM   14  C   UNL     1     -11.581  12.733  67.570  1.00  0.00    -0.356 C  
HETATM   15  C   UNL     1     -11.716  14.227  67.822  1.00  0.00    -0.408 C  
HETATM   16  O   UNL     1     -12.034  12.039  68.731  1.00  0.00    -0.307 OA 
HETATM   17  C   UNL     1     -10.549  14.530  68.761  1.00  0.00    -0.248 C  
HETATM   18  H   UNL     1     -12.969  12.149  68.863  1.00  0.00     0.000 HD 
HETATM   19  C   UNL     1      -9.427  13.526  68.385  1.00  0.00    -0.185 C  
HETATM   20  O   UNL     1     -10.952  14.319  70.115  1.00  0.00    -0.465 OA 
HETATM   21  H   UNL     1     -10.226  14.507  70.698  1.00  0.00     0.000 HD 
BRANCH  19  22
HETATM   22  C   UNL     1      -8.179  14.225  67.882  1.00  0.00    -0.156 C  
HETATM   23  C   UNL     1      -7.850  15.503  68.149  1.00  0.00    -0.129 C  
BRANCH  23  24
HETATM   24  C   UNL     1      -6.549  16.160  67.753  1.00  0.00    -0.151 C  
HETATM   25  F   UNL     1      -5.584  15.215  67.591  1.00  0.00    -0.136 F  
HETATM   26  F   UNL     1      -6.130  16.972  68.762  1.00  0.00    -0.136 F  
BRANCH  24  27
HETATM   27  C   UNL     1      -6.688  16.978  66.459  1.00  0.00    -0.232 C  
BRANCH  27  28
HETATM   28  O   UNL     1      -8.059  17.043  66.041  1.00  0.00    -0.452 OA 
BRANCH  28  29
HETATM   29  C   UNL     1      -8.752  18.143  66.471  1.00  0.00    -0.268 A  
HETATM   30  C   UNL     1     -10.124  17.956  66.654  1.00  0.00    -0.362 A  
HETATM   31  C   UNL     1     -10.929  19.009  67.093  1.00  0.00    -0.338 A  
HETATM   32  C   UNL     1     -10.362  20.252  67.366  1.00  0.00    -0.424 A  
HETATM   33  C   UNL     1      -8.989  20.439  67.206  1.00  0.00    -0.460 A  
HETATM   34  C   UNL     1      -8.184  19.387  66.761  1.00  0.00    -0.311 A  
ENDBRANCH  28  29
ENDBRANCH  27  28
ENDBRANCH  24  27
ENDBRANCH  23  24
ENDBRANCH  19  22
ENDBRANCH  12  13
ENDBRANCH  11  12
ENDBRANCH   9  10
ENDBRANCH   8   9
ENDBRANCH   7   8
ENDBRANCH   5   7
ENDBRANCH   4   5
ENDBRANCH   2   4
TORSDOF 13
ENDMDL
MODEL      194
REMARK 921   NORMALIZED FREE ENERGY PREDICTED BY IDOCK:   -4.36 KCAL/MOL
REMARK 922        TOTAL FREE ENERGY PREDICTED BY IDOCK:  -10.52 KCAL/MOL
REMARK 923 INTER-LIGAND FREE ENERGY PREDICTED BY IDOCK:   -8.32 KCAL/MOL
REMARK 924 INTRA-LIGAND FREE ENERGY PREDICTED BY IDOCK:   -2.20 KCAL/MOL
REMARK 927      BINDING AFFINITY PREDICTED BY RF-SCORE:    0.00 PKD
ROOT
HETATM    1  C   UNL     1     -10.820  16.583  65.204  1.00  0.00    -0.247 C  
HETATM    2  C   UNL     1     -10.254  15.238  65.647  1.00  0.00    -0.372 C  
HETATM    3  C   UNL     1      -9.266  15.418  66.793  1.00  0.00    -0.273 C  
ENDROOT
BRANCH   2   4
HETATM    4  O   UNL     1     -11.325  14.404  66.124  1.00  0.00    -0.336 OA 
BRANCH   4   5
HETATM    5  C   UNL     1     -11.806  13.499  65.227  1.00  0.00    -0.352 C  
HETATM    6  O   UNL     1     -12.985  13.217  65.068  1.00  0.00    -0.729 OA 
BRANCH   5   7
HETATM    7  C   UNL     1     -10.667  12.851  64.485  1.00  0.00    -0.392 C  
BRANCH   7   8
HETATM    8  C   UNL     1      -9.949  11.838  65.375  1.00  0.00    -0.284 C  
BRANCH   8   9
HETATM    9  C   UNL     1     -10.345  10.414  64.991  1.00  0.00    -0.249 C  
BRANCH   9  10
HETATM   10  C   UNL     1      -9.249   9.429  65.277  1.00  0.00    -0.299 C  
HETATM   11  C   UNL     1      -9.321   8.399  66.134  1.00  0.00    -0.267 C  
BRANCH  11  12
HETATM   12  C   UNL     1     -10.510   8.024  66.979  1.00  0.00    -0.410 C  
BRANCH  12  13
HETATM   13  C   UNL     1     -10.179   8.133  68.472  1.00  0.00    -0.233 C  
HETATM   14  C   UNL     1     -10.234   9.559  69.034  1.00  0.00    -0.200 C  
HETATM   15  C   UNL     1     -10.323   9.330  70.535  1.00  0.00    -0.312 C  
HETATM   16  O   UNL     1     -11.411  10.247  68.615  1.00  0.00    -0.397 OA 
HETATM   17  C   UNL     1     -11.330   8.187  70.653  1.00  0.00    -0.249 C  
HETATM   18  H   UNL     1     -11.445  11.131  68.963  1.00  0.00     0.000 HD 
HETATM   19  C   UNL     1     -11.161   7.333  69.369  1.00  0.00    -0.092 C  
HETATM   20  O   UNL     1     -12.656   8.717  70.710  1.00  0.00    -0.496 OA 
HETATM   21  H   UNL     1     -13.282   8.007  70.784  1.00  0.00     0.000 HD 
BRANCH  19  22
HETATM   22  C   UNL     1     -10.708   5.919  69.678  1.00  0.00    -0.415 C  
HETATM   23  C   UNL     1      -9.731   5.594  70.546  1.00  0.00    -0.233 C  
BRANCH  23  24
HETATM   24  C   UNL     1      -9.366   4.185  70.947  1.00  0.00    -0.147 C  
HETATM   25  F   UNL     1     -10.239   3.731  71.888  1.00  0.00    -0.246 F  
HETATM   26  F   UNL     1      -8.136   4.186  71.528  1.00  0.00    -0.074 F  
BRANCH  24  27
HETATM   27  C   UNL     1      -9.365   3.226  69.744  1.00  0.00    -0.159 C  
BRANCH  27  28
HETATM   28  O   UNL     1      -8.398   3.636  68.766  1.00  0.00    -0.071 OA 
BRANCH  28  29
HETATM   29  C   UNL     1      -8.743   3.394  67.464  1.00  0.00    -0.116 A  
HETATM   30  C   UNL     1      -9.149   4.512  66.732  1.00  0.00    -0.126 A  
HETATM   31  C   UNL     1      -9.521   4.384  65.392  1.00  0.00    -0.175 A  
HETATM   32  C   UNL     1      -9.474   3.137  64.773  1.00  0.00    -0.150 A  
HETATM   33  C   UNL     1      -9.050   2.020  65.492  1.00  0.00    -0.084 A  
HETATM   34  C   UNL     1      -8.683   2.147  66.835  1.00  0.00    -0.132 A  
ENDBRANCH  28  29
ENDBRANCH  27  28
ENDBRANCH  24  27
ENDBRANCH  23  24
ENDBRANCH  19  22
ENDBRANCH  12  13
ENDBRANCH  11  12
ENDBRANCH   9  10
ENDBRANCH   8   9
ENDBRANCH   7   8
ENDBRANCH   5   7
ENDBRANCH   4   5
ENDBRANCH   2   4
TORSDOF 13
ENDMDL
MODEL      195
REMARK 921   NORMALIZED FREE ENERGY PREDICTED BY IDOCK:   -4.36 KCAL/MOL
REMARK 922        TOTAL FREE ENERGY PREDICTED BY IDOCK:  -10.51 KCAL/MOL
REMARK 923 INTER-LIGAND FREE ENERGY PREDICTED BY IDOCK:   -8.41 KCAL/MOL
REMARK 924 INTRA-LIGAND FREE ENERGY PREDICTED BY IDOCK:   -2.10 KCAL/MOL
REMARK 927      BINDING AFFINITY PREDICTED BY RF-SCORE:    0.00 PKD
ROOT
HETATM    1  C   UNL     1      -9.898  20.678  67.321  1.00  0.00    -0.529 C  
HETATM    2  C   UNL     1      -9.170  19.347  67.171  1.00  0.00    -0.313 C  
HETATM    3  C   UNL     1      -9.851  18.472  66.126  1.00  0.00    -0.297 C  
ENDROOT
BRANCH   2   4
HETATM    4  O   UNL     1      -7.823  19.587  66.727  1.00  0.00    -0.251 OA 
BRANCH   4   5
HETATM    5  C   UNL     1      -6.984  20.118  67.660  1.00  0.00    -0.267 C  
HETATM    6  O   UNL     1      -6.719  21.306  67.780  1.00  0.00    -0.401 OA 
BRANCH   5   7
HETATM    7  C   UNL     1      -6.383  19.021  68.498  1.00  0.00    -0.256 C  
BRANCH   7   8
HETATM    8  C   UNL     1      -5.532  18.089  67.639  1.00  0.00    -0.147 C  
BRANCH   8   9
HETATM    9  C   UNL     1      -5.815  16.630  67.991  1.00  0.00    -0.127 C  
BRANCH   9  10
HETATM   10  C   UNL     1      -7.026  16.105  67.276  1.00  0.00    -0.234 C  
HETATM   11  C   UNL     1      -8.215  15.832  67.837  1.00  0.00    -0.151 C  
BRANCH  11  12
HETATM   12  C   UNL     1      -8.572  15.997  69.291  1.00  0.00    -0.224 C  
BRANCH  12  13
HETATM   13  C   UNL     1      -9.684  15.023  69.697  1.00  0.00    -0.067 C  
HETATM   14  C   UNL     1     -10.919  15.690  70.317  1.00  0.00    -0.348 C  
HETATM   15  C   UNL     1     -11.985  14.611  70.195  1.00  0.00    -0.372 C  
HETATM   16  O   UNL     1     -11.341  16.825  69.562  1.00  0.00    -0.279 OA 
HETATM   17  C   UNL     1     -11.766  14.063  68.785  1.00  0.00    -0.353 C  
HETATM   18  H   UNL     1     -12.107  17.237  69.946  1.00  0.00     0.000 HD 
HETATM   19  C   UNL     1     -10.250  14.217  68.497  1.00  0.00    -0.245 C  
HETATM   20  O   UNL     1     -12.518  14.836  67.847  1.00  0.00    -0.556 OA 
HETATM   21  H   UNL     1     -12.382  14.495  66.970  1.00  0.00     0.000 HD 
BRANCH  19  22
HETATM   22  C   UNL     1      -9.572  12.879  68.273  1.00  0.00    -0.212 C  
HETATM   23  C   UNL     1     -10.078  11.872  67.537  1.00  0.00    -0.206 C  
BRANCH  23  24
HETATM   24  C   UNL     1      -9.350  10.590  67.211  1.00  0.00    -0.146 C  
HETATM   25  F   UNL     1      -8.011  10.761  67.390  1.00  0.00    -0.107 F  
HETATM   26  F   UNL     1      -9.529  10.291  65.895  1.00  0.00    -0.184 F  
BRANCH  24  27
HETATM   27  C   UNL     1      -9.836   9.416  68.076  1.00  0.00    -0.164 C  
BRANCH  27  28
HETATM   28  O   UNL     1     -10.991   9.790  68.840  1.00  0.00    -0.212 OA 
BRANCH  28  29
HETATM   29  C   UNL     1     -11.028   9.307  70.121  1.00  0.00    -0.246 A  
HETATM   30  C   UNL     1     -12.148   9.675  70.870  1.00  0.00    -0.383 A  
HETATM   31  C   UNL     1     -12.292   9.238  72.188  1.00  0.00    -0.398 A  
HETATM   32  C   UNL     1     -11.323   8.417  72.759  1.00  0.00    -0.225 A  
HETATM   33  C   UNL     1     -10.213   8.029  72.010  1.00  0.00    -0.288 A  
HETATM   34  C   UNL     1     -10.065   8.471  70.692  1.00  0.00    -0.225 A  
ENDBRANCH  28  29
ENDBRANCH  27  28
ENDBRANCH  24  27
ENDBRANCH  23  24
ENDBRANCH  19  22
ENDBRANCH  12  13
ENDBRANCH  11  12
ENDBRANCH   9  10
ENDBRANCH   8   9
ENDBRANCH   7   8
ENDBRANCH   5   7
ENDBRANCH   4   5
ENDBRANCH   2   4
TORSDOF 13
ENDMDL
MODEL      196
REMARK 921   NORMALIZED FREE ENERGY PREDICTED BY IDOCK:   -4.36 KCAL/MOL
REMARK 922        TOTAL FREE ENERGY PREDICTED BY IDOCK:  -10.51 KCAL/MOL
REMARK 923 INTER-LIGAND FREE ENERGY PREDICTED BY IDOCK:   -9.31 KCAL/MOL
REMARK 924 INTRA-LIGAND FREE ENERGY PREDICTED BY IDOCK:   -1.20 KCAL/MOL
REMARK 927      BINDING AFFINITY PREDICTED BY RF-SCORE:    0.00 PKD
ROOT
HETATM    1  C   UNL     1     -10.731   9.741  70.697  1.00  0.00    -0.394 C  
HETATM    2  C   UNL     1     -11.692   9.306  71.798  1.00  0.00    -0.386 C  
HETATM    3  C   UNL     1     -13.136   9.576  71.393  1.00  0.00    -0.449 C  
ENDROOT
BRANCH   2   4
HETATM    4  O   UNL     1     -11.560   7.890  72.016  1.00  0.00    -0.275 OA 
BRANCH   4   5
HETATM    5  C   UNL     1     -10.670   7.253  71.204  1.00  0.00    -0.228 C  
HETATM    6  O   UNL     1      -9.453   7.293  71.317  1.00  0.00    -0.156 OA 
BRANCH   5   7
HETATM    7  C   UNL     1     -11.402   6.528  70.106  1.00  0.00    -0.463 C  
BRANCH   7   8
HETATM    8  C   UNL     1     -10.422   5.767  69.215  1.00  0.00    -0.358 C  
BRANCH   8   9
HETATM    9  C   UNL     1     -10.772   5.968  67.743  1.00  0.00    -0.369 C  
BRANCH   9  10
HETATM   10  C   UNL     1     -11.014   7.412  67.414  1.00  0.00    -0.214 C  
HETATM   11  C   UNL     1     -10.068   8.340  67.198  1.00  0.00    -0.334 C  
BRANCH  11  12
HETATM   12  C   UNL     1      -8.579   8.120  67.241  1.00  0.00    -0.124 C  
BRANCH  12  13
HETATM   13  C   UNL     1      -7.879   8.880  66.109  1.00  0.00    -0.102 C  
HETATM   14  C   UNL     1      -7.590   8.036  64.860  1.00  0.00    -0.106 C  
HETATM   15  C   UNL     1      -7.339   9.088  63.790  1.00  0.00    -0.101 C  
HETATM   16  O   UNL     1      -8.724   7.263  64.472  1.00  0.00    -0.340 OA 
HETATM   17  C   UNL     1      -8.438  10.117  64.049  1.00  0.00    -0.184 C  
HETATM   18  H   UNL     1      -8.545   6.741  63.698  1.00  0.00     0.000 HD 
HETATM   19  C   UNL     1      -8.713  10.075  65.575  1.00  0.00    -0.171 C  
HETATM   20  O   UNL     1      -9.620   9.750  63.335  1.00  0.00    -0.497 OA 
HETATM   21  H   UNL     1     -10.303  10.390  63.495  1.00  0.00     0.000 HD 
BRANCH  19  22
HETATM   22  C   UNL     1      -8.404  11.398  66.249  1.00  0.00    -0.111 C  
HETATM   23  C   UNL     1      -9.286  12.401  66.420  1.00  0.00    -0.219 C  
BRANCH  23  24
HETATM   24  C   UNL     1      -9.016  13.665  67.199  1.00  0.00    -0.231 C  
HETATM   25  F   UNL     1      -7.716  14.038  67.039  1.00  0.00    -0.172 F  
HETATM   26  F   UNL     1      -9.188  13.422  68.527  1.00  0.00    -0.187 F  
BRANCH  24  27
HETATM   27  C   UNL     1      -9.935  14.818  66.764  1.00  0.00    -0.251 C  
BRANCH  27  28
HETATM   28  O   UNL     1     -10.220  15.689  67.868  1.00  0.00    -0.234 OA 
BRANCH  28  29
HETATM   29  C   UNL     1     -10.245  17.024  67.570  1.00  0.00    -0.323 A  
HETATM   30  C   UNL     1     -10.131  17.886  68.663  1.00  0.00    -0.394 A  
HETATM   31  C   UNL     1     -10.142  19.270  68.477  1.00  0.00    -0.513 A  
HETATM   32  C   UNL     1     -10.251  19.799  67.192  1.00  0.00    -0.574 A  
HETATM   33  C   UNL     1     -10.343  18.943  66.095  1.00  0.00    -0.517 A  
HETATM   34  C   UNL     1     -10.338  17.558  66.282  1.00  0.00    -0.335 A  
ENDBRANCH  28  29
ENDBRANCH  27  28
ENDBRANCH  24  27
ENDBRANCH  23  24
ENDBRANCH  19  22
ENDBRANCH  12  13
ENDBRANCH  11  12
ENDBRANCH   9  10
ENDBRANCH   8   9
ENDBRANCH   7   8
ENDBRANCH   5   7
ENDBRANCH   4   5
ENDBRANCH   2   4
TORSDOF 13
ENDMDL
MODEL      197
REMARK 921   NORMALIZED FREE ENERGY PREDICTED BY IDOCK:   -4.36 KCAL/MOL
REMARK 922        TOTAL FREE ENERGY PREDICTED BY IDOCK:  -10.51 KCAL/MOL
REMARK 923 INTER-LIGAND FREE ENERGY PREDICTED BY IDOCK:   -7.51 KCAL/MOL
REMARK 924 INTRA-LIGAND FREE ENERGY PREDICTED BY IDOCK:   -2.99 KCAL/MOL
REMARK 927      BINDING AFFINITY PREDICTED BY RF-SCORE:    0.00 PKD
ROOT
HETATM    1  C   UNL     1     -10.948   6.574  68.765  1.00  0.00    -0.371 C  
HETATM    2  C   UNL     1      -9.793   6.889  69.709  1.00  0.00    -0.171 C  
HETATM    3  C   UNL     1      -8.675   5.865  69.555  1.00  0.00    -0.116 C  
ENDROOT
BRANCH   2   4
HETATM    4  O   UNL     1      -9.248   8.180  69.385  1.00  0.00    -0.154 OA 
BRANCH   4   5
HETATM    5  C   UNL     1      -8.785   8.903  70.442  1.00  0.00    -0.180 C  
HETATM    6  O   UNL     1      -9.167   8.791  71.599  1.00  0.00    -0.231 OA 
BRANCH   5   7
HETATM    7  C   UNL     1      -7.762   9.904  69.975  1.00  0.00    -0.188 C  
BRANCH   7   8
HETATM    8  C   UNL     1      -8.329  10.772  68.854  1.00  0.00    -0.147 C  
BRANCH   8   9
HETATM    9  C   UNL     1      -7.219  11.589  68.197  1.00  0.00    -0.080 C  
BRANCH   9  10
HETATM   10  C   UNL     1      -6.515  12.476  69.182  1.00  0.00    -0.099 C  
HETATM   11  C   UNL     1      -6.259  13.784  69.022  1.00  0.00    -0.095 C  
BRANCH  11  12
HETATM   12  C   UNL     1      -6.624  14.622  67.825  1.00  0.00    -0.189 C  
BRANCH  12  13
HETATM   13  C   UNL     1      -7.958  15.343  68.046  1.00  0.00    -0.134 C  
HETATM   14  C   UNL     1      -7.836  16.715  68.723  1.00  0.00    -0.238 C  
HETATM   15  C   UNL     1      -9.173  17.369  68.409  1.00  0.00    -0.277 C  
HETATM   16  O   UNL     1      -6.802  17.503  68.136  1.00  0.00    -0.187 OA 
HETATM   17  C   UNL     1      -9.398  17.013  66.940  1.00  0.00    -0.251 C  
HETATM   18  H   UNL     1      -6.727  18.353  68.556  1.00  0.00     0.000 HD 
HETATM   19  C   UNL     1      -8.713  15.639  66.723  1.00  0.00    -0.306 C  
HETATM   20  O   UNL     1      -8.782  17.998  66.107  1.00  0.00    -0.459 OA 
HETATM   21  H   UNL     1      -8.922  17.777  65.193  1.00  0.00     0.000 HD 
BRANCH  19  22
HETATM   22  C   UNL     1      -9.703  14.564  66.319  1.00  0.00    -0.330 C  
HETATM   23  C   UNL     1     -11.014  14.568  66.625  1.00  0.00    -0.321 C  
BRANCH  23  24
HETATM   24  C   UNL     1     -12.023  13.565  66.119  1.00  0.00    -0.412 C  
HETATM   25  F   UNL     1     -12.984  14.201  65.394  1.00  0.00    -0.511 F  
HETATM   26  F   UNL     1     -12.655  12.989  67.177  1.00  0.00    -0.230 F  
BRANCH  24  27
HETATM   27  C   UNL     1     -11.367  12.475  65.256  1.00  0.00    -0.324 C  
BRANCH  27  28
HETATM   28  O   UNL     1     -11.174  11.272  66.013  1.00  0.00    -0.190 OA 
BRANCH  28  29
HETATM   29  C   UNL     1     -10.076  10.531  65.668  1.00  0.00    -0.268 A  
HETATM   30  C   UNL     1     -10.027   9.244  66.206  1.00  0.00    -0.357 A  
HETATM   31  C   UNL     1      -8.953   8.398  65.918  1.00  0.00    -0.223 A  
HETATM   32  C   UNL     1      -7.931   8.832  65.077  1.00  0.00    -0.132 A  
HETATM   33  C   UNL     1      -7.986  10.108  64.519  1.00  0.00    -0.147 A  
HETATM   34  C   UNL     1      -9.057  10.958  64.812  1.00  0.00    -0.197 A  
ENDBRANCH  28  29
ENDBRANCH  27  28
ENDBRANCH  24  27
ENDBRANCH  23  24
ENDBRANCH  19  22
ENDBRANCH  12  13
ENDBRANCH  11  12
ENDBRANCH   9  10
ENDBRANCH   8   9
ENDBRANCH   7   8
ENDBRANCH   5   7
ENDBRANCH   4   5
ENDBRANCH   2   4
TORSDOF 13
ENDMDL
MODEL      198
REMARK 921   NORMALIZED FREE ENERGY PREDICTED BY IDOCK:   -4.34 KCAL/MOL
REMARK 922        TOTAL FREE ENERGY PREDICTED BY IDOCK:  -10.48 KCAL/MOL
REMARK 923 INTER-LIGAND FREE ENERGY PREDICTED BY IDOCK:   -8.35 KCAL/MOL
REMARK 924 INTRA-LIGAND FREE ENERGY PREDICTED BY IDOCK:   -2.13 KCAL/MOL
REMARK 927      BINDING AFFINITY PREDICTED BY RF-SCORE:    0.00 PKD
ROOT
HETATM    1  C   UNL     1     -10.936   9.516  69.786  1.00  0.00    -0.245 C  
HETATM    2  C   UNL     1     -11.257   9.692  71.266  1.00  0.00    -0.376 C  
HETATM    3  C   UNL     1     -12.689  10.177  71.455  1.00  0.00    -0.541 C  
ENDROOT
BRANCH   2   4
HETATM    4  O   UNL     1     -11.137   8.424  71.935  1.00  0.00    -0.265 OA 
BRANCH   4   5
HETATM    5  C   UNL     1      -9.891   8.120  72.395  1.00  0.00    -0.276 C  
HETATM    6  O   UNL     1      -9.061   8.931  72.781  1.00  0.00    -0.280 OA 
BRANCH   5   7
HETATM    7  C   UNL     1      -9.658   6.635  72.313  1.00  0.00    -0.150 C  
BRANCH   7   8
HETATM    8  C   UNL     1     -10.834   5.940  71.630  1.00  0.00    -0.321 C  
BRANCH   8   9
HETATM    9  C   UNL     1     -10.456   5.518  70.212  1.00  0.00    -0.365 C  
BRANCH   9  10
HETATM   10  C   UNL     1      -9.217   6.214  69.730  1.00  0.00    -0.151 C  
HETATM   11  C   UNL     1      -8.314   5.711  68.874  1.00  0.00    -0.103 C  
BRANCH  11  12
HETATM   12  C   UNL     1      -8.360   4.351  68.228  1.00  0.00    -0.097 C  
BRANCH  12  13
HETATM   13  C   UNL     1      -8.363   4.469  66.699  1.00  0.00    -0.106 C  
HETATM   14  C   UNL     1      -8.658   3.157  65.960  1.00  0.00    -0.119 C  
HETATM   15  C   UNL     1      -9.043   3.631  64.567  1.00  0.00    -0.131 C  
HETATM   16  O   UNL     1      -9.775   2.472  66.526  1.00  0.00    -0.371 OA 
HETATM   17  C   UNL     1      -9.950   4.829  64.845  1.00  0.00     0.124 C  
HETATM   18  H   UNL     1      -9.958   1.660  66.067  1.00  0.00     0.000 HD 
HETATM   19  C   UNL     1      -9.439   5.453  66.170  1.00  0.00    -0.171 C  
HETATM   20  O   UNL     1     -11.298   4.385  65.008  1.00  0.00    -1.040 OA 
HETATM   21  H   UNL     1     -11.862   5.130  65.180  1.00  0.00     0.000 HD 
BRANCH  19  22
HETATM   22  C   UNL     1      -8.943   6.873  65.980  1.00  0.00    -0.131 C  
HETATM   23  C   UNL     1      -9.617   7.982  66.338  1.00  0.00    -0.267 C  
BRANCH  23  24
HETATM   24  C   UNL     1      -9.071   9.387  66.263  1.00  0.00    -0.163 C  
HETATM   25  F   UNL     1      -7.973   9.415  65.459  1.00  0.00    -0.104 F  
HETATM   26  F   UNL     1      -8.656   9.776  67.499  1.00  0.00    -0.122 F  
BRANCH  24  27
HETATM   27  C   UNL     1     -10.117  10.383  65.736  1.00  0.00    -0.262 C  
BRANCH  27  28
HETATM   28  O   UNL     1     -11.052  10.735  66.766  1.00  0.00    -0.212 OA 
BRANCH  28  29
HETATM   29  C   UNL     1     -11.330  12.071  66.876  1.00  0.00    -0.341 A  
HETATM   30  C   UNL     1     -10.687  12.734  67.923  1.00  0.00    -0.235 A  
HETATM   31  C   UNL     1     -10.894  14.099  68.128  1.00  0.00    -0.258 A  
HETATM   32  C   UNL     1     -11.734  14.812  67.276  1.00  0.00    -0.366 A  
HETATM   33  C   UNL     1     -12.362  14.160  66.215  1.00  0.00    -0.451 A  
HETATM   34  C   UNL     1     -12.160  12.792  66.013  1.00  0.00    -0.458 A  
ENDBRANCH  28  29
ENDBRANCH  27  28
ENDBRANCH  24  27
ENDBRANCH  23  24
ENDBRANCH  19  22
ENDBRANCH  12  13
ENDBRANCH  11  12
ENDBRANCH   9  10
ENDBRANCH   8   9
ENDBRANCH   7   8
ENDBRANCH   5   7
ENDBRANCH   4   5
ENDBRANCH   2   4
TORSDOF 13
ENDMDL
MODEL      199
REMARK 921   NORMALIZED FREE ENERGY PREDICTED BY IDOCK:   -4.33 KCAL/MOL
REMARK 922        TOTAL FREE ENERGY PREDICTED BY IDOCK:  -10.46 KCAL/MOL
REMARK 923 INTER-LIGAND FREE ENERGY PREDICTED BY IDOCK:   -8.94 KCAL/MOL
REMARK 924 INTRA-LIGAND FREE ENERGY PREDICTED BY IDOCK:   -1.52 KCAL/MOL
REMARK 927      BINDING AFFINITY PREDICTED BY RF-SCORE:    0.00 PKD
ROOT
HETATM    1  C   UNL     1     -11.421  15.401  64.767  1.00  0.00    -0.337 C  
HETATM    2  C   UNL     1     -11.313  14.140  65.618  1.00  0.00    -0.319 C  
HETATM    3  C   UNL     1     -12.542  13.258  65.435  1.00  0.00    -0.526 C  
ENDROOT
BRANCH   2   4
HETATM    4  O   UNL     1     -10.166  13.379  65.201  1.00  0.00    -0.317 OA 
BRANCH   4   5
HETATM    5  C   UNL     1      -9.970  12.204  65.863  1.00  0.00    -0.245 C  
HETATM    6  O   UNL     1     -10.084  11.089  65.376  1.00  0.00    -0.243 OA 
BRANCH   5   7
HETATM    7  C   UNL     1      -9.639  12.475  67.307  1.00  0.00    -0.205 C  
BRANCH   7   8
HETATM    8  C   UNL     1      -8.740  13.703  67.435  1.00  0.00    -0.214 C  
BRANCH   8   9
HETATM    9  C   UNL     1      -8.571  14.090  68.902  1.00  0.00     0.053 C  
BRANCH   9  10
HETATM   10  C   UNL     1      -8.949  15.520  69.154  1.00  0.00    -0.256 C  
HETATM   11  C   UNL     1     -10.178  15.968  69.454  1.00  0.00    -0.270 C  
BRANCH  11  12
HETATM   12  C   UNL     1     -11.422  15.130  69.598  1.00  0.00    -0.314 C  
BRANCH  12  13
HETATM   13  C   UNL     1     -11.523  14.535  71.007  1.00  0.00    -0.140 C  
HETATM   14  C   UNL     1     -11.495  15.572  72.138  1.00  0.00    -0.421 C  
HETATM   15  C   UNL     1     -12.052  14.797  73.323  1.00  0.00    -0.311 C  
HETATM   16  O   UNL     1     -12.365  16.670  71.871  1.00  0.00    -0.416 OA 
HETATM   17  C   UNL     1     -13.230  14.035  72.717  1.00  0.00    -0.481 C  
HETATM   18  H   UNL     1     -12.347  17.311  72.572  1.00  0.00     0.000 HD 
HETATM   19  C   UNL     1     -12.844  13.754  71.241  1.00  0.00    -0.434 C  
HETATM   20  O   UNL     1     -14.405  14.847  72.764  1.00  0.00    -0.330 OA 
HETATM   21  H   UNL     1     -15.137  14.372  72.388  1.00  0.00     0.000 HD 
BRANCH  19  22
HETATM   22  C   UNL     1     -12.748  12.270  70.947  1.00  0.00    -0.277 C  
HETATM   23  C   UNL     1     -12.663  11.302  71.879  1.00  0.00    -0.278 C  
BRANCH  23  24
HETATM   24  C   UNL     1     -12.693   9.821  71.592  1.00  0.00    -0.422 C  
HETATM   25  F   UNL     1     -13.446   9.580  70.483  1.00  0.00    -0.142 F  
HETATM   26  F   UNL     1     -13.304   9.174  72.621  1.00  0.00    -0.462 F  
BRANCH  24  27
HETATM   27  C   UNL     1     -11.282   9.245  71.387  1.00  0.00    -0.362 C  
BRANCH  27  28
HETATM   28  O   UNL     1     -11.340   7.836  71.121  1.00  0.00    -0.260 OA 
BRANCH  28  29
HETATM   29  C   UNL     1     -10.299   7.102  71.622  1.00  0.00    -0.197 A  
HETATM   30  C   UNL     1     -10.267   6.975  73.012  1.00  0.00    -0.264 A  
HETATM   31  C   UNL     1      -9.252   6.245  73.633  1.00  0.00    -0.136 A  
HETATM   32  C   UNL     1      -8.271   5.624  72.863  1.00  0.00    -0.119 A  
HETATM   33  C   UNL     1      -8.309   5.729  71.473  1.00  0.00    -0.127 A  
HETATM   34  C   UNL     1      -9.322   6.465  70.852  1.00  0.00    -0.168 A  
ENDBRANCH  28  29
ENDBRANCH  27  28
ENDBRANCH  24  27
ENDBRANCH  23  24
ENDBRANCH  19  22
ENDBRANCH  12  13
ENDBRANCH  11  12
ENDBRANCH   9  10
ENDBRANCH   8   9
ENDBRANCH   7   8
ENDBRANCH   5   7
ENDBRANCH   4   5
ENDBRANCH   2   4
TORSDOF 13
ENDMDL
MODEL      200
REMARK 921   NORMALIZED FREE ENERGY PREDICTED BY IDOCK:   -4.32 KCAL/MOL
REMARK 922        TOTAL FREE ENERGY PREDICTED BY IDOCK:  -10.44 KCAL/MOL
REMARK 923 INTER-LIGAND FREE ENERGY PREDICTED BY IDOCK:   -8.03 KCAL/MOL
REMARK 924 INTRA-LIGAND FREE ENERGY PREDICTED BY IDOCK:   -2.41 KCAL/MOL
REMARK 927      BINDING AFFINITY PREDICTED BY RF-SCORE:    0.00 PKD
ROOT
HETATM    1  C   UNL     1      -7.201   5.543  66.586  1.00  0.00    -0.074 C  
HETATM    2  C   UNL     1      -7.318   6.659  67.619  1.00  0.00    -0.096 C  
HETATM    3  C   UNL     1      -7.410   8.018  66.937  1.00  0.00    -0.090 C  
ENDROOT
BRANCH   2   4
HETATM    4  O   UNL     1      -8.521   6.475  68.386  1.00  0.00    -0.120 OA 
BRANCH   4   5
HETATM    5  C   UNL     1      -8.511   7.026  69.632  1.00  0.00    -0.134 C  
HETATM    6  O   UNL     1      -7.644   6.850  70.477  1.00  0.00    -0.087 OA 
BRANCH   5   7
HETATM    7  C   UNL     1      -9.754   7.848  69.844  1.00  0.00    -0.176 C  
BRANCH   7   8
HETATM    8  C   UNL     1      -9.560   8.835  70.993  1.00  0.00    -0.290 C  
BRANCH   8   9
HETATM    9  C   UNL     1     -10.864   9.020  71.765  1.00  0.00    -0.437 C  
BRANCH   9  10
HETATM   10  C   UNL     1     -12.006   9.382  70.861  1.00  0.00    -0.351 C  
HETATM   11  C   UNL     1     -12.677  10.544  70.867  1.00  0.00    -0.495 C  
BRANCH  11  12
HETATM   12  C   UNL     1     -12.421  11.716  71.779  1.00  0.00    -0.044 C  
BRANCH  12  13
HETATM   13  C   UNL     1     -13.140  12.972  71.273  1.00  0.00    -0.263 C  
HETATM   14  C   UNL     1     -13.682  13.884  72.382  1.00  0.00    -0.576 C  
HETATM   15  C   UNL     1     -13.913  15.200  71.656  1.00  0.00    -0.618 C  
HETATM   16  O   UNL     1     -12.716  14.101  73.408  1.00  0.00    -0.358 OA 
HETATM   17  C   UNL     1     -12.663  15.343  70.788  1.00  0.00    -0.459 C  
HETATM   18  H   UNL     1     -13.052  14.666  74.094  1.00  0.00     0.000 HD 
HETATM   19  C   UNL     1     -12.221  13.899  70.435  1.00  0.00    -0.438 C  
HETATM   20  O   UNL     1     -11.632  15.996  71.533  1.00  0.00    -0.425 OA 
HETATM   21  H   UNL     1     -10.855  16.085  70.994  1.00  0.00     0.000 HD 
BRANCH  19  22
HETATM   22  C   UNL     1     -12.268  13.636  68.942  1.00  0.00    -0.221 C  
HETATM   23  C   UNL     1     -11.233  13.798  68.097  1.00  0.00    -0.298 C  
BRANCH  23  24
HETATM   24  C   UNL     1     -11.244  13.418  66.636  1.00  0.00    -0.309 C  
HETATM   25  F   UNL     1     -10.885  14.490  65.876  1.00  0.00    -0.286 F  
HETATM   26  F   UNL     1     -12.511  13.087  66.265  1.00  0.00    -0.442 F  
BRANCH  24  27
HETATM   27  C   UNL     1     -10.298  12.242  66.340  1.00  0.00    -0.225 C  
BRANCH  27  28
HETATM   28  O   UNL     1      -9.940  11.558  67.550  1.00  0.00    -0.187 OA 
BRANCH  28  29
HETATM   29  C   UNL     1      -8.598  11.485  67.807  1.00  0.00    -0.138 A  
HETATM   30  C   UNL     1      -7.763  11.847  66.748  1.00  0.00    -0.051 A  
HETATM   31  C   UNL     1      -6.375  11.813  66.899  1.00  0.00    -0.131 A  
HETATM   32  C   UNL     1      -5.816  11.431  68.116  1.00  0.00    -0.045 A  
HETATM   33  C   UNL     1      -6.645  11.089  69.184  1.00  0.00    -0.077 A  
HETATM   34  C   UNL     1      -8.034  11.118  69.032  1.00  0.00    -0.087 A  
ENDBRANCH  28  29
ENDBRANCH  27  28
ENDBRANCH  24  27
ENDBRANCH  23  24
ENDBRANCH  19  22
ENDBRANCH  12  13
ENDBRANCH  11  12
ENDBRANCH   9  10
ENDBRANCH   8   9
ENDBRANCH   7   8
ENDBRANCH   5   7
ENDBRANCH   4   5
ENDBRANCH   2   4
TORSDOF 13
ENDMDL
MODEL      201
REMARK 921   NORMALIZED FREE ENERGY PREDICTED BY IDOCK:   -4.31 KCAL/MOL
REMARK 922        TOTAL FREE ENERGY PREDICTED BY IDOCK:  -10.43 KCAL/MOL
REMARK 923 INTER-LIGAND FREE ENERGY PREDICTED BY IDOCK:   -8.39 KCAL/MOL
REMARK 924 INTRA-LIGAND FREE ENERGY PREDICTED BY IDOCK:   -2.03 KCAL/MOL
REMARK 927      BINDING AFFINITY PREDICTED BY RF-SCORE:    0.00 PKD
ROOT
HETATM    1  C   UNL     1     -12.388  14.182  64.030  1.00  0.00    -0.315 C  
HETATM    2  C   UNL     1     -12.734  12.729  64.338  1.00  0.00    -0.289 C  
HETATM    3  C   UNL     1     -12.512  11.849  63.114  1.00  0.00    -0.363 C  
ENDROOT
BRANCH   2   4
HETATM    4  O   UNL     1     -11.873  12.244  65.384  1.00  0.00    -0.387 OA 
BRANCH   4   5
HETATM    5  C   UNL     1     -10.582  12.008  65.017  1.00  0.00    -0.289 C  
HETATM    6  O   UNL     1      -9.777  12.860  64.669  1.00  0.00    -0.054 OA 
BRANCH   5   7
HETATM    7  C   UNL     1     -10.298  10.530  65.052  1.00  0.00    -0.310 C  
BRANCH   7   8
HETATM    8  C   UNL     1      -9.078  10.234  65.922  1.00  0.00    -0.194 C  
BRANCH   8   9
HETATM    9  C   UNL     1      -9.499   9.532  67.210  1.00  0.00    -0.170 C  
BRANCH   9  10
HETATM   10  C   UNL     1      -8.638   9.928  68.374  1.00  0.00    -0.116 C  
HETATM   11  C   UNL     1      -8.260  11.178  68.684  1.00  0.00    -0.152 C  
BRANCH  11  12
HETATM   12  C   UNL     1      -8.621  12.431  67.930  1.00  0.00    -0.171 C  
BRANCH  12  13
HETATM   13  C   UNL     1      -9.568  13.313  68.751  1.00  0.00     0.058 C  
HETATM   14  C   UNL     1      -9.626  14.778  68.298  1.00  0.00    -0.215 C  
HETATM   15  C   UNL     1     -10.911  15.280  68.939  1.00  0.00    -0.247 C  
HETATM   16  O   UNL     1      -9.757  14.888  66.883  1.00  0.00    -0.228 OA 
HETATM   17  C   UNL     1     -11.893  14.136  68.694  1.00  0.00    -0.348 C  
HETATM   18  H   UNL     1      -9.794  15.796  66.603  1.00  0.00     0.000 HD 
HETATM   19  C   UNL     1     -11.044  12.837  68.689  1.00  0.00    -0.304 C  
HETATM   20  O   UNL     1     -12.523  14.306  67.423  1.00  0.00    -0.588 OA 
HETATM   21  H   UNL     1     -13.134  13.594  67.271  1.00  0.00     0.000 HD 
BRANCH  19  22
HETATM   22  C   UNL     1     -11.439  11.892  69.807  1.00  0.00    -0.303 C  
HETATM   23  C   UNL     1     -12.625  11.262  69.901  1.00  0.00    -0.129 C  
BRANCH  23  24
HETATM   24  C   UNL     1     -12.973  10.226  70.943  1.00  0.00    -0.371 C  
HETATM   25  F   UNL     1     -14.275   9.854  70.808  1.00  0.00    -0.156 F  
HETATM   26  F   UNL     1     -12.854  10.776  72.182  1.00  0.00    -0.516 F  
BRANCH  24  27
HETATM   27  C   UNL     1     -12.072   8.984  70.843  1.00  0.00    -0.198 C  
BRANCH  27  28
HETATM   28  O   UNL     1     -11.916   8.363  72.127  1.00  0.00    -0.326 OA 
BRANCH  28  29
HETATM   29  C   UNL     1     -10.622   8.143  72.519  1.00  0.00    -0.340 A  
HETATM   30  C   UNL     1     -10.466   7.359  73.664  1.00  0.00    -0.350 A  
HETATM   31  C   UNL     1      -9.191   7.068  74.153  1.00  0.00    -0.267 A  
HETATM   32  C   UNL     1      -8.065   7.548  73.489  1.00  0.00    -0.170 A  
HETATM   33  C   UNL     1      -8.213   8.314  72.333  1.00  0.00    -0.214 A  
HETATM   34  C   UNL     1      -9.490   8.610  71.846  1.00  0.00    -0.369 A  
ENDBRANCH  28  29
ENDBRANCH  27  28
ENDBRANCH  24  27
ENDBRANCH  23  24
ENDBRANCH  19  22
ENDBRANCH  12  13
ENDBRANCH  11  12
ENDBRANCH   9  10
ENDBRANCH   8   9
ENDBRANCH   7   8
ENDBRANCH   5   7
ENDBRANCH   4   5
ENDBRANCH   2   4
TORSDOF 13
ENDMDL
MODEL      202
REMARK 921   NORMALIZED FREE ENERGY PREDICTED BY IDOCK:   -4.30 KCAL/MOL
REMARK 922        TOTAL FREE ENERGY PREDICTED BY IDOCK:  -10.41 KCAL/MOL
REMARK 923 INTER-LIGAND FREE ENERGY PREDICTED BY IDOCK:   -8.64 KCAL/MOL
REMARK 924 INTRA-LIGAND FREE ENERGY PREDICTED BY IDOCK:   -1.77 KCAL/MOL
REMARK 927      BINDING AFFINITY PREDICTED BY RF-SCORE:    0.00 PKD
ROOT
HETATM    1  C   UNL     1     -12.354  14.209  64.856  1.00  0.00    -0.446 C  
HETATM    2  C   UNL     1     -12.070  12.711  64.851  1.00  0.00    -0.438 C  
HETATM    3  C   UNL     1     -12.449  12.093  63.510  1.00  0.00    -0.666 C  
ENDROOT
BRANCH   2   4
HETATM    4  O   UNL     1     -10.662  12.491  65.048  1.00  0.00    -0.278 OA 
BRANCH   4   5
HETATM    5  C   UNL     1     -10.060  11.686  64.127  1.00  0.00    -0.297 C  
HETATM    6  O   UNL     1      -9.811  11.996  62.971  1.00  0.00    -0.372 OA 
BRANCH   5   7
HETATM    7  C   UNL     1      -9.788  10.331  64.725  1.00  0.00    -0.403 C  
BRANCH   7   8
HETATM    8  C   UNL     1      -8.289  10.121  64.928  1.00  0.00    -0.166 C  
BRANCH   8   9
HETATM    9  C   UNL     1      -8.021   9.452  66.274  1.00  0.00    -0.111 C  
BRANCH   9  10
HETATM   10  C   UNL     1      -8.796  10.095  67.387  1.00  0.00    -0.135 C  
HETATM   11  C   UNL     1      -8.538  11.294  67.934  1.00  0.00    -0.134 C  
BRANCH  11  12
HETATM   12  C   UNL     1      -7.425  12.230  67.545  1.00  0.00    -0.149 C  
BRANCH  12  13
HETATM   13  C   UNL     1      -7.616  13.608  68.190  1.00  0.00    -0.137 C  
HETATM   14  C   UNL     1      -6.317  14.398  68.399  1.00  0.00    -0.101 C  
HETATM   15  C   UNL     1      -6.815  15.821  68.603  1.00  0.00    -0.122 C  
HETATM   16  O   UNL     1      -5.491  14.373  67.237  1.00  0.00    -0.287 OA 
HETATM   17  C   UNL     1      -7.894  15.969  67.531  1.00  0.00    -0.148 C  
HETATM   18  H   UNL     1      -4.687  14.863  67.368  1.00  0.00     0.000 HD 
HETATM   19  C   UNL     1      -8.504  14.555  67.340  1.00  0.00    -0.220 C  
HETATM   20  O   UNL     1      -7.300  16.408  66.307  1.00  0.00    -0.139 OA 
HETATM   21  H   UNL     1      -7.971  16.500  65.641  1.00  0.00     0.000 HD 
BRANCH  19  22
HETATM   22  C   UNL     1      -9.976  14.515  67.700  1.00  0.00    -0.224 C  
HETATM   23  C   UNL     1     -10.469  14.124  68.891  1.00  0.00    -0.229 C  
BRANCH  23  24
HETATM   24  C   UNL     1     -11.923  14.202  69.292  1.00  0.00    -0.340 C  
HETATM   25  F   UNL     1     -12.695  14.416  68.191  1.00  0.00    -0.066 F  
HETATM   26  F   UNL     1     -12.108  15.274  70.109  1.00  0.00    -0.290 F  
BRANCH  24  27
HETATM   27  C   UNL     1     -12.392  12.924  70.005  1.00  0.00    -0.129 C  
BRANCH  27  28
HETATM   28  O   UNL     1     -11.331  11.960  70.077  1.00  0.00    -0.176 OA 
BRANCH  28  29
HETATM   29  C   UNL     1     -11.660  10.768  70.664  1.00  0.00    -0.290 A  
HETATM   30  C   UNL     1     -12.853  10.765  71.389  1.00  0.00    -0.557 A  
HETATM   31  C   UNL     1     -13.289   9.602  72.029  1.00  0.00    -0.547 A  
HETATM   32  C   UNL     1     -12.539   8.432  71.932  1.00  0.00    -0.389 A  
HETATM   33  C   UNL     1     -11.358   8.424  71.192  1.00  0.00    -0.310 A  
HETATM   34  C   UNL     1     -10.918   9.589  70.557  1.00  0.00    -0.348 A  
ENDBRANCH  28  29
ENDBRANCH  27  28
ENDBRANCH  24  27
ENDBRANCH  23  24
ENDBRANCH  19  22
ENDBRANCH  12  13
ENDBRANCH  11  12
ENDBRANCH   9  10
ENDBRANCH   8   9
ENDBRANCH   7   8
ENDBRANCH   5   7
ENDBRANCH   4   5
ENDBRANCH   2   4
TORSDOF 13
ENDMDL
MODEL      203
REMARK 921   NORMALIZED FREE ENERGY PREDICTED BY IDOCK:   -4.28 KCAL/MOL
REMARK 922        TOTAL FREE ENERGY PREDICTED BY IDOCK:  -10.37 KCAL/MOL
REMARK 923 INTER-LIGAND FREE ENERGY PREDICTED BY IDOCK:   -8.50 KCAL/MOL
REMARK 924 INTRA-LIGAND FREE ENERGY PREDICTED BY IDOCK:   -1.87 KCAL/MOL
REMARK 927      BINDING AFFINITY PREDICTED BY RF-SCORE:    0.00 PKD
ROOT
HETATM    1  C   UNL     1     -11.728   6.396  70.188  1.00  0.00    -0.372 C  
HETATM    2  C   UNL     1     -10.564   7.078  70.899  1.00  0.00    -0.217 C  
HETATM    3  C   UNL     1     -10.971   7.523  72.298  1.00  0.00    -0.307 C  
ENDROOT
BRANCH   2   4
HETATM    4  O   UNL     1      -9.477   6.146  71.038  1.00  0.00    -0.169 OA 
BRANCH   4   5
HETATM    5  C   UNL     1      -8.241   6.640  70.748  1.00  0.00    -0.121 C  
HETATM    6  O   UNL     1      -7.356   6.861  71.564  1.00  0.00    -0.079 OA 
BRANCH   5   7
HETATM    7  C   UNL     1      -8.132   6.927  69.274  1.00  0.00    -0.120 C  
BRANCH   7   8
HETATM    8  C   UNL     1      -7.687   8.369  69.035  1.00  0.00    -0.097 C  
BRANCH   8   9
HETATM    9  C   UNL     1      -8.559   9.028  67.969  1.00  0.00    -0.129 C  
BRANCH   9  10
HETATM   10  C   UNL     1      -7.795  10.038  67.164  1.00  0.00    -0.099 C  
HETATM   11  C   UNL     1      -8.330  11.033  66.438  1.00  0.00    -0.165 C  
BRANCH  11  12
HETATM   12  C   UNL     1      -9.798  11.334  66.284  1.00  0.00    -0.248 C  
BRANCH  12  13
HETATM   13  C   UNL     1     -10.024  12.818  65.978  1.00  0.00    -0.277 C  
HETATM   14  C   UNL     1     -11.222  13.103  65.062  1.00  0.00    -0.298 C  
HETATM   15  C   UNL     1     -11.482  14.584  65.294  1.00  0.00    -0.355 C  
HETATM   16  O   UNL     1     -12.381  12.376  65.466  1.00  0.00    -0.621 OA 
HETATM   17  C   UNL     1     -11.346  14.729  66.809  1.00  0.00    -0.346 C  
HETATM   18  H   UNL     1     -13.123  12.554  64.899  1.00  0.00     0.000 HD 
HETATM   19  C   UNL     1     -10.308  13.663  67.249  1.00  0.00    -0.249 C  
HETATM   20  O   UNL     1     -12.604  14.465  67.433  1.00  0.00    -0.532 OA 
HETATM   21  H   UNL     1     -12.519  14.556  68.375  1.00  0.00     0.000 HD 
BRANCH  19  22
HETATM   22  C   UNL     1      -9.073  14.287  67.868  1.00  0.00    -0.190 C  
HETATM   23  C   UNL     1      -8.068  14.858  67.178  1.00  0.00    -0.239 C  
BRANCH  23  24
HETATM   24  C   UNL     1      -6.901  15.589  67.796  1.00  0.00    -0.161 C  
HETATM   25  F   UNL     1      -6.245  16.304  66.841  1.00  0.00    -0.200 F  
HETATM   26  F   UNL     1      -6.010  14.685  68.284  1.00  0.00    -0.086 F  
BRANCH  24  27
HETATM   27  C   UNL     1      -7.347  16.533  68.925  1.00  0.00    -0.219 C  
BRANCH  27  28
HETATM   28  O   UNL     1      -7.148  17.904  68.552  1.00  0.00    -0.234 OA 
BRANCH  28  29
HETATM   29  C   UNL     1      -8.256  18.546  68.068  1.00  0.00    -0.268 A  
HETATM   30  C   UNL     1      -8.230  18.841  66.703  1.00  0.00    -0.298 A  
HETATM   31  C   UNL     1      -9.308  19.493  66.100  1.00  0.00    -0.382 A  
HETATM   32  C   UNL     1     -10.424  19.839  66.857  1.00  0.00    -0.596 A  
HETATM   33  C   UNL     1     -10.465  19.528  68.216  1.00  0.00    -0.442 A  
HETATM   34  C   UNL     1      -9.384  18.881  68.821  1.00  0.00    -0.381 A  
ENDBRANCH  28  29
ENDBRANCH  27  28
ENDBRANCH  24  27
ENDBRANCH  23  24
ENDBRANCH  19  22
ENDBRANCH  12  13
ENDBRANCH  11  12
ENDBRANCH   9  10
ENDBRANCH   8   9
ENDBRANCH   7   8
ENDBRANCH   5   7
ENDBRANCH   4   5
ENDBRANCH   2   4
TORSDOF 13
ENDMDL
MODEL      204
REMARK 921   NORMALIZED FREE ENERGY PREDICTED BY IDOCK:   -4.28 KCAL/MOL
REMARK 922        TOTAL FREE ENERGY PREDICTED BY IDOCK:  -10.37 KCAL/MOL
REMARK 923 INTER-LIGAND FREE ENERGY PREDICTED BY IDOCK:   -8.41 KCAL/MOL
REMARK 924 INTRA-LIGAND FREE ENERGY PREDICTED BY IDOCK:   -1.96 KCAL/MOL
REMARK 927      BINDING AFFINITY PREDICTED BY RF-SCORE:    0.00 PKD
ROOT
HETATM    1  C   UNL     1      -5.921   4.090  70.505  1.00  0.00    -0.018 C  
HETATM    2  C   UNL     1      -7.182   4.946  70.562  1.00  0.00    -0.053 C  
HETATM    3  C   UNL     1      -7.247   5.891  69.369  1.00  0.00    -0.067 C  
ENDROOT
BRANCH   2   4
HETATM    4  O   UNL     1      -8.340   4.095  70.507  1.00  0.00    -0.065 OA 
BRANCH   4   5
HETATM    5  C   UNL     1      -8.892   3.779  71.712  1.00  0.00    -0.100 C  
HETATM    6  O   UNL     1      -8.873   2.673  72.233  1.00  0.00    -0.072 OA 
BRANCH   5   7
HETATM    7  C   UNL     1      -9.582   4.984  72.296  1.00  0.00    -0.184 C  
BRANCH   7   8
HETATM    8  C   UNL     1     -10.721   5.447  71.391  1.00  0.00    -0.258 C  
BRANCH   8   9
HETATM    9  C   UNL     1     -11.868   6.015  72.223  1.00  0.00    -0.305 C  
BRANCH   9  10
HETATM   10  C   UNL     1     -12.670   7.027  71.459  1.00  0.00    -0.425 C  
HETATM   11  C   UNL     1     -12.343   8.316  71.275  1.00  0.00    -0.285 C  
BRANCH  11  12
HETATM   12  C   UNL     1     -11.109   9.004  71.798  1.00  0.00    -0.444 C  
BRANCH  12  13
HETATM   13  C   UNL     1     -10.521   9.950  70.745  1.00  0.00    -0.253 C  
HETATM   14  C   UNL     1      -9.446   9.317  69.851  1.00  0.00    -0.197 C  
HETATM   15  C   UNL     1      -9.381  10.273  68.669  1.00  0.00    -0.162 C  
HETATM   16  O   UNL     1      -9.847   8.036  69.370  1.00  0.00    -0.175 OA 
HETATM   17  C   UNL     1     -10.852  10.569  68.380  1.00  0.00    -0.240 C  
HETATM   18  H   UNL     1      -9.181   7.644  68.816  1.00  0.00     0.000 HD 
HETATM   19  C   UNL     1     -11.583  10.479  69.745  1.00  0.00    -0.368 C  
HETATM   20  O   UNL     1     -11.375   9.584  67.486  1.00  0.00    -0.365 OA 
HETATM   21  H   UNL     1     -12.289   9.768  67.305  1.00  0.00     0.000 HD 
BRANCH  19  22
HETATM   22  C   UNL     1     -12.210  11.800  70.146  1.00  0.00    -0.342 C  
HETATM   23  C   UNL     1     -11.540  12.959  70.292  1.00  0.00    -0.051 C  
BRANCH  23  24
HETATM   24  C   UNL     1     -12.181  14.298  70.569  1.00  0.00    -0.356 C  
HETATM   25  F   UNL     1     -11.602  14.871  71.660  1.00  0.00    -0.364 F  
HETATM   26  F   UNL     1     -13.493  14.114  70.878  1.00  0.00    -0.379 F  
BRANCH  24  27
HETATM   27  C   UNL     1     -12.064  15.251  69.368  1.00  0.00    -0.270 C  
BRANCH  27  28
HETATM   28  O   UNL     1     -10.913  14.932  68.574  1.00  0.00    -0.239 OA 
BRANCH  28  29
HETATM   29  C   UNL     1     -11.173  14.579  67.277  1.00  0.00    -0.332 A  
HETATM   30  C   UNL     1     -10.134  14.803  66.372  1.00  0.00    -0.291 A  
HETATM   31  C   UNL     1     -10.288  14.478  65.023  1.00  0.00    -0.442 A  
HETATM   32  C   UNL     1     -11.479  13.912  64.575  1.00  0.00    -0.393 A  
HETATM   33  C   UNL     1     -12.513  13.665  65.478  1.00  0.00    -0.544 A  
HETATM   34  C   UNL     1     -12.362  13.996  66.827  1.00  0.00    -0.368 A  
ENDBRANCH  28  29
ENDBRANCH  27  28
ENDBRANCH  24  27
ENDBRANCH  23  24
ENDBRANCH  19  22
ENDBRANCH  12  13
ENDBRANCH  11  12
ENDBRANCH   9  10
ENDBRANCH   8   9
ENDBRANCH   7   8
ENDBRANCH   5   7
ENDBRANCH   4   5
ENDBRANCH   2   4
TORSDOF 13
ENDMDL
MODEL      205
REMARK 921   NORMALIZED FREE ENERGY PREDICTED BY IDOCK:   -4.27 KCAL/MOL
REMARK 922        TOTAL FREE ENERGY PREDICTED BY IDOCK:  -10.36 KCAL/MOL
REMARK 923 INTER-LIGAND FREE ENERGY PREDICTED BY IDOCK:   -8.52 KCAL/MOL
REMARK 924 INTRA-LIGAND FREE ENERGY PREDICTED BY IDOCK:   -1.83 KCAL/MOL
REMARK 927      BINDING AFFINITY PREDICTED BY RF-SCORE:    0.00 PKD
ROOT
HETATM    1  C   UNL     1     -10.586  20.112  67.091  1.00  0.00    -0.337 C  
HETATM    2  C   UNL     1      -9.659  18.920  66.877  1.00  0.00    -0.314 C  
HETATM    3  C   UNL     1     -10.364  17.823  66.089  1.00  0.00    -0.340 C  
ENDROOT
BRANCH   2   4
HETATM    4  O   UNL     1      -8.514  19.337  66.113  1.00  0.00    -0.354 OA 
BRANCH   4   5
HETATM    5  C   UNL     1      -7.473  19.830  66.840  1.00  0.00    -0.240 C  
HETATM    6  O   UNL     1      -6.991  20.948  66.721  1.00  0.00    -0.284 OA 
BRANCH   5   7
HETATM    7  C   UNL     1      -6.959  18.778  67.787  1.00  0.00    -0.227 C  
BRANCH   7   8
HETATM    8  C   UNL     1      -6.046  17.794  67.059  1.00  0.00    -0.177 C  
BRANCH   8   9
HETATM    9  C   UNL     1      -6.206  16.389  67.635  1.00  0.00    -0.165 C  
BRANCH   9  10
HETATM   10  C   UNL     1      -7.448  16.261  68.468  1.00  0.00    -0.176 C  
HETATM   11  C   UNL     1      -8.421  15.353  68.295  1.00  0.00    -0.159 C  
BRANCH  11  12
HETATM   12  C   UNL     1      -8.465  14.284  67.234  1.00  0.00    -0.226 C  
BRANCH  12  13
HETATM   13  C   UNL     1      -9.871  13.687  67.114  1.00  0.00    -0.242 C  
HETATM   14  C   UNL     1     -10.693  14.226  65.935  1.00  0.00    -0.303 C  
HETATM   15  C   UNL     1     -11.793  13.187  65.785  1.00  0.00    -0.442 C  
HETATM   16  O   UNL     1      -9.932  14.253  64.729  1.00  0.00    -0.538 OA 
HETATM   17  C   UNL     1     -11.045  11.863  65.938  1.00  0.00    -0.316 C  
HETATM   18  H   UNL     1     -10.441  14.586  64.000  1.00  0.00     0.000 HD 
HETATM   19  C   UNL     1      -9.860  12.151  66.898  1.00  0.00    -0.213 C  
HETATM   20  O   UNL     1     -10.546  11.442  64.667  1.00  0.00    -0.290 OA 
HETATM   21  H   UNL     1     -10.081  10.619  64.763  1.00  0.00     0.000 HD 
BRANCH  19  22
HETATM   22  C   UNL     1      -9.952  11.343  68.178  1.00  0.00    -0.196 C  
HETATM   23  C   UNL     1      -9.427  10.116  68.355  1.00  0.00    -0.147 C  
BRANCH  23  24
HETATM   24  C   UNL     1      -9.410   9.365  69.665  1.00  0.00    -0.189 C  
HETATM   25  F   UNL     1      -8.471   9.900  70.493  1.00  0.00    -0.212 F  
HETATM   26  F   UNL     1      -9.037   8.075  69.440  1.00  0.00    -0.145 F  
BRANCH  24  27
HETATM   27  C   UNL     1     -10.780   9.390  70.361  1.00  0.00    -0.263 C  
BRANCH  27  28
HETATM   28  O   UNL     1     -11.373   8.083  70.368  1.00  0.00    -0.261 OA 
BRANCH  28  29
HETATM   29  C   UNL     1     -10.990   7.271  71.402  1.00  0.00    -0.232 A  
HETATM   30  C   UNL     1     -11.005   7.862  72.667  1.00  0.00    -0.440 A  
HETATM   31  C   UNL     1     -10.636   7.127  73.795  1.00  0.00    -0.303 A  
HETATM   32  C   UNL     1     -10.265   5.791  73.665  1.00  0.00    -0.232 A  
HETATM   33  C   UNL     1     -10.268   5.189  72.407  1.00  0.00    -0.249 A  
HETATM   34  C   UNL     1     -10.632   5.926  71.276  1.00  0.00    -0.311 A  
ENDBRANCH  28  29
ENDBRANCH  27  28
ENDBRANCH  24  27
ENDBRANCH  23  24
ENDBRANCH  19  22
ENDBRANCH  12  13
ENDBRANCH  11  12
ENDBRANCH   9  10
ENDBRANCH   8   9
ENDBRANCH   7   8
ENDBRANCH   5   7
ENDBRANCH   4   5
ENDBRANCH   2   4
TORSDOF 13
ENDMDL
MODEL      206
REMARK 921   NORMALIZED FREE ENERGY PREDICTED BY IDOCK:   -4.26 KCAL/MOL
REMARK 922        TOTAL FREE ENERGY PREDICTED BY IDOCK:  -10.33 KCAL/MOL
REMARK 923 INTER-LIGAND FREE ENERGY PREDICTED BY IDOCK:   -8.15 KCAL/MOL
REMARK 924 INTRA-LIGAND FREE ENERGY PREDICTED BY IDOCK:   -2.18 KCAL/MOL
REMARK 927      BINDING AFFINITY PREDICTED BY RF-SCORE:    0.00 PKD
ROOT
HETATM    1  C   UNL     1      -5.651   5.565  69.216  1.00  0.00    -0.008 C  
HETATM    2  C   UNL     1      -6.890   5.969  70.009  1.00  0.00    -0.057 C  
HETATM    3  C   UNL     1      -6.688   7.325  70.673  1.00  0.00    -0.048 C  
ENDROOT
BRANCH   2   4
HETATM    4  O   UNL     1      -8.011   6.085  69.116  1.00  0.00    -0.100 OA 
BRANCH   4   5
HETATM    5  C   UNL     1      -8.875   5.031  69.120  1.00  0.00    -0.092 C  
HETATM    6  O   UNL     1      -9.021   4.231  68.207  1.00  0.00    -0.106 OA 
BRANCH   5   7
HETATM    7  C   UNL     1      -9.668   5.018  70.400  1.00  0.00    -0.280 C  
BRANCH   7   8
HETATM    8  C   UNL     1     -10.953   5.831  70.247  1.00  0.00    -0.347 C  
BRANCH   8   9
HETATM    9  C   UNL     1     -11.328   6.490  71.572  1.00  0.00    -0.339 C  
BRANCH   9  10
HETATM   10  C   UNL     1     -12.118   7.750  71.370  1.00  0.00    -0.335 C  
HETATM   11  C   UNL     1     -11.607   8.970  71.140  1.00  0.00    -0.372 C  
BRANCH  11  12
HETATM   12  C   UNL     1     -10.146   9.320  71.041  1.00  0.00    -0.373 C  
BRANCH  12  13
HETATM   13  C   UNL     1      -9.898  10.327  69.912  1.00  0.00    -0.153 C  
HETATM   14  C   UNL     1      -9.046   9.789  68.755  1.00  0.00    -0.136 C  
HETATM   15  C   UNL     1      -9.337  10.774  67.632  1.00  0.00    -0.156 C  
HETATM   16  O   UNL     1      -9.477   8.495  68.339  1.00  0.00    -0.135 OA 
HETATM   17  C   UNL     1     -10.849  10.975  67.730  1.00  0.00    -0.249 C  
HETATM   18  H   UNL     1      -8.949   8.162  67.622  1.00  0.00     0.000 HD 
HETATM   19  C   UNL     1     -11.208  10.805  69.229  1.00  0.00    -0.333 C  
HETATM   20  O   UNL     1     -11.519   9.978  66.956  1.00  0.00    -0.145 OA 
HETATM   21  H   UNL     1     -12.459  10.103  67.016  1.00  0.00     0.000 HD 
BRANCH  19  22
HETATM   22  C   UNL     1     -11.792  12.071  69.825  1.00  0.00    -0.401 C  
HETATM   23  C   UNL     1     -11.321  13.314  69.610  1.00  0.00    -0.191 C  
BRANCH  23  24
HETATM   24  C   UNL     1     -11.976  14.583  70.101  1.00  0.00    -0.315 C  
HETATM   25  F   UNL     1     -11.357  15.014  71.235  1.00  0.00    -0.333 F  
HETATM   26  F   UNL     1     -13.267  14.322  70.439  1.00  0.00    -0.361 F  
BRANCH  24  27
HETATM   27  C   UNL     1     -11.937  15.697  69.042  1.00  0.00    -0.304 C  
BRANCH  27  28
HETATM   28  O   UNL     1     -10.609  15.863  68.524  1.00  0.00    -0.243 OA 
BRANCH  28  29
HETATM   29  C   UNL     1     -10.269  17.144  68.181  1.00  0.00    -0.332 A  
HETATM   30  C   UNL     1     -10.425  17.465  66.831  1.00  0.00    -0.279 A  
HETATM   31  C   UNL     1     -10.112  18.745  66.368  1.00  0.00    -0.443 A  
HETATM   32  C   UNL     1      -9.655  19.715  67.258  1.00  0.00    -0.459 A  
HETATM   33  C   UNL     1      -9.517  19.406  68.611  1.00  0.00    -0.466 A  
HETATM   34  C   UNL     1      -9.825  18.123  69.074  1.00  0.00    -0.259 A  
ENDBRANCH  28  29
ENDBRANCH  27  28
ENDBRANCH  24  27
ENDBRANCH  23  24
ENDBRANCH  19  22
ENDBRANCH  12  13
ENDBRANCH  11  12
ENDBRANCH   9  10
ENDBRANCH   8   9
ENDBRANCH   7   8
ENDBRANCH   5   7
ENDBRANCH   4   5
ENDBRANCH   2   4
TORSDOF 13
ENDMDL
MODEL      207
REMARK 921   NORMALIZED FREE ENERGY PREDICTED BY IDOCK:   -4.26 KCAL/MOL
REMARK 922        TOTAL FREE ENERGY PREDICTED BY IDOCK:  -10.33 KCAL/MOL
REMARK 923 INTER-LIGAND FREE ENERGY PREDICTED BY IDOCK:   -8.84 KCAL/MOL
REMARK 924 INTRA-LIGAND FREE ENERGY PREDICTED BY IDOCK:   -1.48 KCAL/MOL
REMARK 927      BINDING AFFINITY PREDICTED BY RF-SCORE:    0.00 PKD
ROOT
HETATM    1  C   UNL     1     -12.194  13.318  70.573  1.00  0.00    -0.416 C  
HETATM    2  C   UNL     1     -12.067  14.788  70.186  1.00  0.00    -0.327 C  
HETATM    3  C   UNL     1     -12.288  15.686  71.397  1.00  0.00    -0.485 C  
ENDROOT
BRANCH   2   4
HETATM    4  O   UNL     1     -10.738  15.039  69.696  1.00  0.00    -0.252 OA 
BRANCH   4   5
HETATM    5  C   UNL     1     -10.668  15.655  68.482  1.00  0.00    -0.264 C  
HETATM    6  O   UNL     1     -10.312  16.810  68.293  1.00  0.00    -0.285 OA 
BRANCH   5   7
HETATM    7  C   UNL     1     -11.145  14.722  67.401  1.00  0.00    -0.327 C  
BRANCH   7   8
HETATM    8  C   UNL     1     -11.523  15.500  66.143  1.00  0.00     0.094 C  
BRANCH   8   9
HETATM    9  C   UNL     1     -10.987  14.797  64.898  1.00  0.00    -0.425 C  
BRANCH   9  10
HETATM   10  C   UNL     1     -11.957  13.784  64.364  1.00  0.00    -0.480 C  
HETATM   11  C   UNL     1     -11.887  12.455  64.545  1.00  0.00    -0.452 C  
BRANCH  11  12
HETATM   12  C   UNL     1     -10.825  11.716  65.316  1.00  0.00    -0.340 C  
BRANCH  12  13
HETATM   13  C   UNL     1     -10.269  10.544  64.500  1.00  0.00    -0.355 C  
HETATM   14  C   UNL     1      -9.910  10.893  63.049  1.00  0.00    -0.321 C  
HETATM   15  C   UNL     1      -9.000   9.745  62.639  1.00  0.00    -0.284 C  
HETATM   16  O   UNL     1      -9.165  12.107  62.967  1.00  0.00    -0.596 OA 
HETATM   17  C   UNL     1      -8.098   9.563  63.859  1.00  0.00    -0.152 C  
HETATM   18  H   UNL     1      -8.943  12.322  62.068  1.00  0.00     0.000 HD 
HETATM   19  C   UNL     1      -8.954   9.967  65.088  1.00  0.00    -0.235 C  
HETATM   20  O   UNL     1      -6.965  10.428  63.754  1.00  0.00    -0.279 OA 
HETATM   21  H   UNL     1      -6.404  10.314  64.512  1.00  0.00     0.000 HD 
BRANCH  19  22
HETATM   22  C   UNL     1      -9.158   8.811  66.047  1.00  0.00    -0.265 C  
HETATM   23  C   UNL     1     -10.269   8.601  66.778  1.00  0.00    -0.361 C  
BRANCH  23  24
HETATM   24  C   UNL     1     -10.522   7.385  67.637  1.00  0.00    -0.241 C  
HETATM   25  F   UNL     1     -11.479   6.605  67.063  1.00  0.00    -0.466 F  
HETATM   26  F   UNL     1     -11.015   7.779  68.842  1.00  0.00    -0.181 F  
BRANCH  24  27
HETATM   27  C   UNL     1      -9.245   6.555  67.850  1.00  0.00    -0.110 C  
BRANCH  27  28
HETATM   28  O   UNL     1      -9.257   5.923  69.138  1.00  0.00    -0.120 OA 
BRANCH  28  29
HETATM   29  C   UNL     1      -9.140   4.559  69.123  1.00  0.00    -0.121 A  
HETATM   30  C   UNL     1      -8.888   3.992  67.872  1.00  0.00    -0.132 A  
HETATM   31  C   UNL     1      -8.747   2.609  67.739  1.00  0.00    -0.138 A  
HETATM   32  C   UNL     1      -8.844   1.788  68.860  1.00  0.00    -0.131 A  
HETATM   33  C   UNL     1      -9.074   2.351  70.115  1.00  0.00    -0.178 A  
HETATM   34  C   UNL     1      -9.221   3.734  70.248  1.00  0.00    -0.219 A  
ENDBRANCH  28  29
ENDBRANCH  27  28
ENDBRANCH  24  27
ENDBRANCH  23  24
ENDBRANCH  19  22
ENDBRANCH  12  13
ENDBRANCH  11  12
ENDBRANCH   9  10
ENDBRANCH   8   9
ENDBRANCH   7   8
ENDBRANCH   5   7
ENDBRANCH   4   5
ENDBRANCH   2   4
TORSDOF 13
ENDMDL
MODEL      208
REMARK 921   NORMALIZED FREE ENERGY PREDICTED BY IDOCK:   -4.25 KCAL/MOL
REMARK 922        TOTAL FREE ENERGY PREDICTED BY IDOCK:  -10.31 KCAL/MOL
REMARK 923 INTER-LIGAND FREE ENERGY PREDICTED BY IDOCK:   -7.54 KCAL/MOL
REMARK 924 INTRA-LIGAND FREE ENERGY PREDICTED BY IDOCK:   -2.77 KCAL/MOL
REMARK 927      BINDING AFFINITY PREDICTED BY RF-SCORE:    0.00 PKD
ROOT
HETATM    1  C   UNL     1      -9.212  15.808  66.731  1.00  0.00    -0.268 C  
HETATM    2  C   UNL     1     -10.290  15.987  67.794  1.00  0.00    -0.279 C  
HETATM    3  C   UNL     1     -10.660  17.457  67.946  1.00  0.00    -0.383 C  
ENDROOT
BRANCH   2   4
HETATM    4  O   UNL     1     -11.477  15.280  67.394  1.00  0.00    -0.324 OA 
BRANCH   4   5
HETATM    5  C   UNL     1     -12.001  14.438  68.328  1.00  0.00    -0.288 C  
HETATM    6  O   UNL     1     -12.466  14.778  69.407  1.00  0.00    -0.188 OA 
BRANCH   5   7
HETATM    7  C   UNL     1     -11.878  13.011  67.864  1.00  0.00    -0.389 C  
BRANCH   7   8
HETATM    8  C   UNL     1     -10.687  12.326  68.532  1.00  0.00    -0.261 C  
BRANCH   8   9
HETATM    9  C   UNL     1      -9.723  11.784  67.480  1.00  0.00    -0.185 C  
BRANCH   9  10
HETATM   10  C   UNL     1     -10.445  11.252  66.276  1.00  0.00    -0.308 C  
HETATM   11  C   UNL     1     -10.153  10.117  65.621  1.00  0.00    -0.324 C  
BRANCH  11  12
HETATM   12  C   UNL     1      -9.046   9.153  65.958  1.00  0.00    -0.245 C  
BRANCH  12  13
HETATM   13  C   UNL     1      -9.612   7.806  66.420  1.00  0.00    -0.235 C  
HETATM   14  C   UNL     1      -9.016   6.586  65.705  1.00  0.00    -0.039 C  
HETATM   15  C   UNL     1      -9.387   5.436  66.629  1.00  0.00    -0.143 C  
HETATM   16  O   UNL     1      -7.593   6.661  65.631  1.00  0.00    -0.079 OA 
HETATM   17  C   UNL     1      -9.098   6.000  68.020  1.00  0.00    -0.117 C  
HETATM   18  H   UNL     1      -7.224   5.905  65.189  1.00  0.00     0.000 HD 
HETATM   19  C   UNL     1      -9.358   7.526  67.925  1.00  0.00    -0.144 C  
HETATM   20  O   UNL     1      -7.731   5.763  68.361  1.00  0.00    -0.093 OA 
HETATM   21  H   UNL     1      -7.551   6.112  69.226  1.00  0.00     0.000 HD 
BRANCH  19  22
HETATM   22  C   UNL     1     -10.483   7.973  68.839  1.00  0.00    -0.207 C  
HETATM   23  C   UNL     1     -10.352   8.851  69.851  1.00  0.00    -0.215 C  
BRANCH  23  24
HETATM   24  C   UNL     1     -11.494   9.390  70.679  1.00  0.00    -0.284 C  
HETATM   25  F   UNL     1     -12.396  10.014  69.873  1.00  0.00    -0.188 F  
HETATM   26  F   UNL     1     -11.022  10.335  71.537  1.00  0.00    -0.212 F  
BRANCH  24  27
HETATM   27  C   UNL     1     -12.201   8.280  71.475  1.00  0.00    -0.301 C  
BRANCH  27  28
HETATM   28  O   UNL     1     -11.532   8.042  72.722  1.00  0.00    -0.402 OA 
BRANCH  28  29
HETATM   29  C   UNL     1     -11.002   6.789  72.873  1.00  0.00    -0.263 A  
HETATM   30  C   UNL     1     -10.492   6.501  74.141  1.00  0.00    -0.261 A  
HETATM   31  C   UNL     1      -9.929   5.252  74.410  1.00  0.00    -0.244 A  
HETATM   32  C   UNL     1      -9.888   4.278  73.414  1.00  0.00    -0.160 A  
HETATM   33  C   UNL     1     -10.414   4.552  72.153  1.00  0.00    -0.192 A  
HETATM   34  C   UNL     1     -10.972   5.805  71.881  1.00  0.00    -0.318 A  
ENDBRANCH  28  29
ENDBRANCH  27  28
ENDBRANCH  24  27
ENDBRANCH  23  24
ENDBRANCH  19  22
ENDBRANCH  12  13
ENDBRANCH  11  12
ENDBRANCH   9  10
ENDBRANCH   8   9
ENDBRANCH   7   8
ENDBRANCH   5   7
ENDBRANCH   4   5
ENDBRANCH   2   4
TORSDOF 13
ENDMDL
MODEL      209
REMARK 921   NORMALIZED FREE ENERGY PREDICTED BY IDOCK:   -4.24 KCAL/MOL
REMARK 922        TOTAL FREE ENERGY PREDICTED BY IDOCK:  -10.30 KCAL/MOL
REMARK 923 INTER-LIGAND FREE ENERGY PREDICTED BY IDOCK:   -8.00 KCAL/MOL
REMARK 924 INTRA-LIGAND FREE ENERGY PREDICTED BY IDOCK:   -2.30 KCAL/MOL
REMARK 927      BINDING AFFINITY PREDICTED BY RF-SCORE:    0.00 PKD
ROOT
HETATM    1  C   UNL     1      -8.210  12.836  67.423  1.00  0.00    -0.186 C  
HETATM    2  C   UNL     1      -6.932  12.053  67.142  1.00  0.00    -0.134 C  
HETATM    3  C   UNL     1      -5.851  12.402  68.157  1.00  0.00    -0.066 C  
ENDROOT
BRANCH   2   4
HETATM    4  O   UNL     1      -7.199  10.644  67.258  1.00  0.00    -0.086 OA 
BRANCH   4   5
HETATM    5  C   UNL     1      -6.589   9.854  66.330  1.00  0.00    -0.073 C  
HETATM    6  O   UNL     1      -6.406  10.150  65.158  1.00  0.00    -0.106 OA 
BRANCH   5   7
HETATM    7  C   UNL     1      -6.212   8.532  66.945  1.00  0.00    -0.055 C  
BRANCH   7   8
HETATM    8  C   UNL     1      -6.978   8.304  68.246  1.00  0.00    -0.076 C  
BRANCH   8   9
HETATM    9  C   UNL     1      -8.253   7.506  67.983  1.00  0.00    -0.124 C  
BRANCH   9  10
HETATM   10  C   UNL     1      -8.040   6.031  68.160  1.00  0.00    -0.110 C  
HETATM   11  C   UNL     1      -8.018   5.374  69.330  1.00  0.00    -0.089 C  
BRANCH  11  12
HETATM   12  C   UNL     1      -8.200   5.981  70.697  1.00  0.00    -0.120 C  
BRANCH  12  13
HETATM   13  C   UNL     1      -9.658   6.397  70.922  1.00  0.00    -0.189 C  
HETATM   14  C   UNL     1     -10.493   5.385  71.717  1.00  0.00    -0.226 C  
HETATM   15  C   UNL     1     -11.686   6.212  72.172  1.00  0.00    -0.361 C  
HETATM   16  O   UNL     1      -9.800   4.922  72.875  1.00  0.00    -0.146 OA 
HETATM   17  C   UNL     1     -11.049   7.527  72.619  1.00  0.00    -0.347 C  
HETATM   18  H   UNL     1     -10.318   4.295  73.367  1.00  0.00     0.000 HD 
HETATM   19  C   UNL     1      -9.793   7.717  71.728  1.00  0.00    -0.200 C  
HETATM   20  O   UNL     1     -10.659   7.432  73.990  1.00  0.00    -0.489 OA 
HETATM   21  H   UNL     1     -10.264   8.250  74.268  1.00  0.00     0.000 HD 
BRANCH  19  22
HETATM   22  C   UNL     1      -9.884   8.963  70.869  1.00  0.00    -0.304 C  
HETATM   23  C   UNL     1     -10.685   9.103  69.796  1.00  0.00    -0.239 C  
BRANCH  23  24
HETATM   24  C   UNL     1     -10.868  10.383  69.017  1.00  0.00    -0.234 C  
HETATM   25  F   UNL     1     -10.875  10.115  67.682  1.00  0.00    -0.265 F  
HETATM   26  F   UNL     1      -9.806  11.204  69.241  1.00  0.00    -0.203 F  
BRANCH  24  27
HETATM   27  C   UNL     1     -12.168  11.109  69.400  1.00  0.00    -0.259 C  
BRANCH  27  28
HETATM   28  O   UNL     1     -12.135  11.524  70.773  1.00  0.00    -0.364 OA 
BRANCH  28  29
HETATM   29  C   UNL     1     -12.556  12.805  71.009  1.00  0.00    -0.271 A  
HETATM   30  C   UNL     1     -13.368  12.973  72.133  1.00  0.00    -0.622 A  
HETATM   31  C   UNL     1     -13.853  14.238  72.472  1.00  0.00    -0.575 A  
HETATM   32  C   UNL     1     -13.515  15.344  71.696  1.00  0.00    -0.593 A  
HETATM   33  C   UNL     1     -12.688  15.186  70.585  1.00  0.00    -0.451 A  
HETATM   34  C   UNL     1     -12.207  13.919  70.241  1.00  0.00    -0.428 A  
ENDBRANCH  28  29
ENDBRANCH  27  28
ENDBRANCH  24  27
ENDBRANCH  23  24
ENDBRANCH  19  22
ENDBRANCH  12  13
ENDBRANCH  11  12
ENDBRANCH   9  10
ENDBRANCH   8   9
ENDBRANCH   7   8
ENDBRANCH   5   7
ENDBRANCH   4   5
ENDBRANCH   2   4
TORSDOF 13
ENDMDL
MODEL      210
REMARK 921   NORMALIZED FREE ENERGY PREDICTED BY IDOCK:   -4.21 KCAL/MOL
REMARK 922        TOTAL FREE ENERGY PREDICTED BY IDOCK:  -10.25 KCAL/MOL
REMARK 923 INTER-LIGAND FREE ENERGY PREDICTED BY IDOCK:   -8.46 KCAL/MOL
REMARK 924 INTRA-LIGAND FREE ENERGY PREDICTED BY IDOCK:   -1.79 KCAL/MOL
REMARK 927      BINDING AFFINITY PREDICTED BY RF-SCORE:    0.00 PKD
ROOT
HETATM    1  C   UNL     1     -10.353   5.823  66.395  1.00  0.00    -0.207 C  
HETATM    2  C   UNL     1     -10.933   6.810  67.402  1.00  0.00    -0.337 C  
HETATM    3  C   UNL     1     -11.237   6.117  68.725  1.00  0.00    -0.307 C  
ENDROOT
BRANCH   2   4
HETATM    4  O   UNL     1      -9.971   7.846  67.665  1.00  0.00    -0.159 OA 
BRANCH   4   5
HETATM    5  C   UNL     1      -9.487   8.489  66.565  1.00  0.00    -0.218 C  
HETATM    6  O   UNL     1     -10.153   9.150  65.781  1.00  0.00    -0.229 OA 
BRANCH   5   7
HETATM    7  C   UNL     1      -8.012   8.226  66.421  1.00  0.00    -0.096 C  
BRANCH   7   8
HETATM    8  C   UNL     1      -7.296   8.412  67.757  1.00  0.00    -0.093 C  
BRANCH   8   9
HETATM    9  C   UNL     1      -7.254   7.095  68.528  1.00  0.00    -0.094 C  
BRANCH   9  10
HETATM   10  C   UNL     1      -6.295   7.149  69.682  1.00  0.00    -0.035 C  
HETATM   11  C   UNL     1      -6.505   7.774  70.851  1.00  0.00    -0.038 C  
BRANCH  11  12
HETATM   12  C   UNL     1      -7.739   8.545  71.241  1.00  0.00    -0.126 C  
BRANCH  12  13
HETATM   13  C   UNL     1      -8.972   7.634  71.259  1.00  0.00    -0.141 C  
HETATM   14  C   UNL     1      -8.803   6.351  72.084  1.00  0.00    -0.136 C  
HETATM   15  C   UNL     1     -10.239   5.898  72.304  1.00  0.00    -0.222 C  
HETATM   16  O   UNL     1      -8.216   6.615  73.356  1.00  0.00    -0.116 OA 
HETATM   17  C   UNL     1     -10.966   7.198  72.645  1.00  0.00    -0.288 C  
HETATM   18  H   UNL     1      -8.112   5.820  73.867  1.00  0.00     0.000 HD 
HETATM   19  C   UNL     1     -10.222   8.319  71.874  1.00  0.00    -0.314 C  
HETATM   20  O   UNL     1     -10.883   7.441  74.051  1.00  0.00    -0.558 OA 
HETATM   21  H   UNL     1     -11.336   8.249  74.263  1.00  0.00     0.000 HD 
BRANCH  19  22
HETATM   22  C   UNL     1     -11.115   9.006  70.860  1.00  0.00    -0.343 C  
HETATM   23  C   UNL     1     -11.097  10.324  70.582  1.00  0.00    -0.358 C  
BRANCH  23  24
HETATM   24  C   UNL     1     -11.896  10.987  69.487  1.00  0.00    -0.333 C  
HETATM   25  F   UNL     1     -13.227  10.882  69.757  1.00  0.00    -0.133 F  
HETATM   26  F   UNL     1     -11.687  10.330  68.314  1.00  0.00    -0.295 F  
BRANCH  24  27
HETATM   27  C   UNL     1     -11.524  12.469  69.319  1.00  0.00    -0.293 C  
BRANCH  27  28
HETATM   28  O   UNL     1     -12.654  13.312  69.584  1.00  0.00    -0.062 OA 
BRANCH  28  29
HETATM   29  C   UNL     1     -12.594  14.024  70.752  1.00  0.00    -0.360 A  
HETATM   30  C   UNL     1     -11.785  15.162  70.721  1.00  0.00    -0.370 A  
HETATM   31  C   UNL     1     -11.652  15.966  71.855  1.00  0.00    -0.542 A  
HETATM   32  C   UNL     1     -12.340  15.643  73.022  1.00  0.00    -0.570 A  
HETATM   33  C   UNL     1     -13.166  14.520  73.053  1.00  0.00    -0.575 A  
HETATM   34  C   UNL     1     -13.296  13.711  71.920  1.00  0.00    -0.510 A  
ENDBRANCH  28  29
ENDBRANCH  27  28
ENDBRANCH  24  27
ENDBRANCH  23  24
ENDBRANCH  19  22
ENDBRANCH  12  13
ENDBRANCH  11  12
ENDBRANCH   9  10
ENDBRANCH   8   9
ENDBRANCH   7   8
ENDBRANCH   5   7
ENDBRANCH   4   5
ENDBRANCH   2   4
TORSDOF 13
ENDMDL
MODEL      211
REMARK 921   NORMALIZED FREE ENERGY PREDICTED BY IDOCK:   -4.19 KCAL/MOL
REMARK 922        TOTAL FREE ENERGY PREDICTED BY IDOCK:  -10.21 KCAL/MOL
REMARK 923 INTER-LIGAND FREE ENERGY PREDICTED BY IDOCK:   -7.76 KCAL/MOL
REMARK 924 INTRA-LIGAND FREE ENERGY PREDICTED BY IDOCK:   -2.45 KCAL/MOL
REMARK 927      BINDING AFFINITY PREDICTED BY RF-SCORE:    0.00 PKD
ROOT
HETATM    1  C   UNL     1      -7.128   5.228  65.997  1.00  0.00    -0.068 C  
HETATM    2  C   UNL     1      -6.904   6.083  64.754  1.00  0.00    -0.047 C  
HETATM    3  C   UNL     1      -6.341   5.242  63.614  1.00  0.00    -0.022 C  
ENDROOT
BRANCH   2   4
HETATM    4  O   UNL     1      -8.162   6.625  64.314  1.00  0.00    -0.082 OA 
BRANCH   4   5
HETATM    5  C   UNL     1      -8.129   7.925  63.909  1.00  0.00    -0.082 C  
HETATM    6  O   UNL     1      -8.138   8.306  62.747  1.00  0.00    -0.160 OA 
BRANCH   5   7
HETATM    7  C   UNL     1      -8.028   8.836  65.104  1.00  0.00    -0.125 C  
BRANCH   7   8
HETATM    8  C   UNL     1      -6.847   9.793  64.956  1.00  0.00    -0.115 C  
BRANCH   8   9
HETATM    9  C   UNL     1      -6.841  10.813  66.092  1.00  0.00    -0.126 C  
BRANCH   9  10
HETATM   10  C   UNL     1      -7.841  10.475  67.158  1.00  0.00    -0.112 C  
HETATM   11  C   UNL     1      -8.505  11.356  67.923  1.00  0.00    -0.139 C  
BRANCH  11  12
HETATM   12  C   UNL     1      -8.378  12.856  67.868  1.00  0.00    -0.170 C  
BRANCH  12  13
HETATM   13  C   UNL     1      -9.758  13.524  67.891  1.00  0.00    -0.225 C  
HETATM   14  C   UNL     1     -10.045  14.432  66.687  1.00  0.00    -0.274 C  
HETATM   15  C   UNL     1     -11.559  14.578  66.726  1.00  0.00    -0.388 C  
HETATM   16  O   UNL     1      -9.686  13.807  65.457  1.00  0.00    -0.492 OA 
HETATM   17  C   UNL     1     -12.038  13.158  67.023  1.00  0.00    -0.307 C  
HETATM   18  H   UNL     1      -9.864  14.370  64.712  1.00  0.00     0.000 HD 
HETATM   19  C   UNL     1     -10.925  12.502  67.882  1.00  0.00    -0.262 C  
HETATM   20  O   UNL     1     -12.192  12.436  65.799  1.00  0.00    -0.620 OA 
HETATM   21  H   UNL     1     -12.491  11.553  65.984  1.00  0.00     0.000 HD 
BRANCH  19  22
HETATM   22  C   UNL     1     -11.422  12.115  69.262  1.00  0.00    -0.363 C  
HETATM   23  C   UNL     1     -12.173  11.032  69.536  1.00  0.00    -0.352 C  
BRANCH  23  24
HETATM   24  C   UNL     1     -12.562  10.579  70.922  1.00  0.00    -0.398 C  
HETATM   25  F   UNL     1     -13.809  10.032  70.897  1.00  0.00    -0.361 F  
HETATM   26  F   UNL     1     -12.630  11.659  71.747  1.00  0.00    -0.398 F  
BRANCH  24  27
HETATM   27  C   UNL     1     -11.566   9.557  71.494  1.00  0.00    -0.395 C  
BRANCH  27  28
HETATM   28  O   UNL     1     -11.930   8.222  71.113  1.00  0.00    -0.286 OA 
BRANCH  28  29
HETATM   29  C   UNL     1     -10.961   7.517  70.451  1.00  0.00    -0.251 A  
HETATM   30  C   UNL     1      -9.871   8.267  70.005  1.00  0.00    -0.182 A  
HETATM   31  C   UNL     1      -8.822   7.651  69.319  1.00  0.00    -0.136 A  
HETATM   32  C   UNL     1      -8.852   6.277  69.090  1.00  0.00    -0.128 A  
HETATM   33  C   UNL     1      -9.927   5.519  69.551  1.00  0.00    -0.278 A  
HETATM   34  C   UNL     1     -10.981   6.136  70.232  1.00  0.00    -0.417 A  
ENDBRANCH  28  29
ENDBRANCH  27  28
ENDBRANCH  24  27
ENDBRANCH  23  24
ENDBRANCH  19  22
ENDBRANCH  12  13
ENDBRANCH  11  12
ENDBRANCH   9  10
ENDBRANCH   8   9
ENDBRANCH   7   8
ENDBRANCH   5   7
ENDBRANCH   4   5
ENDBRANCH   2   4
TORSDOF 13
ENDMDL
MODEL      212
REMARK 921   NORMALIZED FREE ENERGY PREDICTED BY IDOCK:   -4.19 KCAL/MOL
REMARK 922        TOTAL FREE ENERGY PREDICTED BY IDOCK:  -10.21 KCAL/MOL
REMARK 923 INTER-LIGAND FREE ENERGY PREDICTED BY IDOCK:   -7.64 KCAL/MOL
REMARK 924 INTRA-LIGAND FREE ENERGY PREDICTED BY IDOCK:   -2.57 KCAL/MOL
REMARK 927      BINDING AFFINITY PREDICTED BY RF-SCORE:    0.00 PKD
ROOT
HETATM    1  C   UNL     1      -9.413  14.891  68.084  1.00  0.00    -0.202 C  
HETATM    2  C   UNL     1     -10.374  15.219  69.222  1.00  0.00    -0.259 C  
HETATM    3  C   UNL     1     -10.601  16.722  69.320  1.00  0.00    -0.336 C  
ENDROOT
BRANCH   2   4
HETATM    4  O   UNL     1     -11.647  14.603  68.964  1.00  0.00    -0.268 OA 
BRANCH   4   5
HETATM    5  C   UNL     1     -11.935  13.512  69.728  1.00  0.00    -0.340 C  
HETATM    6  O   UNL     1     -12.060  13.511  70.944  1.00  0.00    -0.332 OA 
BRANCH   5   7
HETATM    7  C   UNL     1     -12.030  12.284  68.860  1.00  0.00    -0.300 C  
BRANCH   7   8
HETATM    8  C   UNL     1     -10.836  11.361  69.099  1.00  0.00    -0.260 C  
BRANCH   8   9
HETATM    9  C   UNL     1      -9.990  11.245  67.834  1.00  0.00    -0.189 C  
BRANCH   9  10
HETATM   10  C   UNL     1     -10.765  10.660  66.689  1.00  0.00    -0.246 C  
HETATM   11  C   UNL     1     -10.308  10.480  65.440  1.00  0.00    -0.292 C  
BRANCH  11  12
HETATM   12  C   UNL     1      -8.933  10.828  64.935  1.00  0.00    -0.201 C  
BRANCH  12  13
HETATM   13  C   UNL     1      -8.198   9.578  64.438  1.00  0.00    -0.148 C  
HETATM   14  C   UNL     1      -6.966   9.867  63.570  1.00  0.00    -0.122 C  
HETATM   15  C   UNL     1      -6.208   8.548  63.607  1.00  0.00    -0.073 C  
HETATM   16  O   UNL     1      -6.139  10.876  64.146  1.00  0.00    -0.367 OA 
HETATM   17  C   UNL     1      -6.302   8.134  65.075  1.00  0.00    -0.049 C  
HETATM   18  H   UNL     1      -5.376  11.054  63.608  1.00  0.00     0.000 HD 
HETATM   19  C   UNL     1      -7.651   8.697  65.593  1.00  0.00    -0.086 C  
HETATM   20  O   UNL     1      -5.222   8.714  65.809  1.00  0.00    -0.033 OA 
HETATM   21  H   UNL     1      -5.280   8.456  66.721  1.00  0.00     0.000 HD 
BRANCH  19  22
HETATM   22  C   UNL     1      -8.596   7.599  66.038  1.00  0.00    -0.165 C  
HETATM   23  C   UNL     1      -9.096   7.467  67.281  1.00  0.00    -0.137 C  
BRANCH  23  24
HETATM   24  C   UNL     1     -10.132   6.450  67.693  1.00  0.00    -0.151 C  
HETATM   25  F   UNL     1      -9.970   5.306  66.971  1.00  0.00    -0.135 F  
HETATM   26  F   UNL     1     -11.372   6.923  67.393  1.00  0.00    -0.359 F  
BRANCH  24  27
HETATM   27  C   UNL     1     -10.055   6.123  69.193  1.00  0.00    -0.170 C  
BRANCH  27  28
HETATM   28  O   UNL     1     -11.368   5.964  69.749  1.00  0.00    -0.371 OA 
BRANCH  28  29
HETATM   29  C   UNL     1     -11.777   6.968  70.585  1.00  0.00    -0.338 A  
HETATM   30  C   UNL     1     -10.801   7.911  70.914  1.00  0.00    -0.245 A  
HETATM   31  C   UNL     1     -11.106   8.981  71.758  1.00  0.00    -0.444 A  
HETATM   32  C   UNL     1     -12.396   9.121  72.265  1.00  0.00    -0.379 A  
HETATM   33  C   UNL     1     -13.381   8.195  71.924  1.00  0.00    -0.350 A  
HETATM   34  C   UNL     1     -13.074   7.120  71.084  1.00  0.00    -0.294 A  
ENDBRANCH  28  29
ENDBRANCH  27  28
ENDBRANCH  24  27
ENDBRANCH  23  24
ENDBRANCH  19  22
ENDBRANCH  12  13
ENDBRANCH  11  12
ENDBRANCH   9  10
ENDBRANCH   8   9
ENDBRANCH   7   8
ENDBRANCH   5   7
ENDBRANCH   4   5
ENDBRANCH   2   4
TORSDOF 13
ENDMDL
MODEL      213
REMARK 921   NORMALIZED FREE ENERGY PREDICTED BY IDOCK:   -4.19 KCAL/MOL
REMARK 922        TOTAL FREE ENERGY PREDICTED BY IDOCK:  -10.21 KCAL/MOL
REMARK 923 INTER-LIGAND FREE ENERGY PREDICTED BY IDOCK:   -8.90 KCAL/MOL
REMARK 924 INTRA-LIGAND FREE ENERGY PREDICTED BY IDOCK:   -1.31 KCAL/MOL
REMARK 927      BINDING AFFINITY PREDICTED BY RF-SCORE:    0.00 PKD
ROOT
HETATM    1  C   UNL     1     -10.014   4.607  69.091  1.00  0.00    -0.208 C  
HETATM    2  C   UNL     1      -9.565   5.886  68.391  1.00  0.00    -0.122 C  
HETATM    3  C   UNL     1      -9.931   7.112  69.219  1.00  0.00    -0.168 C  
ENDROOT
BRANCH   2   4
HETATM    4  O   UNL     1      -8.134   5.873  68.244  1.00  0.00    -0.107 OA 
BRANCH   4   5
HETATM    5  C   UNL     1      -7.426   6.116  69.383  1.00  0.00    -0.093 C  
HETATM    6  O   UNL     1      -7.408   5.399  70.373  1.00  0.00    -0.066 OA 
BRANCH   5   7
HETATM    7  C   UNL     1      -6.700   7.430  69.269  1.00  0.00    -0.041 C  
BRANCH   7   8
HETATM    8  C   UNL     1      -5.839   7.465  68.008  1.00  0.00    -0.031 C  
BRANCH   8   9
HETATM    9  C   UNL     1      -6.184   8.685  67.158  1.00  0.00    -0.056 C  
BRANCH   9  10
HETATM   10  C   UNL     1      -7.140   9.606  67.857  1.00  0.00    -0.080 C  
HETATM   11  C   UNL     1      -8.345   9.983  67.402  1.00  0.00    -0.118 C  
BRANCH  11  12
HETATM   12  C   UNL     1      -8.979   9.561  66.103  1.00  0.00    -0.191 C  
BRANCH  12  13
HETATM   13  C   UNL     1      -8.964  10.709  65.087  1.00  0.00    -0.217 C  
HETATM   14  C   UNL     1      -8.614  10.285  63.654  1.00  0.00    -0.195 C  
HETATM   15  C   UNL     1      -9.104  11.461  62.823  1.00  0.00    -0.266 C  
HETATM   16  O   UNL     1      -9.337   9.122  63.256  1.00  0.00    -0.434 OA 
HETATM   17  C   UNL     1     -10.459  11.789  63.449  1.00  0.00    -0.434 C  
HETATM   18  H   UNL     1      -9.120   8.861  62.368  1.00  0.00     0.000 HD 
HETATM   19  C   UNL     1     -10.339  11.414  64.949  1.00  0.00    -0.347 C  
HETATM   20  O   UNL     1     -11.478  10.998  62.833  1.00  0.00    -0.642 OA 
HETATM   21  H   UNL     1     -12.320  11.202  63.222  1.00  0.00     0.000 HD 
BRANCH  19  22
HETATM   22  C   UNL     1     -10.514  12.617  65.855  1.00  0.00    -0.295 C  
HETATM   23  C   UNL     1     -11.493  12.760  66.768  1.00  0.00    -0.399 C  
BRANCH  23  24
HETATM   24  C   UNL     1     -11.595  13.899  67.754  1.00  0.00    -0.347 C  
HETATM   25  F   UNL     1     -12.491  14.821  67.306  1.00  0.00    -0.274 F  
HETATM   26  F   UNL     1     -10.394  14.534  67.835  1.00  0.00    -0.224 F  
BRANCH  24  27
HETATM   27  C   UNL     1     -12.015  13.414  69.151  1.00  0.00    -0.317 C  
BRANCH  27  28
HETATM   28  O   UNL     1     -11.283  14.106  70.173  1.00  0.00    -0.150 OA 
BRANCH  28  29
HETATM   29  C   UNL     1     -12.047  14.689  71.148  1.00  0.00    -0.342 A  
HETATM   30  C   UNL     1     -13.428  14.599  70.965  1.00  0.00    -0.375 A  
HETATM   31  C   UNL     1     -14.304  15.156  71.899  1.00  0.00    -0.693 A  
HETATM   32  C   UNL     1     -13.801  15.794  73.031  1.00  0.00    -0.499 A  
HETATM   33  C   UNL     1     -12.423  15.869  73.230  1.00  0.00    -0.636 A  
HETATM   34  C   UNL     1     -11.546  15.317  72.293  1.00  0.00    -0.530 A  
ENDBRANCH  28  29
ENDBRANCH  27  28
ENDBRANCH  24  27
ENDBRANCH  23  24
ENDBRANCH  19  22
ENDBRANCH  12  13
ENDBRANCH  11  12
ENDBRANCH   9  10
ENDBRANCH   8   9
ENDBRANCH   7   8
ENDBRANCH   5   7
ENDBRANCH   4   5
ENDBRANCH   2   4
TORSDOF 13
ENDMDL
MODEL      214
REMARK 921   NORMALIZED FREE ENERGY PREDICTED BY IDOCK:   -4.16 KCAL/MOL
REMARK 922        TOTAL FREE ENERGY PREDICTED BY IDOCK:  -10.16 KCAL/MOL
REMARK 923 INTER-LIGAND FREE ENERGY PREDICTED BY IDOCK:   -8.25 KCAL/MOL
REMARK 924 INTRA-LIGAND FREE ENERGY PREDICTED BY IDOCK:   -1.91 KCAL/MOL
REMARK 927      BINDING AFFINITY PREDICTED BY RF-SCORE:    0.00 PKD
ROOT
HETATM    1  C   UNL     1     -12.311  14.367  64.293  1.00  0.00    -0.402 C  
HETATM    2  C   UNL     1     -12.377  12.922  64.774  1.00  0.00    -0.459 C  
HETATM    3  C   UNL     1     -12.810  11.996  63.644  1.00  0.00    -0.472 C  
ENDROOT
BRANCH   2   4
HETATM    4  O   UNL     1     -11.071  12.501  65.204  1.00  0.00    -0.285 OA 
BRANCH   4   5
HETATM    5  C   UNL     1     -10.416  11.661  64.354  1.00  0.00    -0.322 C  
HETATM    6  O   UNL     1     -10.005  11.958  63.241  1.00  0.00    -0.426 OA 
BRANCH   5   7
HETATM    7  C   UNL     1     -10.314  10.288  64.962  1.00  0.00    -0.174 C  
BRANCH   7   8
HETATM    8  C   UNL     1      -8.877   9.989  65.384  1.00  0.00    -0.199 C  
BRANCH   8   9
HETATM    9  C   UNL     1      -8.833   9.512  66.834  1.00  0.00    -0.140 C  
BRANCH   9  10
HETATM   10  C   UNL     1      -7.715  10.151  67.603  1.00  0.00    -0.091 C  
HETATM   11  C   UNL     1      -7.547  11.468  67.802  1.00  0.00    -0.111 C  
BRANCH  11  12
HETATM   12  C   UNL     1      -8.444  12.567  67.295  1.00  0.00    -0.185 C  
BRANCH  12  13
HETATM   13  C   UNL     1      -9.235  13.203  68.442  1.00  0.00    -0.141 C  
HETATM   14  C   UNL     1      -9.564  14.689  68.241  1.00  0.00    -0.208 C  
HETATM   15  C   UNL     1     -10.687  14.926  69.240  1.00  0.00    -0.253 C  
HETATM   16  O   UNL     1     -10.067  14.946  66.932  1.00  0.00    -0.238 OA 
HETATM   17  C   UNL     1     -11.571  13.692  69.070  1.00  0.00    -0.312 C  
HETATM   18  H   UNL     1     -10.271  15.866  66.808  1.00  0.00     0.000 HD 
HETATM   19  C   UNL     1     -10.618  12.536  68.667  1.00  0.00    -0.240 C  
HETATM   20  O   UNL     1     -12.522  13.920  68.029  1.00  0.00    -0.442 OA 
HETATM   21  H   UNL     1     -13.072  13.152  67.924  1.00  0.00     0.000 HD 
BRANCH  19  22
HETATM   22  C   UNL     1     -10.609  11.418  69.692  1.00  0.00     0.068 C  
HETATM   23  C   UNL     1     -11.703  10.779  70.147  1.00  0.00    -0.425 C  
BRANCH  23  24
HETATM   24  C   UNL     1     -11.684   9.585  71.071  1.00  0.00    -0.343 C  
HETATM   25  F   UNL     1     -12.435   9.845  72.177  1.00  0.00    -0.430 F  
HETATM   26  F   UNL     1     -10.413   9.373  71.508  1.00  0.00    -0.370 F  
BRANCH  24  27
HETATM   27  C   UNL     1     -12.210   8.315  70.383  1.00  0.00     0.379 C  
BRANCH  27  28
HETATM   28  O   UNL     1     -11.482   7.159  70.819  1.00  0.00    -0.282 OA 
BRANCH  28  29
HETATM   29  C   UNL     1     -10.983   6.368  69.820  1.00  0.00    -0.356 A  
HETATM   30  C   UNL     1     -10.302   5.224  70.242  1.00  0.00    -0.350 A  
HETATM   31  C   UNL     1      -9.754   4.342  69.308  1.00  0.00    -0.252 A  
HETATM   32  C   UNL     1      -9.898   4.594  67.945  1.00  0.00    -0.177 A  
HETATM   33  C   UNL     1     -10.596   5.723  67.517  1.00  0.00    -0.327 A  
HETATM   34  C   UNL     1     -11.140   6.609  68.452  1.00  0.00    -0.281 A  
ENDBRANCH  28  29
ENDBRANCH  27  28
ENDBRANCH  24  27
ENDBRANCH  23  24
ENDBRANCH  19  22
ENDBRANCH  12  13
ENDBRANCH  11  12
ENDBRANCH   9  10
ENDBRANCH   8   9
ENDBRANCH   7   8
ENDBRANCH   5   7
ENDBRANCH   4   5
ENDBRANCH   2   4
TORSDOF 13
ENDMDL
MODEL      215
REMARK 921   NORMALIZED FREE ENERGY PREDICTED BY IDOCK:   -4.15 KCAL/MOL
REMARK 922        TOTAL FREE ENERGY PREDICTED BY IDOCK:  -10.15 KCAL/MOL
REMARK 923 INTER-LIGAND FREE ENERGY PREDICTED BY IDOCK:   -7.32 KCAL/MOL
REMARK 924 INTRA-LIGAND FREE ENERGY PREDICTED BY IDOCK:   -2.83 KCAL/MOL
REMARK 927      BINDING AFFINITY PREDICTED BY RF-SCORE:    0.00 PKD
ROOT
HETATM    1  C   UNL     1      -9.992  10.291  65.106  1.00  0.00    -0.395 C  
HETATM    2  C   UNL     1      -8.673   9.694  65.583  1.00  0.00    -0.141 C  
HETATM    3  C   UNL     1      -8.119   8.716  64.555  1.00  0.00    -0.162 C  
ENDROOT
BRANCH   2   4
HETATM    4  O   UNL     1      -7.705  10.745  65.748  1.00  0.00    -0.152 OA 
BRANCH   4   5
HETATM    5  C   UNL     1      -7.781  11.433  66.922  1.00  0.00    -0.155 C  
HETATM    6  O   UNL     1      -8.301  12.530  67.068  1.00  0.00    -0.180 OA 
BRANCH   5   7
HETATM    7  C   UNL     1      -7.084  10.667  68.015  1.00  0.00    -0.085 C  
BRANCH   7   8
HETATM    8  C   UNL     1      -7.973  10.562  69.253  1.00  0.00    -0.156 C  
BRANCH   8   9
HETATM    9  C   UNL     1      -8.566   9.160  69.366  1.00  0.00    -0.138 C  
BRANCH   9  10
HETATM   10  C   UNL     1      -7.617   8.105  68.876  1.00  0.00    -0.098 C  
HETATM   11  C   UNL     1      -7.948   7.021  68.158  1.00  0.00    -0.119 C  
BRANCH  11  12
HETATM   12  C   UNL     1      -9.333   6.644  67.700  1.00  0.00    -0.119 C  
BRANCH  12  13
HETATM   13  C   UNL     1      -9.804   5.354  68.383  1.00  0.00    -0.197 C  
HETATM   14  C   UNL     1      -9.528   4.074  67.583  1.00  0.00    -0.183 C  
HETATM   15  C   UNL     1      -9.659   2.982  68.634  1.00  0.00    -0.094 C  
HETATM   16  O   UNL     1      -8.197   4.047  67.071  1.00  0.00    -0.099 OA 
HETATM   17  C   UNL     1      -8.922   3.568  69.838  1.00  0.00    -0.107 C  
HETATM   18  H   UNL     1      -8.027   3.254  66.576  1.00  0.00     0.000 HD 
HETATM   19  C   UNL     1      -9.111   5.105  69.749  1.00  0.00    -0.154 C  
HETATM   20  O   UNL     1      -7.532   3.247  69.754  1.00  0.00    -0.044 OA 
HETATM   21  H   UNL     1      -7.074   3.610  70.503  1.00  0.00     0.000 HD 
BRANCH  19  22
HETATM   22  C   UNL     1      -9.870   5.657  70.940  1.00  0.00    -0.237 C  
HETATM   23  C   UNL     1     -10.968   6.433  70.863  1.00  0.00    -0.335 C  
BRANCH  23  24
HETATM   24  C   UNL     1     -11.795   6.879  72.044  1.00  0.00    -0.310 C  
HETATM   25  F   UNL     1     -11.225   6.439  73.200  1.00  0.00    -0.261 F  
HETATM   26  F   UNL     1     -13.026   6.303  71.976  1.00  0.00    -0.363 F  
BRANCH  24  27
HETATM   27  C   UNL     1     -11.945   8.408  72.097  1.00  0.00    -0.374 C  
BRANCH  27  28
HETATM   28  O   UNL     1     -12.204   8.941  70.791  1.00  0.00    -0.198 OA 
BRANCH  28  29
HETATM   29  C   UNL     1     -12.254  10.307  70.713  1.00  0.00    -0.350 A  
HETATM   30  C   UNL     1     -12.887  10.946  71.781  1.00  0.00    -0.509 A  
HETATM   31  C   UNL     1     -12.994  12.339  71.809  1.00  0.00    -0.431 A  
HETATM   32  C   UNL     1     -12.453  13.099  70.775  1.00  0.00    -0.389 A  
HETATM   33  C   UNL     1     -11.801  12.468  69.716  1.00  0.00    -0.380 A  
HETATM   34  C   UNL     1     -11.700  11.074  69.685  1.00  0.00    -0.401 A  
ENDBRANCH  28  29
ENDBRANCH  27  28
ENDBRANCH  24  27
ENDBRANCH  23  24
ENDBRANCH  19  22
ENDBRANCH  12  13
ENDBRANCH  11  12
ENDBRANCH   9  10
ENDBRANCH   8   9
ENDBRANCH   7   8
ENDBRANCH   5   7
ENDBRANCH   4   5
ENDBRANCH   2   4
TORSDOF 13
ENDMDL
MODEL      216
REMARK 921   NORMALIZED FREE ENERGY PREDICTED BY IDOCK:   -4.15 KCAL/MOL
REMARK 922        TOTAL FREE ENERGY PREDICTED BY IDOCK:  -10.14 KCAL/MOL
REMARK 923 INTER-LIGAND FREE ENERGY PREDICTED BY IDOCK:   -8.05 KCAL/MOL
REMARK 924 INTRA-LIGAND FREE ENERGY PREDICTED BY IDOCK:   -2.10 KCAL/MOL
REMARK 927      BINDING AFFINITY PREDICTED BY RF-SCORE:    0.00 PKD
ROOT
HETATM    1  C   UNL     1      -9.903  20.346  67.094  1.00  0.00    -0.601 C  
HETATM    2  C   UNL     1      -9.215  19.052  66.675  1.00  0.00    -0.329 C  
HETATM    3  C   UNL     1     -10.233  18.037  66.171  1.00  0.00    -0.364 C  
ENDROOT
BRANCH   2   4
HETATM    4  O   UNL     1      -8.302  19.323  65.597  1.00  0.00    -0.371 OA 
BRANCH   4   5
HETATM    5  C   UNL     1      -7.139  19.937  65.955  1.00  0.00    -0.298 C  
HETATM    6  O   UNL     1      -6.793  21.057  65.607  1.00  0.00    -0.060 OA 
BRANCH   5   7
HETATM    7  C   UNL     1      -6.309  19.014  66.807  1.00  0.00    -0.197 C  
BRANCH   7   8
HETATM    8  C   UNL     1      -5.796  17.835  65.983  1.00  0.00    -0.241 C  
BRANCH   8   9
HETATM    9  C   UNL     1      -5.470  16.651  66.891  1.00  0.00    -0.091 C  
BRANCH   9  10
HETATM   10  C   UNL     1      -6.213  16.720  68.193  1.00  0.00    -0.136 C  
HETATM   11  C   UNL     1      -7.442  16.232  68.425  1.00  0.00    -0.163 C  
BRANCH  11  12
HETATM   12  C   UNL     1      -8.321  15.522  67.429  1.00  0.00    -0.202 C  
BRANCH  12  13
HETATM   13  C   UNL     1      -9.354  14.640  68.140  1.00  0.00    -0.197 C  
HETATM   14  C   UNL     1      -9.720  15.104  69.556  1.00  0.00    -0.165 C  
HETATM   15  C   UNL     1     -11.026  14.371  69.826  1.00  0.00    -0.151 C  
HETATM   16  O   UNL     1      -9.975  16.506  69.603  1.00  0.00    -0.177 OA 
HETATM   17  C   UNL     1     -11.790  14.526  68.512  1.00  0.00    -0.320 C  
HETATM   18  H   UNL     1     -10.202  16.793  70.480  1.00  0.00     0.000 HD 
HETATM   19  C   UNL     1     -10.715  14.582  67.395  1.00  0.00    -0.282 C  
HETATM   20  O   UNL     1     -12.534  15.746  68.528  1.00  0.00    -0.366 OA 
HETATM   21  H   UNL     1     -13.009  15.842  67.711  1.00  0.00     0.000 HD 
BRANCH  19  22
HETATM   22  C   UNL     1     -10.841  13.426  66.422  1.00  0.00    -0.294 C  
HETATM   23  C   UNL     1     -10.022  13.205  65.376  1.00  0.00    -0.203 C  
BRANCH  23  24
HETATM   24  C   UNL     1     -10.070  11.989  64.482  1.00  0.00    -0.265 C  
HETATM   25  F   UNL     1      -9.693  12.329  63.219  1.00  0.00    -0.370 F  
HETATM   26  F   UNL     1     -11.353  11.544  64.397  1.00  0.00    -0.386 F  
BRANCH  24  27
HETATM   27  C   UNL     1      -9.167  10.858  65.000  1.00  0.00    -0.207 C  
BRANCH  27  28
HETATM   28  O   UNL     1      -9.932   9.886  65.727  1.00  0.00    -0.270 OA 
BRANCH  28  29
HETATM   29  C   UNL     1      -9.820   9.951  67.090  1.00  0.00    -0.186 A  
HETATM   30  C   UNL     1     -10.983  10.317  67.771  1.00  0.00    -0.360 A  
HETATM   31  C   UNL     1     -10.985  10.413  69.164  1.00  0.00    -0.285 A  
HETATM   32  C   UNL     1      -9.827  10.128  69.884  1.00  0.00    -0.223 A  
HETATM   33  C   UNL     1      -8.669   9.742  69.210  1.00  0.00    -0.165 A  
HETATM   34  C   UNL     1      -8.664   9.651  67.816  1.00  0.00    -0.122 A  
ENDBRANCH  28  29
ENDBRANCH  27  28
ENDBRANCH  24  27
ENDBRANCH  23  24
ENDBRANCH  19  22
ENDBRANCH  12  13
ENDBRANCH  11  12
ENDBRANCH   9  10
ENDBRANCH   8   9
ENDBRANCH   7   8
ENDBRANCH   5   7
ENDBRANCH   4   5
ENDBRANCH   2   4
TORSDOF 13
ENDMDL
MODEL      217
REMARK 921   NORMALIZED FREE ENERGY PREDICTED BY IDOCK:   -4.14 KCAL/MOL
REMARK 922        TOTAL FREE ENERGY PREDICTED BY IDOCK:  -10.12 KCAL/MOL
REMARK 923 INTER-LIGAND FREE ENERGY PREDICTED BY IDOCK:   -8.68 KCAL/MOL
REMARK 924 INTRA-LIGAND FREE ENERGY PREDICTED BY IDOCK:   -1.44 KCAL/MOL
REMARK 927      BINDING AFFINITY PREDICTED BY RF-SCORE:    0.00 PKD
ROOT
HETATM    1  C   UNL     1     -14.198  13.513  72.329  1.00  0.00    -0.463 C  
HETATM    2  C   UNL     1     -14.170  14.983  71.923  1.00  0.00    -0.555 C  
HETATM    3  C   UNL     1     -13.596  15.842  73.044  1.00  0.00    -0.638 C  
ENDROOT
BRANCH   2   4
HETATM    4  O   UNL     1     -13.322  15.146  70.773  1.00  0.00    -0.396 OA 
BRANCH   4   5
HETATM    5  C   UNL     1     -12.090  14.572  70.868  1.00  0.00    -0.336 C  
HETATM    6  O   UNL     1     -11.086  15.116  71.306  1.00  0.00    -0.316 OA 
BRANCH   5   7
HETATM    7  C   UNL     1     -12.126  13.175  70.306  1.00  0.00    -0.399 C  
BRANCH   7   8
HETATM    8  C   UNL     1     -11.759  13.179  68.824  1.00  0.00    -0.363 C  
BRANCH   8   9
HETATM    9  C   UNL     1     -11.569  11.752  68.316  1.00  0.00    -0.373 C  
BRANCH   9  10
HETATM   10  C   UNL     1     -11.236  11.715  66.853  1.00  0.00    -0.376 C  
HETATM   11  C   UNL     1     -10.231  11.025  66.292  1.00  0.00    -0.295 C  
BRANCH  11  12
HETATM   12  C   UNL     1      -9.237  10.153  67.013  1.00  0.00    -0.166 C  
BRANCH  12  13
HETATM   13  C   UNL     1      -9.752   8.714  67.129  1.00  0.00    -0.248 C  
HETATM   14  C   UNL     1      -9.234   7.763  66.042  1.00  0.00    -0.082 C  
HETATM   15  C   UNL     1      -9.505   6.389  66.635  1.00  0.00    -0.191 C  
HETATM   16  O   UNL     1      -7.827   7.899  65.849  1.00  0.00    -0.092 OA 
HETATM   17  C   UNL     1      -9.071   6.547  68.092  1.00  0.00    -0.114 C  
HETATM   18  H   UNL     1      -7.506   7.309  65.175  1.00  0.00     0.000 HD 
HETATM   19  C   UNL     1      -9.340   8.029  68.460  1.00  0.00    -0.142 C  
HETATM   20  O   UNL     1      -7.676   6.264  68.212  1.00  0.00    -0.100 OA 
HETATM   21  H   UNL     1      -7.406   6.361  69.118  1.00  0.00     0.000 HD 
BRANCH  19  22
HETATM   22  C   UNL     1     -10.362   8.167  69.571  1.00  0.00    -0.222 C  
HETATM   23  C   UNL     1     -11.217   7.200  69.957  1.00  0.00    -0.271 C  
BRANCH  23  24
HETATM   24  C   UNL     1     -12.147   7.293  71.143  1.00  0.00    -0.340 C  
HETATM   25  F   UNL     1     -13.423   7.024  70.751  1.00  0.00    -0.338 F  
HETATM   26  F   UNL     1     -12.148   8.568  71.616  1.00  0.00    -0.297 F  
BRANCH  24  27
HETATM   27  C   UNL     1     -11.742   6.327  72.268  1.00  0.00    -0.298 C  
BRANCH  27  28
HETATM   28  O   UNL     1     -11.035   7.020  73.306  1.00  0.00    -0.303 OA 
BRANCH  28  29
HETATM   29  C   UNL     1      -9.672   6.902  73.267  1.00  0.00    -0.185 A  
HETATM   30  C   UNL     1      -8.973   8.081  72.999  1.00  0.00    -0.313 A  
HETATM   31  C   UNL     1      -7.578   8.078  72.938  1.00  0.00    -0.168 A  
HETATM   32  C   UNL     1      -6.874   6.897  73.161  1.00  0.00    -0.074 A  
HETATM   33  C   UNL     1      -7.565   5.721  73.450  1.00  0.00    -0.095 A  
HETATM   34  C   UNL     1      -8.961   5.722  73.505  1.00  0.00    -0.128 A  
ENDBRANCH  28  29
ENDBRANCH  27  28
ENDBRANCH  24  27
ENDBRANCH  23  24
ENDBRANCH  19  22
ENDBRANCH  12  13
ENDBRANCH  11  12
ENDBRANCH   9  10
ENDBRANCH   8   9
ENDBRANCH   7   8
ENDBRANCH   5   7
ENDBRANCH   4   5
ENDBRANCH   2   4
TORSDOF 13
ENDMDL
MODEL      218
REMARK 921   NORMALIZED FREE ENERGY PREDICTED BY IDOCK:   -4.13 KCAL/MOL
REMARK 922        TOTAL FREE ENERGY PREDICTED BY IDOCK:  -10.10 KCAL/MOL
REMARK 923 INTER-LIGAND FREE ENERGY PREDICTED BY IDOCK:   -7.38 KCAL/MOL
REMARK 924 INTRA-LIGAND FREE ENERGY PREDICTED BY IDOCK:   -2.72 KCAL/MOL
REMARK 927      BINDING AFFINITY PREDICTED BY RF-SCORE:    0.00 PKD
ROOT
HETATM    1  C   UNL     1     -12.286  14.429  64.550  1.00  0.00    -0.483 C  
HETATM    2  C   UNL     1     -12.091  12.924  64.693  1.00  0.00    -0.418 C  
HETATM    3  C   UNL     1     -12.181  12.235  63.337  1.00  0.00    -0.630 C  
ENDROOT
BRANCH   2   4
HETATM    4  O   UNL     1     -10.782  12.661  65.228  1.00  0.00    -0.277 OA 
BRANCH   4   5
HETATM    5  C   UNL     1     -10.601  11.414  65.747  1.00  0.00    -0.260 C  
HETATM    6  O   UNL     1     -11.467  10.736  66.281  1.00  0.00     0.022 OA 
BRANCH   5   7
HETATM    7  C   UNL     1      -9.158  11.003  65.614  1.00  0.00    -0.223 C  
BRANCH   7   8
HETATM    8  C   UNL     1      -8.250  11.964  66.379  1.00  0.00     0.049 C  
BRANCH   8   9
HETATM    9  C   UNL     1      -7.154  11.194  67.112  1.00  0.00    -0.113 C  
BRANCH   9  10
HETATM   10  C   UNL     1      -6.753  11.868  68.391  1.00  0.00    -0.067 C  
HETATM   11  C   UNL     1      -6.842  11.339  69.622  1.00  0.00    -0.095 C  
BRANCH  11  12
HETATM   12  C   UNL     1      -7.362   9.969  69.967  1.00  0.00    -0.172 C  
BRANCH  12  13
HETATM   13  C   UNL     1      -8.623   9.641  69.158  1.00  0.00    -0.146 C  
HETATM   14  C   UNL     1      -8.891   8.140  68.979  1.00  0.00    -0.144 C  
HETATM   15  C   UNL     1     -10.357   8.104  68.575  1.00  0.00    -0.230 C  
HETATM   16  O   UNL     1      -8.746   7.428  70.206  1.00  0.00    -0.143 OA 
HETATM   17  C   UNL     1     -11.005   9.113  69.522  1.00  0.00    -0.123 C  
HETATM   18  H   UNL     1      -8.914   6.499  70.095  1.00  0.00     0.000 HD 
HETATM   19  C   UNL     1      -9.920  10.183  69.813  1.00  0.00    -0.258 C  
HETATM   20  O   UNL     1     -11.379   8.461  70.738  1.00  0.00    -0.266 OA 
HETATM   21  H   UNL     1     -11.782   9.089  71.326  1.00  0.00     0.000 HD 
BRANCH  19  22
HETATM   22  C   UNL     1     -10.331  11.560  69.329  1.00  0.00    -0.010 C  
HETATM   23  C   UNL     1     -11.593  12.030  69.318  1.00  0.00    -0.380 C  
BRANCH  23  24
HETATM   24  C   UNL     1     -11.987  13.441  68.955  1.00  0.00    -0.324 C  
HETATM   25  F   UNL     1     -12.733  13.985  69.955  1.00  0.00    -0.375 F  
HETATM   26  F   UNL     1     -12.781  13.417  67.850  1.00  0.00    -0.036 F  
BRANCH  24  27
HETATM   27  C   UNL     1     -10.761  14.330  68.688  1.00  0.00    -0.249 C  
BRANCH  27  28
HETATM   28  O   UNL     1     -11.124  15.478  67.907  1.00  0.00    -0.303 OA 
BRANCH  28  29
HETATM   29  C   UNL     1     -10.076  16.230  67.449  1.00  0.00    -0.260 A  
HETATM   30  C   UNL     1      -8.940  15.510  67.070  1.00  0.00    -0.249 A  
HETATM   31  C   UNL     1      -7.812  16.175  66.584  1.00  0.00    -0.288 A  
HETATM   32  C   UNL     1      -7.820  17.562  66.461  1.00  0.00    -0.312 A  
HETATM   33  C   UNL     1      -8.958  18.284  66.818  1.00  0.00    -0.289 A  
HETATM   34  C   UNL     1     -10.086  17.621  67.310  1.00  0.00    -0.331 A  
ENDBRANCH  28  29
ENDBRANCH  27  28
ENDBRANCH  24  27
ENDBRANCH  23  24
ENDBRANCH  19  22
ENDBRANCH  12  13
ENDBRANCH  11  12
ENDBRANCH   9  10
ENDBRANCH   8   9
ENDBRANCH   7   8
ENDBRANCH   5   7
ENDBRANCH   4   5
ENDBRANCH   2   4
TORSDOF 13
ENDMDL
MODEL      219
REMARK 921   NORMALIZED FREE ENERGY PREDICTED BY IDOCK:   -4.13 KCAL/MOL
REMARK 922        TOTAL FREE ENERGY PREDICTED BY IDOCK:  -10.10 KCAL/MOL
REMARK 923 INTER-LIGAND FREE ENERGY PREDICTED BY IDOCK:   -8.72 KCAL/MOL
REMARK 924 INTRA-LIGAND FREE ENERGY PREDICTED BY IDOCK:   -1.38 KCAL/MOL
REMARK 927      BINDING AFFINITY PREDICTED BY RF-SCORE:    0.00 PKD
ROOT
HETATM    1  C   UNL     1      -5.924   8.792  72.564  1.00  0.00    -0.075 C  
HETATM    2  C   UNL     1      -6.494   8.057  71.356  1.00  0.00    -0.040 C  
HETATM    3  C   UNL     1      -5.846   6.687  71.202  1.00  0.00    -0.028 C  
ENDROOT
BRANCH   2   4
HETATM    4  O   UNL     1      -7.905   7.851  71.544  1.00  0.00    -0.085 OA 
BRANCH   4   5
HETATM    5  C   UNL     1      -8.713   8.808  71.007  1.00  0.00    -0.202 C  
HETATM    6  O   UNL     1      -8.349   9.912  70.628  1.00  0.00    -0.180 OA 
BRANCH   5   7
HETATM    7  C   UNL     1     -10.141   8.330  70.993  1.00  0.00    -0.230 C  
BRANCH   7   8
HETATM    8  C   UNL     1     -10.360   7.314  69.874  1.00  0.00    -0.226 C  
BRANCH   8   9
HETATM    9  C   UNL     1      -9.634   7.753  68.604  1.00  0.00    -0.154 C  
BRANCH   9  10
HETATM   10  C   UNL     1     -10.586   8.249  67.556  1.00  0.00    -0.291 C  
HETATM   11  C   UNL     1     -10.244   8.817  66.388  1.00  0.00    -0.256 C  
BRANCH  11  12
HETATM   12  C   UNL     1      -8.843   9.071  65.897  1.00  0.00    -0.210 C  
BRANCH  12  13
HETATM   13  C   UNL     1      -8.789  10.325  65.018  1.00  0.00    -0.209 C  
HETATM   14  C   UNL     1      -8.415  10.060  63.553  1.00  0.00    -0.187 C  
HETATM   15  C   UNL     1      -8.869  11.331  62.851  1.00  0.00    -0.185 C  
HETATM   16  O   UNL     1      -9.147   8.962  63.012  1.00  0.00    -0.409 OA 
HETATM   17  C   UNL     1     -10.233  11.609  63.484  1.00  0.00    -0.436 C  
HETATM   18  H   UNL     1      -8.916   8.799  62.105  1.00  0.00     0.000 HD 
HETATM   19  C   UNL     1     -10.150  11.066  64.934  1.00  0.00    -0.359 C  
HETATM   20  O   UNL     1     -11.250  10.911  62.762  1.00  0.00    -0.540 OA 
HETATM   21  H   UNL     1     -12.097  11.085  63.155  1.00  0.00     0.000 HD 
BRANCH  19  22
HETATM   22  C   UNL     1     -10.325  12.162  65.967  1.00  0.00    -0.268 C  
HETATM   23  C   UNL     1      -9.319  12.801  66.592  1.00  0.00    -0.242 C  
BRANCH  23  24
HETATM   24  C   UNL     1      -9.489  13.976  67.525  1.00  0.00    -0.221 C  
HETATM   25  F   UNL     1      -8.424  14.053  68.370  1.00  0.00    -0.146 F  
HETATM   26  F   UNL     1     -10.587  13.777  68.304  1.00  0.00    -0.228 F  
BRANCH  24  27
HETATM   27  C   UNL     1      -9.633  15.302  66.761  1.00  0.00    -0.241 C  
BRANCH  27  28
HETATM   28  O   UNL     1     -10.645  16.127  67.358  1.00  0.00    -0.306 OA 
BRANCH  28  29
HETATM   29  C   UNL     1     -10.434  17.476  67.260  1.00  0.00    -0.327 A  
HETATM   30  C   UNL     1     -10.230  18.141  68.471  1.00  0.00    -0.399 A  
HETATM   31  C   UNL     1     -10.003  19.519  68.491  1.00  0.00    -0.538 A  
HETATM   32  C   UNL     1      -9.963  20.235  67.297  1.00  0.00    -0.580 A  
HETATM   33  C   UNL     1     -10.144  19.573  66.083  1.00  0.00    -0.557 A  
HETATM   34  C   UNL     1     -10.378  18.195  66.063  1.00  0.00    -0.360 A  
ENDBRANCH  28  29
ENDBRANCH  27  28
ENDBRANCH  24  27
ENDBRANCH  23  24
ENDBRANCH  19  22
ENDBRANCH  12  13
ENDBRANCH  11  12
ENDBRANCH   9  10
ENDBRANCH   8   9
ENDBRANCH   7   8
ENDBRANCH   5   7
ENDBRANCH   4   5
ENDBRANCH   2   4
TORSDOF 13
ENDMDL
MODEL      220
REMARK 921   NORMALIZED FREE ENERGY PREDICTED BY IDOCK:   -4.13 KCAL/MOL
REMARK 922        TOTAL FREE ENERGY PREDICTED BY IDOCK:  -10.10 KCAL/MOL
REMARK 923 INTER-LIGAND FREE ENERGY PREDICTED BY IDOCK:   -7.61 KCAL/MOL
REMARK 924 INTRA-LIGAND FREE ENERGY PREDICTED BY IDOCK:   -2.49 KCAL/MOL
REMARK 927      BINDING AFFINITY PREDICTED BY RF-SCORE:    0.00 PKD
ROOT
HETATM    1  C   UNL     1      -9.132   9.966  64.405  1.00  0.00    -0.299 C  
HETATM    2  C   UNL     1      -8.841   9.587  65.853  1.00  0.00    -0.164 C  
HETATM    3  C   UNL     1      -9.127   8.110  66.093  1.00  0.00    -0.232 C  
ENDROOT
BRANCH   2   4
HETATM    4  O   UNL     1      -7.448   9.811  66.135  1.00  0.00    -0.097 OA 
BRANCH   4   5
HETATM    5  C   UNL     1      -7.183  10.828  67.002  1.00  0.00    -0.109 C  
HETATM    6  O   UNL     1      -7.231  12.020  66.733  1.00  0.00    -0.086 OA 
BRANCH   5   7
HETATM    7  C   UNL     1      -6.769  10.272  68.339  1.00  0.00    -0.057 C  
BRANCH   7   8
HETATM    8  C   UNL     1      -7.828  10.568  69.399  1.00  0.00    -0.151 C  
BRANCH   8   9
HETATM    9  C   UNL     1      -8.725   9.351  69.613  1.00  0.00    -0.172 C  
BRANCH   9  10
HETATM   10  C   UNL     1      -7.977   8.200  70.218  1.00  0.00    -0.103 C  
HETATM   11  C   UNL     1      -8.455   6.959  70.402  1.00  0.00    -0.134 C  
BRANCH  11  12
HETATM   12  C   UNL     1      -9.834   6.473  70.040  1.00  0.00    -0.183 C  
BRANCH  12  13
HETATM   13  C   UNL     1     -10.638   6.119  71.296  1.00  0.00    -0.295 C  
HETATM   14  C   UNL     1     -10.246   4.787  71.948  1.00  0.00    -0.193 C  
HETATM   15  C   UNL     1     -10.835   4.906  73.346  1.00  0.00    -0.360 C  
HETATM   16  O   UNL     1      -8.832   4.653  72.067  1.00  0.00    -0.120 OA 
HETATM   17  C   UNL     1     -10.486   6.338  73.749  1.00  0.00    -0.290 C  
HETATM   18  H   UNL     1      -8.589   3.827  72.471  1.00  0.00     0.000 HD 
HETATM   19  C   UNL     1     -10.473   7.162  72.434  1.00  0.00    -0.247 C  
HETATM   20  O   UNL     1      -9.190   6.367  74.350  1.00  0.00    -0.159 OA 
HETATM   21  H   UNL     1      -8.974   7.257  74.601  1.00  0.00     0.000 HD 
BRANCH  19  22
HETATM   22  C   UNL     1     -11.525   8.254  72.433  1.00  0.00    -0.463 C  
HETATM   23  C   UNL     1     -11.770   9.088  71.405  1.00  0.00    -0.392 C  
BRANCH  23  24
HETATM   24  C   UNL     1     -12.897  10.091  71.357  1.00  0.00    -0.417 C  
HETATM   25  F   UNL     1     -12.700  11.054  72.299  1.00  0.00    -0.402 F  
HETATM   26  F   UNL     1     -14.066   9.472  71.675  1.00  0.00    -0.331 F  
BRANCH  24  27
HETATM   27  C   UNL     1     -13.024  10.748  69.972  1.00  0.00     0.103 C  
BRANCH  27  28
HETATM   28  O   UNL     1     -11.731  10.963  69.389  1.00  0.00    -0.277 OA 
BRANCH  28  29
HETATM   29  C   UNL     1     -11.573  12.155  68.736  1.00  0.00    -0.327 A  
HETATM   30  C   UNL     1     -11.006  12.072  67.462  1.00  0.00    -0.303 A  
HETATM   31  C   UNL     1     -10.801  13.226  66.702  1.00  0.00    -0.289 A  
HETATM   32  C   UNL     1     -11.177  14.468  67.208  1.00  0.00    -0.341 A  
HETATM   33  C   UNL     1     -11.763  14.556  68.470  1.00  0.00    -0.353 A  
HETATM   34  C   UNL     1     -11.963  13.402  69.233  1.00  0.00    -0.367 A  
ENDBRANCH  28  29
ENDBRANCH  27  28
ENDBRANCH  24  27
ENDBRANCH  23  24
ENDBRANCH  19  22
ENDBRANCH  12  13
ENDBRANCH  11  12
ENDBRANCH   9  10
ENDBRANCH   8   9
ENDBRANCH   7   8
ENDBRANCH   5   7
ENDBRANCH   4   5
ENDBRANCH   2   4
TORSDOF 13
ENDMDL
MODEL      221
REMARK 921   NORMALIZED FREE ENERGY PREDICTED BY IDOCK:   -4.12 KCAL/MOL
REMARK 922        TOTAL FREE ENERGY PREDICTED BY IDOCK:  -10.08 KCAL/MOL
REMARK 923 INTER-LIGAND FREE ENERGY PREDICTED BY IDOCK:   -8.71 KCAL/MOL
REMARK 924 INTRA-LIGAND FREE ENERGY PREDICTED BY IDOCK:   -1.38 KCAL/MOL
REMARK 927      BINDING AFFINITY PREDICTED BY RF-SCORE:    0.00 PKD
ROOT
HETATM    1  C   UNL     1     -14.079   8.807  71.949  1.00  0.00    -0.488 C  
HETATM    2  C   UNL     1     -12.673   8.275  72.202  1.00  0.00    -0.329 C  
HETATM    3  C   UNL     1     -12.528   6.855  71.668  1.00  0.00    -0.418 C  
ENDROOT
BRANCH   2   4
HETATM    4  O   UNL     1     -11.718   9.099  71.510  1.00  0.00    -0.310 OA 
BRANCH   4   5
HETATM    5  C   UNL     1     -10.419   8.701  71.611  1.00  0.00    -0.296 C  
HETATM    6  O   UNL     1      -9.797   8.572  72.656  1.00  0.00    -0.281 OA 
BRANCH   5   7
HETATM    7  C   UNL     1      -9.835   8.491  70.239  1.00  0.00    -0.194 C  
BRANCH   7   8
HETATM    8  C   UNL     1      -9.111   9.747  69.761  1.00  0.00    -0.246 C  
BRANCH   8   9
HETATM    9  C   UNL     1     -10.049  10.622  68.932  1.00  0.00    -0.215 C  
BRANCH   9  10
HETATM   10  C   UNL     1     -10.800   9.826  67.906  1.00  0.00    -0.298 C  
HETATM   11  C   UNL     1     -10.295   9.344  66.759  1.00  0.00    -0.303 C  
BRANCH  11  12
HETATM   12  C   UNL     1      -8.878   9.504  66.273  1.00  0.00    -0.172 C  
BRANCH  12  13
HETATM   13  C   UNL     1      -8.786  10.595  65.201  1.00  0.00    -0.196 C  
HETATM   14  C   UNL     1      -8.167  10.133  63.875  1.00  0.00    -0.164 C  
HETATM   15  C   UNL     1      -8.604  11.216  62.900  1.00  0.00    -0.107 C  
HETATM   16  O   UNL     1      -8.715   8.890  63.440  1.00  0.00    -0.388 OA 
HETATM   17  C   UNL     1     -10.068  11.449  63.274  1.00  0.00    -0.387 C  
HETATM   18  H   UNL     1      -8.331   8.605  62.619  1.00  0.00     0.000 HD 
HETATM   19  C   UNL     1     -10.172  11.163  64.795  1.00  0.00    -0.365 C  
HETATM   20  O   UNL     1     -10.900  10.538  62.553  1.00  0.00    -0.208 OA 
HETATM   21  H   UNL     1     -11.810  10.684  62.785  1.00  0.00     0.000 HD 
BRANCH  19  22
HETATM   22  C   UNL     1     -10.594  12.390  65.580  1.00  0.00    -0.307 C  
HETATM   23  C   UNL     1     -10.171  13.645  65.337  1.00  0.00    -0.330 C  
BRANCH  23  24
HETATM   24  C   UNL     1     -10.685  14.881  66.036  1.00  0.00    -0.323 C  
HETATM   25  F   UNL     1     -12.014  14.745  66.297  1.00  0.00    -0.357 F  
HETATM   26  F   UNL     1     -10.561  15.952  65.206  1.00  0.00    -0.348 F  
BRANCH  24  27
HETATM   27  C   UNL     1      -9.931  15.156  67.347  1.00  0.00    -0.226 C  
BRANCH  27  28
HETATM   28  O   UNL     1      -9.861  16.565  67.609  1.00  0.00    -0.240 OA 
BRANCH  28  29
HETATM   29  C   UNL     1      -8.612  17.117  67.512  1.00  0.00    -0.203 A  
HETATM   30  C   UNL     1      -8.547  18.344  66.848  1.00  0.00    -0.276 A  
HETATM   31  C   UNL     1      -7.325  19.001  66.693  1.00  0.00    -0.235 A  
HETATM   32  C   UNL     1      -6.162  18.439  67.216  1.00  0.00    -0.180 A  
HETATM   33  C   UNL     1      -6.223  17.226  67.899  1.00  0.00    -0.156 A  
HETATM   34  C   UNL     1      -7.446  16.565  68.049  1.00  0.00    -0.162 A  
ENDBRANCH  28  29
ENDBRANCH  27  28
ENDBRANCH  24  27
ENDBRANCH  23  24
ENDBRANCH  19  22
ENDBRANCH  12  13
ENDBRANCH  11  12
ENDBRANCH   9  10
ENDBRANCH   8   9
ENDBRANCH   7   8
ENDBRANCH   5   7
ENDBRANCH   4   5
ENDBRANCH   2   4
TORSDOF 13
ENDMDL
MODEL      222
REMARK 921   NORMALIZED FREE ENERGY PREDICTED BY IDOCK:   -4.12 KCAL/MOL
REMARK 922        TOTAL FREE ENERGY PREDICTED BY IDOCK:  -10.08 KCAL/MOL
REMARK 923 INTER-LIGAND FREE ENERGY PREDICTED BY IDOCK:   -8.22 KCAL/MOL
REMARK 924 INTRA-LIGAND FREE ENERGY PREDICTED BY IDOCK:   -1.86 KCAL/MOL
REMARK 927      BINDING AFFINITY PREDICTED BY RF-SCORE:    0.00 PKD
ROOT
HETATM    1  C   UNL     1      -6.035   4.185  70.282  1.00  0.00    -0.018 C  
HETATM    2  C   UNL     1      -7.458   4.690  70.497  1.00  0.00    -0.053 C  
HETATM    3  C   UNL     1      -8.098   5.084  69.172  1.00  0.00    -0.083 C  
ENDROOT
BRANCH   2   4
HETATM    4  O   UNL     1      -8.256   3.638  71.069  1.00  0.00    -0.064 OA 
BRANCH   4   5
HETATM    5  C   UNL     1      -8.585   3.800  72.382  1.00  0.00    -0.090 C  
HETATM    6  O   UNL     1      -8.290   3.032  73.286  1.00  0.00    -0.074 OA 
BRANCH   5   7
HETATM    7  C   UNL     1      -9.415   5.045  72.556  1.00  0.00    -0.164 C  
BRANCH   7   8
HETATM    8  C   UNL     1     -10.677   4.977  71.700  1.00  0.00    -0.128 C  
BRANCH   8   9
HETATM    9  C   UNL     1     -11.830   5.702  72.389  1.00  0.00    -0.181 C  
BRANCH   9  10
HETATM   10  C   UNL     1     -12.558   6.621  71.452  1.00  0.00    -0.257 C  
HETATM   11  C   UNL     1     -12.319   7.932  71.291  1.00  0.00    -0.300 C  
BRANCH  11  12
HETATM   12  C   UNL     1     -11.277   8.743  72.016  1.00  0.00    -0.443 C  
BRANCH  12  13
HETATM   13  C   UNL     1     -10.925  10.012  71.232  1.00  0.00    -0.079 C  
HETATM   14  C   UNL     1      -9.846   9.818  70.159  1.00  0.00    -0.255 C  
HETATM   15  C   UNL     1     -10.022  11.043  69.274  1.00  0.00    -0.088 C  
HETATM   16  O   UNL     1     -10.090   8.655  69.369  1.00  0.00    -0.193 OA 
HETATM   17  C   UNL     1     -11.539  11.155  69.134  1.00  0.00    -0.324 C  
HETATM   18  H   UNL     1      -9.421   8.535  68.704  1.00  0.00     0.000 HD 
HETATM   19  C   UNL     1     -12.134  10.597  70.453  1.00  0.00    -0.430 C  
HETATM   20  O   UNL     1     -11.981  10.361  68.031  1.00  0.00    -0.706 OA 
HETATM   21  H   UNL     1     -12.924  10.432  67.943  1.00  0.00     0.000 HD 
BRANCH  19  22
HETATM   22  C   UNL     1     -12.915  11.647  71.218  1.00  0.00    -0.368 C  
HETATM   23  C   UNL     1     -12.436  12.851  71.584  1.00  0.00    -0.074 C  
BRANCH  23  24
HETATM   24  C   UNL     1     -13.251  13.944  72.234  1.00  0.00    -0.473 C  
HETATM   25  F   UNL     1     -12.528  14.529  73.229  1.00  0.00    -0.451 F  
HETATM   26  F   UNL     1     -14.349  13.398  72.823  1.00  0.00    -0.535 F  
BRANCH  24  27
HETATM   27  C   UNL     1     -13.689  15.014  71.222  1.00  0.00    -0.450 C  
BRANCH  27  28
HETATM   28  O   UNL     1     -12.637  15.964  70.996  1.00  0.00    -0.443 OA 
BRANCH  28  29
HETATM   29  C   UNL     1     -11.710  15.600  70.057  1.00  0.00    -0.357 A  
HETATM   30  C   UNL     1     -12.230  15.155  68.840  1.00  0.00    -0.138 A  
HETATM   31  C   UNL     1     -11.376  14.761  67.808  1.00  0.00    -0.344 A  
HETATM   32  C   UNL     1      -9.995  14.825  67.984  1.00  0.00    -0.218 A  
HETATM   33  C   UNL     1      -9.470  15.288  69.190  1.00  0.00    -0.236 A  
HETATM   34  C   UNL     1     -10.325  15.678  70.225  1.00  0.00    -0.205 A  
ENDBRANCH  28  29
ENDBRANCH  27  28
ENDBRANCH  24  27
ENDBRANCH  23  24
ENDBRANCH  19  22
ENDBRANCH  12  13
ENDBRANCH  11  12
ENDBRANCH   9  10
ENDBRANCH   8   9
ENDBRANCH   7   8
ENDBRANCH   5   7
ENDBRANCH   4   5
ENDBRANCH   2   4
TORSDOF 13
ENDMDL
MODEL      223
REMARK 921   NORMALIZED FREE ENERGY PREDICTED BY IDOCK:   -4.12 KCAL/MOL
REMARK 922        TOTAL FREE ENERGY PREDICTED BY IDOCK:  -10.08 KCAL/MOL
REMARK 923 INTER-LIGAND FREE ENERGY PREDICTED BY IDOCK:   -7.63 KCAL/MOL
REMARK 924 INTRA-LIGAND FREE ENERGY PREDICTED BY IDOCK:   -2.45 KCAL/MOL
REMARK 927      BINDING AFFINITY PREDICTED BY RF-SCORE:    0.00 PKD
ROOT
HETATM    1  C   UNL     1      -8.271   9.074  63.562  1.00  0.00    -0.178 C  
HETATM    2  C   UNL     1      -8.551  10.344  64.359  1.00  0.00    -0.179 C  
HETATM    3  C   UNL     1      -9.993  10.795  64.168  1.00  0.00    -0.405 C  
ENDROOT
BRANCH   2   4
HETATM    4  O   UNL     1      -8.359  10.081  65.760  1.00  0.00    -0.124 OA 
BRANCH   4   5
HETATM    5  C   UNL     1      -7.063  10.033  66.175  1.00  0.00    -0.108 C  
HETATM    6  O   UNL     1      -6.140  10.674  65.693  1.00  0.00    -0.126 OA 
BRANCH   5   7
HETATM    7  C   UNL     1      -6.914   9.031  67.290  1.00  0.00    -0.078 C  
BRANCH   7   8
HETATM    8  C   UNL     1      -8.007   9.223  68.339  1.00  0.00    -0.102 C  
BRANCH   8   9
HETATM    9  C   UNL     1      -7.416   9.786  69.629  1.00  0.00    -0.113 C  
BRANCH   9  10
HETATM   10  C   UNL     1      -7.156   8.713  70.645  1.00  0.00    -0.056 C  
HETATM   11  C   UNL     1      -7.937   8.416  71.695  1.00  0.00    -0.169 C  
BRANCH  11  12
HETATM   12  C   UNL     1      -9.227   9.100  72.066  1.00  0.00     0.235 C  
BRANCH  12  13
HETATM   13  C   UNL     1     -10.430   8.371  71.455  1.00  0.00    -0.305 C  
HETATM   14  C   UNL     1     -10.795   7.053  72.151  1.00  0.00    -0.224 C  
HETATM   15  C   UNL     1     -12.217   6.799  71.672  1.00  0.00    -0.410 C  
HETATM   16  O   UNL     1     -10.818   7.194  73.570  1.00  0.00    -0.483 OA 
HETATM   17  C   UNL     1     -12.869   8.178  71.771  1.00  0.00    -0.333 C  
HETATM   18  H   UNL     1     -11.045   6.377  74.001  1.00  0.00     0.000 HD 
HETATM   19  C   UNL     1     -11.736   9.206  71.513  1.00  0.00    -0.433 C  
HETATM   20  O   UNL     1     -13.401   8.365  73.084  1.00  0.00    -0.555 OA 
HETATM   21  H   UNL     1     -13.807   9.222  73.145  1.00  0.00     0.000 HD 
BRANCH  19  22
HETATM   22  C   UNL     1     -11.995  10.042  70.274  1.00  0.00    -0.264 C  
HETATM   23  C   UNL     1     -11.039  10.602  69.509  1.00  0.00    -0.328 C  
BRANCH  23  24
HETATM   24  C   UNL     1     -11.289  11.328  68.209  1.00  0.00    -0.289 C  
HETATM   25  F   UNL     1     -12.457  12.025  68.285  1.00  0.00    -0.150 F  
HETATM   26  F   UNL     1     -11.446  10.419  67.208  1.00  0.00    -0.332 F  
BRANCH  24  27
HETATM   27  C   UNL     1     -10.142  12.288  67.855  1.00  0.00    -0.200 C  
BRANCH  27  28
HETATM   28  O   UNL     1     -10.542  13.205  66.827  1.00  0.00    -0.261 OA 
BRANCH  28  29
HETATM   29  C   UNL     1     -10.097  14.490  66.981  1.00  0.00    -0.254 A  
HETATM   30  C   UNL     1     -10.803  15.265  67.903  1.00  0.00    -0.288 A  
HETATM   31  C   UNL     1     -10.434  16.590  68.143  1.00  0.00    -0.313 A  
HETATM   32  C   UNL     1      -9.346  17.142  67.471  1.00  0.00    -0.238 A  
HETATM   33  C   UNL     1      -8.624  16.368  66.565  1.00  0.00    -0.329 A  
HETATM   34  C   UNL     1      -8.996  15.043  66.320  1.00  0.00    -0.233 A  
ENDBRANCH  28  29
ENDBRANCH  27  28
ENDBRANCH  24  27
ENDBRANCH  23  24
ENDBRANCH  19  22
ENDBRANCH  12  13
ENDBRANCH  11  12
ENDBRANCH   9  10
ENDBRANCH   8   9
ENDBRANCH   7   8
ENDBRANCH   5   7
ENDBRANCH   4   5
ENDBRANCH   2   4
TORSDOF 13
ENDMDL
MODEL      224
REMARK 921   NORMALIZED FREE ENERGY PREDICTED BY IDOCK:   -4.11 KCAL/MOL
REMARK 922        TOTAL FREE ENERGY PREDICTED BY IDOCK:  -10.07 KCAL/MOL
REMARK 923 INTER-LIGAND FREE ENERGY PREDICTED BY IDOCK:   -7.99 KCAL/MOL
REMARK 924 INTRA-LIGAND FREE ENERGY PREDICTED BY IDOCK:   -2.08 KCAL/MOL
REMARK 927      BINDING AFFINITY PREDICTED BY RF-SCORE:    0.00 PKD
ROOT
HETATM    1  C   UNL     1     -11.803  15.747  64.389  1.00  0.00    -0.148 C  
HETATM    2  C   UNL     1     -10.829  14.700  64.920  1.00  0.00    -0.419 C  
HETATM    3  C   UNL     1      -9.635  15.366  65.592  1.00  0.00    -0.323 C  
ENDROOT
BRANCH   2   4
HETATM    4  O   UNL     1     -11.489  13.892  65.910  1.00  0.00    -0.313 OA 
BRANCH   4   5
HETATM    5  C   UNL     1     -12.084  12.760  65.439  1.00  0.00    -0.462 C  
HETATM    6  O   UNL     1     -13.276  12.634  65.197  1.00  0.00    -0.646 OA 
BRANCH   5   7
HETATM    7  C   UNL     1     -11.066  11.658  65.306  1.00  0.00    -0.298 C  
BRANCH   7   8
HETATM    8  C   UNL     1     -10.200  11.568  66.561  1.00  0.00    -0.253 C  
BRANCH   8   9
HETATM    9  C   UNL     1     -10.692  10.444  67.470  1.00  0.00    -0.339 C  
BRANCH   9  10
HETATM   10  C   UNL     1      -9.594   9.485  67.823  1.00  0.00    -0.156 C  
HETATM   11  C   UNL     1      -9.657   8.147  67.732  1.00  0.00    -0.180 C  
BRANCH  11  12
HETATM   12  C   UNL     1     -10.838   7.341  67.260  1.00  0.00    -0.354 C  
BRANCH  12  13
HETATM   13  C   UNL     1     -10.707   5.874  67.685  1.00  0.00    -0.352 C  
HETATM   14  C   UNL     1     -10.171   4.941  66.591  1.00  0.00    -0.255 C  
HETATM   15  C   UNL     1      -9.723   3.718  67.377  1.00  0.00    -0.143 C  
HETATM   16  O   UNL     1      -9.032   5.495  65.936  1.00  0.00    -0.149 OA 
HETATM   17  C   UNL     1      -9.014   4.324  68.588  1.00  0.00    -0.114 C  
HETATM   18  H   UNL     1      -8.700   4.917  65.258  1.00  0.00     0.000 HD 
HETATM   19  C   UNL     1      -9.726   5.673  68.870  1.00  0.00    -0.181 C  
HETATM   20  O   UNL     1      -7.640   4.559  68.274  1.00  0.00    -0.071 OA 
HETATM   21  H   UNL     1      -7.199   4.934  69.027  1.00  0.00     0.000 HD 
BRANCH  19  22
HETATM   22  C   UNL     1     -10.387   5.696  70.234  1.00  0.00    -0.336 C  
HETATM   23  C   UNL     1     -11.045   6.749  70.755  1.00  0.00    -0.323 C  
BRANCH  23  24
HETATM   24  C   UNL     1     -11.809   6.732  72.057  1.00  0.00    -0.314 C  
HETATM   25  F   UNL     1     -13.146   6.682  71.808  1.00  0.00    -0.384 F  
HETATM   26  F   UNL     1     -11.584   7.896  72.727  1.00  0.00    -0.381 F  
BRANCH  24  27
HETATM   27  C   UNL     1     -11.408   5.543  72.945  1.00  0.00    -0.291 C  
BRANCH  27  28
HETATM   28  O   UNL     1     -10.415   5.934  73.904  1.00  0.00    -0.252 OA 
BRANCH  28  29
HETATM   29  C   UNL     1      -9.121   5.652  73.558  1.00  0.00    -0.131 A  
HETATM   30  C   UNL     1      -8.258   6.749  73.518  1.00  0.00    -0.124 A  
HETATM   31  C   UNL     1      -6.914   6.579  73.179  1.00  0.00    -0.077 A  
HETATM   32  C   UNL     1      -6.424   5.306  72.893  1.00  0.00    -0.060 A  
HETATM   33  C   UNL     1      -7.276   4.204  72.952  1.00  0.00    -0.068 A  
HETATM   34  C   UNL     1      -8.623   4.375  73.285  1.00  0.00    -0.097 A  
ENDBRANCH  28  29
ENDBRANCH  27  28
ENDBRANCH  24  27
ENDBRANCH  23  24
ENDBRANCH  19  22
ENDBRANCH  12  13
ENDBRANCH  11  12
ENDBRANCH   9  10
ENDBRANCH   8   9
ENDBRANCH   7   8
ENDBRANCH   5   7
ENDBRANCH   4   5
ENDBRANCH   2   4
TORSDOF 13
ENDMDL
MODEL      225
REMARK 921   NORMALIZED FREE ENERGY PREDICTED BY IDOCK:   -4.11 KCAL/MOL
REMARK 922        TOTAL FREE ENERGY PREDICTED BY IDOCK:  -10.07 KCAL/MOL
REMARK 923 INTER-LIGAND FREE ENERGY PREDICTED BY IDOCK:   -8.06 KCAL/MOL
REMARK 924 INTRA-LIGAND FREE ENERGY PREDICTED BY IDOCK:   -2.01 KCAL/MOL
REMARK 927      BINDING AFFINITY PREDICTED BY RF-SCORE:    0.00 PKD
ROOT
HETATM    1  C   UNL     1     -10.872   9.892  70.810  1.00  0.00    -0.387 C  
HETATM    2  C   UNL     1     -11.796   9.139  71.762  1.00  0.00    -0.383 C  
HETATM    3  C   UNL     1     -13.195   9.742  71.747  1.00  0.00    -0.532 C  
ENDROOT
BRANCH   2   4
HETATM    4  O   UNL     1     -11.908   7.770  71.334  1.00  0.00    -0.283 OA 
BRANCH   4   5
HETATM    5  C   UNL     1     -10.954   6.925  71.818  1.00  0.00    -0.230 C  
HETATM    6  O   UNL     1     -10.732   6.711  73.001  1.00  0.00    -0.238 OA 
BRANCH   5   7
HETATM    7  C   UNL     1     -10.171   6.325  70.680  1.00  0.00    -0.240 C  
BRANCH   7   8
HETATM    8  C   UNL     1     -11.046   6.184  69.436  1.00  0.00    -0.479 C  
BRANCH   8   9
HETATM    9  C   UNL     1     -10.497   7.038  68.297  1.00  0.00    -0.237 C  
BRANCH   9  10
HETATM   10  C   UNL     1      -9.198   7.695  68.661  1.00  0.00    -0.141 C  
HETATM   11  C   UNL     1      -8.094   7.735  67.898  1.00  0.00    -0.126 C  
BRANCH  11  12
HETATM   12  C   UNL     1      -7.936   7.129  66.528  1.00  0.00    -0.112 C  
BRANCH  12  13
HETATM   13  C   UNL     1      -7.395   8.161  65.531  1.00  0.00    -0.072 C  
HETATM   14  C   UNL     1      -6.514   7.571  64.421  1.00  0.00    -0.048 C  
HETATM   15  C   UNL     1      -6.505   8.675  63.374  1.00  0.00    -0.089 C  
HETATM   16  O   UNL     1      -7.102   6.408  63.842  1.00  0.00    -0.045 OA 
HETATM   17  C   UNL     1      -7.963   9.130  63.335  1.00  0.00    -0.148 C  
HETATM   18  H   UNL     1      -6.557   6.044  63.154  1.00  0.00     0.000 HD 
HETATM   19  C   UNL     1      -8.518   8.911  64.767  1.00  0.00    -0.193 C  
HETATM   20  O   UNL     1      -8.694   8.327  62.406  1.00  0.00    -0.407 OA 
HETATM   21  H   UNL     1      -9.600   8.611  62.381  1.00  0.00     0.000 HD 
BRANCH  19  22
HETATM   22  C   UNL     1      -8.950  10.211  65.418  1.00  0.00    -0.208 C  
HETATM   23  C   UNL     1     -10.122  10.404  66.052  1.00  0.00    -0.307 C  
BRANCH  23  24
HETATM   24  C   UNL     1     -10.500  11.656  66.806  1.00  0.00    -0.230 C  
HETATM   25  F   UNL     1      -9.466  12.542  66.779  1.00  0.00    -0.203 F  
HETATM   26  F   UNL     1     -10.710  11.347  68.115  1.00  0.00    -0.186 F  
BRANCH  24  27
HETATM   27  C   UNL     1     -11.759  12.320  66.226  1.00  0.00    -0.366 C  
BRANCH  27  28
HETATM   28  O   UNL     1     -12.473  13.037  67.243  1.00  0.00    -0.209 OA 
BRANCH  28  29
HETATM   29  C   UNL     1     -11.790  14.075  67.818  1.00  0.00    -0.384 A  
HETATM   30  C   UNL     1     -11.793  14.096  69.214  1.00  0.00    -0.381 A  
HETATM   31  C   UNL     1     -11.125  15.108  69.908  1.00  0.00    -0.302 A  
HETATM   32  C   UNL     1     -10.438  16.096  69.206  1.00  0.00    -0.267 A  
HETATM   33  C   UNL     1     -10.414  16.068  67.812  1.00  0.00    -0.298 A  
HETATM   34  C   UNL     1     -11.087  15.059  67.117  1.00  0.00    -0.332 A  
ENDBRANCH  28  29
ENDBRANCH  27  28
ENDBRANCH  24  27
ENDBRANCH  23  24
ENDBRANCH  19  22
ENDBRANCH  12  13
ENDBRANCH  11  12
ENDBRANCH   9  10
ENDBRANCH   8   9
ENDBRANCH   7   8
ENDBRANCH   5   7
ENDBRANCH   4   5
ENDBRANCH   2   4
TORSDOF 13
ENDMDL
MODEL      226
REMARK 921   NORMALIZED FREE ENERGY PREDICTED BY IDOCK:   -4.11 KCAL/MOL
REMARK 922        TOTAL FREE ENERGY PREDICTED BY IDOCK:  -10.07 KCAL/MOL
REMARK 923 INTER-LIGAND FREE ENERGY PREDICTED BY IDOCK:   -6.92 KCAL/MOL
REMARK 924 INTRA-LIGAND FREE ENERGY PREDICTED BY IDOCK:   -3.15 KCAL/MOL
REMARK 927      BINDING AFFINITY PREDICTED BY RF-SCORE:    0.00 PKD
ROOT
HETATM    1  C   UNL     1     -10.466   3.853  64.173  1.00  0.00    -0.246 C  
HETATM    2  C   UNL     1      -9.862   3.886  65.573  1.00  0.00    -0.156 C  
HETATM    3  C   UNL     1      -8.496   3.212  65.589  1.00  0.00    -0.108 C  
ENDROOT
BRANCH   2   4
HETATM    4  O   UNL     1      -9.676   5.253  65.980  1.00  0.00    -0.158 OA 
BRANCH   4   5
HETATM    5  C   UNL     1     -10.524   5.696  66.951  1.00  0.00    -0.288 C  
HETATM    6  O   UNL     1     -11.551   6.330  66.759  1.00  0.00     0.081 OA 
BRANCH   5   7
HETATM    7  C   UNL     1      -9.986   5.333  68.310  1.00  0.00    -0.214 C  
BRANCH   7   8
HETATM    8  C   UNL     1      -8.520   5.740  68.437  1.00  0.00    -0.110 C  
BRANCH   8   9
HETATM    9  C   UNL     1      -8.405   7.222  68.786  1.00  0.00    -0.129 C  
BRANCH   9  10
HETATM   10  C   UNL     1      -7.502   7.955  67.837  1.00  0.00    -0.104 C  
HETATM   11  C   UNL     1      -7.887   8.859  66.923  1.00  0.00    -0.101 C  
BRANCH  11  12
HETATM   12  C   UNL     1      -9.298   9.318  66.664  1.00  0.00    -0.219 C  
BRANCH  12  13
HETATM   13  C   UNL     1      -9.620  10.582  67.469  1.00  0.00    -0.181 C  
HETATM   14  C   UNL     1      -8.962  11.862  66.935  1.00  0.00    -0.196 C  
HETATM   15  C   UNL     1      -9.778  12.964  67.595  1.00  0.00    -0.212 C  
HETATM   16  O   UNL     1      -9.109  11.980  65.521  1.00  0.00    -0.426 OA 
HETATM   17  C   UNL     1     -11.215  12.464  67.454  1.00  0.00    -0.297 C  
HETATM   18  H   UNL     1      -8.702  12.773  65.191  1.00  0.00     0.000 HD 
HETATM   19  C   UNL     1     -11.136  10.916  67.492  1.00  0.00    -0.375 C  
HETATM   20  O   UNL     1     -11.753  12.891  66.201  1.00  0.00    -0.355 OA 
HETATM   21  H   UNL     1     -12.646  12.581  66.114  1.00  0.00     0.000 HD 
BRANCH  19  22
HETATM   22  C   UNL     1     -11.882  10.334  68.677  1.00  0.00     0.164 C  
HETATM   23  C   UNL     1     -11.702  10.703  69.959  1.00  0.00    -0.405 C  
BRANCH  23  24
HETATM   24  C   UNL     1     -12.531  10.214  71.122  1.00  0.00    -0.387 C  
HETATM   25  F   UNL     1     -13.722   9.732  70.672  1.00  0.00    -0.347 F  
HETATM   26  F   UNL     1     -12.822  11.262  71.940  1.00  0.00    -0.497 F  
BRANCH  24  27
HETATM   27  C   UNL     1     -11.807   9.121  71.926  1.00  0.00    -0.369 C  
BRANCH  27  28
HETATM   28  O   UNL     1     -10.388   9.337  71.917  1.00  0.00    -0.286 OA 
BRANCH  28  29
HETATM   29  C   UNL     1      -9.622   8.206  72.005  1.00  0.00    -0.219 A  
HETATM   30  C   UNL     1     -10.320   7.000  71.914  1.00  0.00    -0.213 A  
HETATM   31  C   UNL     1      -9.640   5.782  71.988  1.00  0.00    -0.170 A  
HETATM   32  C   UNL     1      -8.255   5.767  72.139  1.00  0.00    -0.112 A  
HETATM   33  C   UNL     1      -7.551   6.968  72.210  1.00  0.00    -0.090 A  
HETATM   34  C   UNL     1      -8.232   8.187  72.142  1.00  0.00    -0.197 A  
ENDBRANCH  28  29
ENDBRANCH  27  28
ENDBRANCH  24  27
ENDBRANCH  23  24
ENDBRANCH  19  22
ENDBRANCH  12  13
ENDBRANCH  11  12
ENDBRANCH   9  10
ENDBRANCH   8   9
ENDBRANCH   7   8
ENDBRANCH   5   7
ENDBRANCH   4   5
ENDBRANCH   2   4
TORSDOF 13
ENDMDL
MODEL      227
REMARK 921   NORMALIZED FREE ENERGY PREDICTED BY IDOCK:   -4.11 KCAL/MOL
REMARK 922        TOTAL FREE ENERGY PREDICTED BY IDOCK:  -10.06 KCAL/MOL
REMARK 923 INTER-LIGAND FREE ENERGY PREDICTED BY IDOCK:   -9.07 KCAL/MOL
REMARK 924 INTRA-LIGAND FREE ENERGY PREDICTED BY IDOCK:   -1.00 KCAL/MOL
REMARK 927      BINDING AFFINITY PREDICTED BY RF-SCORE:    0.00 PKD
ROOT
HETATM    1  C   UNL     1      -9.393   3.391  71.834  1.00  0.00    -0.193 C  
HETATM    2  C   UNL     1     -10.213   4.577  72.329  1.00  0.00    -0.192 C  
HETATM    3  C   UNL     1      -9.751   5.014  73.714  1.00  0.00    -0.151 C  
ENDROOT
BRANCH   2   4
HETATM    4  O   UNL     1     -10.029   5.691  71.438  1.00  0.00    -0.175 OA 
BRANCH   4   5
HETATM    5  C   UNL     1     -11.092   6.536  71.329  1.00  0.00    -0.273 C  
HETATM    6  O   UNL     1     -12.101   6.325  70.671  1.00  0.00    -0.196 OA 
BRANCH   5   7
HETATM    7  C   UNL     1     -10.826   7.802  72.099  1.00  0.00    -0.310 C  
BRANCH   7   8
HETATM    8  C   UNL     1     -10.603   8.977  71.148  1.00  0.00    -0.361 C  
BRANCH   8   9
HETATM    9  C   UNL     1     -11.898   9.326  70.417  1.00  0.00    -0.097 C  
BRANCH   9  10
HETATM   10  C   UNL     1     -11.707  10.448  69.440  1.00  0.00    -0.231 C  
HETATM   11  C   UNL     1     -11.830  11.757  69.711  1.00  0.00    -0.420 C  
BRANCH  11  12
HETATM   12  C   UNL     1     -12.183  12.362  71.044  1.00  0.00    -0.201 C  
BRANCH  12  13
HETATM   13  C   UNL     1     -12.755  13.774  70.872  1.00  0.00    -0.394 C  
HETATM   14  C   UNL     1     -13.871  14.133  71.863  1.00  0.00    -0.451 C  
HETATM   15  C   UNL     1     -13.923  15.651  71.780  1.00  0.00    -0.451 C  
HETATM   16  O   UNL     1     -13.530  13.767  73.198  1.00  0.00    -0.504 OA 
HETATM   17  C   UNL     1     -12.447  16.049  71.775  1.00  0.00    -0.401 C  
HETATM   18  H   UNL     1     -14.221  13.990  73.811  1.00  0.00     0.000 HD 
HETATM   19  C   UNL     1     -11.693  14.886  71.078  1.00  0.00    -0.376 C  
HETATM   20  O   UNL     1     -11.981  16.191  73.118  1.00  0.00    -0.480 OA 
HETATM   21  H   UNL     1     -11.064  16.439  73.114  1.00  0.00     0.000 HD 
BRANCH  19  22
HETATM   22  C   UNL     1     -11.008  15.333  69.801  1.00  0.00    -0.295 C  
HETATM   23  C   UNL     1     -11.565  16.118  68.860  1.00  0.00    -0.298 C  
BRANCH  23  24
HETATM   24  C   UNL     1     -10.842  16.665  67.652  1.00  0.00    -0.258 C  
HETATM   25  F   UNL     1     -11.392  17.855  67.284  1.00  0.00    -0.120 F  
HETATM   26  F   UNL     1     -11.014  15.817  66.602  1.00  0.00    -0.319 F  
BRANCH  24  27
HETATM   27  C   UNL     1      -9.340  16.856  67.918  1.00  0.00    -0.238 C  
BRANCH  27  28
HETATM   28  O   UNL     1      -9.012  18.250  68.009  1.00  0.00    -0.277 OA 
BRANCH  28  29
HETATM   29  C   UNL     1      -7.770  18.528  68.514  1.00  0.00    -0.308 A  
HETATM   30  C   UNL     1      -7.202  17.524  69.301  1.00  0.00    -0.088 A  
HETATM   31  C   UNL     1      -5.936  17.698  69.865  1.00  0.00    -0.221 A  
HETATM   32  C   UNL     1      -5.226  18.873  69.631  1.00  0.00    -0.193 A  
HETATM   33  C   UNL     1      -5.779  19.871  68.829  1.00  0.00    -0.260 A  
HETATM   34  C   UNL     1      -7.048  19.699  68.269  1.00  0.00    -0.337 A  
ENDBRANCH  28  29
ENDBRANCH  27  28
ENDBRANCH  24  27
ENDBRANCH  23  24
ENDBRANCH  19  22
ENDBRANCH  12  13
ENDBRANCH  11  12
ENDBRANCH   9  10
ENDBRANCH   8   9
ENDBRANCH   7   8
ENDBRANCH   5   7
ENDBRANCH   4   5
ENDBRANCH   2   4
TORSDOF 13
ENDMDL
MODEL      228
REMARK 921   NORMALIZED FREE ENERGY PREDICTED BY IDOCK:   -4.09 KCAL/MOL
REMARK 922        TOTAL FREE ENERGY PREDICTED BY IDOCK:  -10.03 KCAL/MOL
REMARK 923 INTER-LIGAND FREE ENERGY PREDICTED BY IDOCK:   -8.69 KCAL/MOL
REMARK 924 INTRA-LIGAND FREE ENERGY PREDICTED BY IDOCK:   -1.34 KCAL/MOL
REMARK 927      BINDING AFFINITY PREDICTED BY RF-SCORE:    0.00 PKD
ROOT
HETATM    1  C   UNL     1      -5.210   8.248  63.762  1.00  0.00    -0.048 C  
HETATM    2  C   UNL     1      -5.130   8.724  65.209  1.00  0.00    -0.037 C  
HETATM    3  C   UNL     1      -5.394  10.222  65.299  1.00  0.00    -0.089 C  
ENDROOT
BRANCH   2   4
HETATM    4  O   UNL     1      -6.139   8.057  65.988  1.00  0.00    -0.040 OA 
BRANCH   4   5
HETATM    5  C   UNL     1      -7.348   8.684  66.040  1.00  0.00    -0.085 C  
HETATM    6  O   UNL     1      -8.078   8.897  65.082  1.00  0.00    -0.118 OA 
BRANCH   5   7
HETATM    7  C   UNL     1      -7.640   9.127  67.449  1.00  0.00    -0.085 C  
BRANCH   7   8
HETATM    8  C   UNL     1      -9.028   9.758  67.540  1.00  0.00    -0.138 C  
BRANCH   8   9
HETATM    9  C   UNL     1     -10.056   8.725  67.995  1.00  0.00    -0.241 C  
BRANCH   9  10
HETATM   10  C   UNL     1      -9.420   7.588  68.741  1.00  0.00    -0.148 C  
HETATM   11  C   UNL     1      -9.470   7.392  70.068  1.00  0.00    -0.161 C  
BRANCH  11  12
HETATM   12  C   UNL     1     -10.170   8.268  71.073  1.00  0.00    -0.230 C  
BRANCH  12  13
HETATM   13  C   UNL     1     -11.684   8.271  70.837  1.00  0.00    -0.256 C  
HETATM   14  C   UNL     1     -12.419   7.050  71.406  1.00  0.00    -0.384 C  
HETATM   15  C   UNL     1     -13.868   7.513  71.444  1.00  0.00    -0.439 C  
HETATM   16  O   UNL     1     -12.006   6.758  72.739  1.00  0.00    -0.485 OA 
HETATM   17  C   UNL     1     -13.764   8.938  71.986  1.00  0.00    -0.459 C  
HETATM   18  H   UNL     1     -12.462   6.002  73.091  1.00  0.00     0.000 HD 
HETATM   19  C   UNL     1     -12.397   9.483  71.495  1.00  0.00    -0.465 C  
HETATM   20  O   UNL     1     -13.790   8.913  73.415  1.00  0.00    -1.192 OA 
HETATM   21  H   UNL     1     -13.725   9.799  73.751  1.00  0.00     0.000 HD 
BRANCH  19  22
HETATM   22  C   UNL     1     -12.554  10.682  70.581  1.00  0.00    -0.454 C  
HETATM   23  C   UNL     1     -11.537  11.378  70.039  1.00  0.00    -0.382 C  
BRANCH  23  24
HETATM   24  C   UNL     1     -11.693  12.492  69.032  1.00  0.00    -0.318 C  
HETATM   25  F   UNL     1     -12.517  13.454  69.530  1.00  0.00    -0.310 F  
HETATM   26  F   UNL     1     -12.296  12.007  67.913  1.00  0.00    -0.261 F  
BRANCH  24  27
HETATM   27  C   UNL     1     -10.341  13.120  68.655  1.00  0.00    -0.196 C  
BRANCH  27  28
HETATM   28  O   UNL     1     -10.430  13.809  67.399  1.00  0.00    -0.253 OA 
BRANCH  28  29
HETATM   29  C   UNL     1      -9.665  14.939  67.294  1.00  0.00    -0.228 A  
HETATM   30  C   UNL     1      -9.587  15.721  68.448  1.00  0.00    -0.200 A  
HETATM   31  C   UNL     1      -8.832  16.896  68.456  1.00  0.00    -0.251 A  
HETATM   32  C   UNL     1      -8.138  17.285  67.313  1.00  0.00    -0.210 A  
HETATM   33  C   UNL     1      -8.195  16.497  66.164  1.00  0.00    -0.279 A  
HETATM   34  C   UNL     1      -8.956  15.324  66.153  1.00  0.00    -0.251 A  
ENDBRANCH  28  29
ENDBRANCH  27  28
ENDBRANCH  24  27
ENDBRANCH  23  24
ENDBRANCH  19  22
ENDBRANCH  12  13
ENDBRANCH  11  12
ENDBRANCH   9  10
ENDBRANCH   8   9
ENDBRANCH   7   8
ENDBRANCH   5   7
ENDBRANCH   4   5
ENDBRANCH   2   4
TORSDOF 13
ENDMDL
MODEL      229
REMARK 921   NORMALIZED FREE ENERGY PREDICTED BY IDOCK:   -4.08 KCAL/MOL
REMARK 922        TOTAL FREE ENERGY PREDICTED BY IDOCK:  -10.02 KCAL/MOL
REMARK 923 INTER-LIGAND FREE ENERGY PREDICTED BY IDOCK:   -7.06 KCAL/MOL
REMARK 924 INTRA-LIGAND FREE ENERGY PREDICTED BY IDOCK:   -2.96 KCAL/MOL
REMARK 927      BINDING AFFINITY PREDICTED BY RF-SCORE:    0.00 PKD
ROOT
HETATM    1  C   UNL     1      -8.415  14.596  68.669  1.00  0.00    -0.164 C  
HETATM    2  C   UNL     1      -6.946  14.206  68.543  1.00  0.00    -0.104 C  
HETATM    3  C   UNL     1      -6.234  15.098  67.534  1.00  0.00    -0.079 C  
ENDROOT
BRANCH   2   4
HETATM    4  O   UNL     1      -6.295  14.381  69.813  1.00  0.00    -0.126 OA 
BRANCH   4   5
HETATM    5  C   UNL     1      -5.882  13.235  70.423  1.00  0.00    -0.161 C  
HETATM    6  O   UNL     1      -5.573  13.131  71.602  1.00  0.00    -0.376 OA 
BRANCH   5   7
HETATM    7  C   UNL     1      -5.809  12.114  69.420  1.00  0.00    -0.087 C  
BRANCH   7   8
HETATM    8  C   UNL     1      -6.503  10.864  69.956  1.00  0.00    -0.151 C  
BRANCH   8   9
HETATM    9  C   UNL     1      -7.944  10.796  69.454  1.00  0.00    -0.075 C  
BRANCH   9  10
HETATM   10  C   UNL     1      -8.013  10.562  67.973  1.00  0.00    -0.106 C  
HETATM   11  C   UNL     1      -8.138   9.370  67.370  1.00  0.00    -0.110 C  
BRANCH  11  12
HETATM   12  C   UNL     1      -8.231   8.031  68.053  1.00  0.00    -0.129 C  
BRANCH  12  13
HETATM   13  C   UNL     1      -9.557   7.337  67.722  1.00  0.00    -0.158 C  
HETATM   14  C   UNL     1      -9.598   6.667  66.342  1.00  0.00    -0.096 C  
HETATM   15  C   UNL     1     -10.778   5.715  66.461  1.00  0.00    -0.296 C  
HETATM   16  O   UNL     1      -8.423   5.897  66.094  1.00  0.00    -0.122 OA 
HETATM   17  C   UNL     1     -10.590   5.100  67.848  1.00  0.00     0.047 C  
HETATM   18  H   UNL     1      -8.449   5.482  65.239  1.00  0.00     0.000 HD 
HETATM   19  C   UNL     1      -9.904   6.191  68.710  1.00  0.00    -0.160 C  
HETATM   20  O   UNL     1      -9.743   3.953  67.755  1.00  0.00    -0.168 OA 
HETATM   21  H   UNL     1      -9.627   3.570  68.617  1.00  0.00     0.000 HD 
BRANCH  19  22
HETATM   22  C   UNL     1     -10.766   6.621  69.881  1.00  0.00    -0.297 C  
HETATM   23  C   UNL     1     -10.853   7.878  70.355  1.00  0.00    -0.244 C  
BRANCH  23  24
HETATM   24  C   UNL     1     -11.804   8.330  71.437  1.00  0.00    -0.293 C  
HETATM   25  F   UNL     1     -11.106   8.650  72.562  1.00  0.00    -0.415 F  
HETATM   26  F   UNL     1     -12.627   7.299  71.773  1.00  0.00    -0.323 F  
BRANCH  24  27
HETATM   27  C   UNL     1     -12.646   9.538  70.996  1.00  0.00    -0.253 C  
BRANCH  27  28
HETATM   28  O   UNL     1     -11.958  10.767  71.270  1.00  0.00    -0.304 OA 
BRANCH  28  29
HETATM   29  C   UNL     1     -11.900  11.651  70.227  1.00  0.00    -0.326 A  
HETATM   30  C   UNL     1     -11.668  11.085  68.972  1.00  0.00    -0.402 A  
HETATM   31  C   UNL     1     -11.591  11.893  67.835  1.00  0.00    -0.393 A  
HETATM   32  C   UNL     1     -11.762  13.271  67.947  1.00  0.00    -0.395 A  
HETATM   33  C   UNL     1     -12.015  13.839  69.194  1.00  0.00    -0.403 A  
HETATM   34  C   UNL     1     -12.086  13.032  70.333  1.00  0.00    -0.391 A  
ENDBRANCH  28  29
ENDBRANCH  27  28
ENDBRANCH  24  27
ENDBRANCH  23  24
ENDBRANCH  19  22
ENDBRANCH  12  13
ENDBRANCH  11  12
ENDBRANCH   9  10
ENDBRANCH   8   9
ENDBRANCH   7   8
ENDBRANCH   5   7
ENDBRANCH   4   5
ENDBRANCH   2   4
TORSDOF 13
ENDMDL
MODEL      230
REMARK 921   NORMALIZED FREE ENERGY PREDICTED BY IDOCK:   -4.08 KCAL/MOL
REMARK 922        TOTAL FREE ENERGY PREDICTED BY IDOCK:  -10.02 KCAL/MOL
REMARK 923 INTER-LIGAND FREE ENERGY PREDICTED BY IDOCK:   -8.49 KCAL/MOL
REMARK 924 INTRA-LIGAND FREE ENERGY PREDICTED BY IDOCK:   -1.53 KCAL/MOL
REMARK 927      BINDING AFFINITY PREDICTED BY RF-SCORE:    0.00 PKD
ROOT
HETATM    1  C   UNL     1     -10.070  12.531  67.920  1.00  0.00    -0.214 C  
HETATM    2  C   UNL     1     -11.452  12.888  67.382  1.00  0.00    -0.336 C  
HETATM    3  C   UNL     1     -12.109  13.956  68.247  1.00  0.00    -0.322 C  
ENDROOT
BRANCH   2   4
HETATM    4  O   UNL     1     -11.324  13.423  66.053  1.00  0.00    -0.301 OA 
BRANCH   4   5
HETATM    5  C   UNL     1     -11.830  12.643  65.057  1.00  0.00    -0.395 C  
HETATM    6  O   UNL     1     -13.014  12.539  64.770  1.00  0.00    -0.827 OA 
BRANCH   5   7
HETATM    7  C   UNL     1     -10.720  11.880  64.384  1.00  0.00    -0.373 C  
BRANCH   7   8
HETATM    8  C   UNL     1     -10.405  10.596  65.149  1.00  0.00    -0.331 C  
BRANCH   8   9
HETATM    9  C   UNL     1      -8.913  10.283  65.076  1.00  0.00    -0.225 C  
BRANCH   9  10
HETATM   10  C   UNL     1      -8.592   9.328  63.963  1.00  0.00    -0.204 C  
HETATM   11  C   UNL     1      -8.102   8.087  64.107  1.00  0.00    -0.102 C  
BRANCH  11  12
HETATM   12  C   UNL     1      -7.775   7.404  65.409  1.00  0.00    -0.110 C  
BRANCH  12  13
HETATM   13  C   UNL     1      -8.411   6.011  65.473  1.00  0.00    -0.151 C  
HETATM   14  C   UNL     1      -8.217   5.164  64.208  1.00  0.00    -0.131 C  
HETATM   15  C   UNL     1      -8.518   3.754  64.694  1.00  0.00    -0.097 C  
HETATM   16  O   UNL     1      -6.868   5.202  63.749  1.00  0.00    -0.044 OA 
HETATM   17  C   UNL     1      -7.799   3.689  66.041  1.00  0.00    -0.089 C  
HETATM   18  H   UNL     1      -6.748   4.677  62.965  1.00  0.00     0.000 HD 
HETATM   19  C   UNL     1      -7.829   5.131  66.611  1.00  0.00    -0.100 C  
HETATM   20  O   UNL     1      -6.445   3.276  65.844  1.00  0.00    -0.031 OA 
HETATM   21  H   UNL     1      -5.998   3.235  66.681  1.00  0.00     0.000 HD 
BRANCH  19  22
HETATM   22  C   UNL     1      -8.599   5.214  67.915  1.00  0.00    -0.103 C  
HETATM   23  C   UNL     1      -9.500   6.167  68.220  1.00  0.00    -0.117 C  
BRANCH  23  24
HETATM   24  C   UNL     1     -10.356   6.180  69.463  1.00  0.00    -0.219 C  
HETATM   25  F   UNL     1     -10.459   4.919  69.967  1.00  0.00    -0.334 F  
HETATM   26  F   UNL     1     -11.618   6.571  69.138  1.00  0.00    -0.372 F  
BRANCH  24  27
HETATM   27  C   UNL     1      -9.790   7.117  70.542  1.00  0.00    -0.179 C  
BRANCH  27  28
HETATM   28  O   UNL     1      -9.978   8.491  70.174  1.00  0.00    -0.177 OA 
BRANCH  28  29
HETATM   29  C   UNL     1     -11.029   9.123  70.783  1.00  0.00    -0.270 A  
HETATM   30  C   UNL     1     -11.291  10.420  70.336  1.00  0.00    -0.417 A  
HETATM   31  C   UNL     1     -12.342  11.158  70.885  1.00  0.00    -0.500 A  
HETATM   32  C   UNL     1     -13.145  10.596  71.875  1.00  0.00    -0.563 A  
HETATM   33  C   UNL     1     -12.901   9.294  72.311  1.00  0.00    -0.459 A  
HETATM   34  C   UNL     1     -11.846   8.557  71.766  1.00  0.00    -0.395 A  
ENDBRANCH  28  29
ENDBRANCH  27  28
ENDBRANCH  24  27
ENDBRANCH  23  24
ENDBRANCH  19  22
ENDBRANCH  12  13
ENDBRANCH  11  12
ENDBRANCH   9  10
ENDBRANCH   8   9
ENDBRANCH   7   8
ENDBRANCH   5   7
ENDBRANCH   4   5
ENDBRANCH   2   4
TORSDOF 13
ENDMDL
MODEL      231
REMARK 921   NORMALIZED FREE ENERGY PREDICTED BY IDOCK:   -4.08 KCAL/MOL
REMARK 922        TOTAL FREE ENERGY PREDICTED BY IDOCK:  -10.01 KCAL/MOL
REMARK 923 INTER-LIGAND FREE ENERGY PREDICTED BY IDOCK:   -7.96 KCAL/MOL
REMARK 924 INTRA-LIGAND FREE ENERGY PREDICTED BY IDOCK:   -2.05 KCAL/MOL
REMARK 927      BINDING AFFINITY PREDICTED BY RF-SCORE:    0.00 PKD
ROOT
HETATM    1  C   UNL     1     -13.332   9.887  72.034  1.00  0.00    -0.532 C  
HETATM    2  C   UNL     1     -13.134   8.382  72.185  1.00  0.00    -0.328 C  
HETATM    3  C   UNL     1     -14.250   7.617  71.484  1.00  0.00    -0.564 C  
ENDROOT
BRANCH   2   4
HETATM    4  O   UNL     1     -11.891   8.000  71.569  1.00  0.00    -0.275 OA 
BRANCH   4   5
HETATM    5  C   UNL     1     -10.970   7.445  72.405  1.00  0.00    -0.275 C  
HETATM    6  O   UNL     1     -10.491   7.987  73.392  1.00  0.00    -0.219 OA 
BRANCH   5   7
HETATM    7  C   UNL     1     -10.582   6.077  71.911  1.00  0.00    -0.272 C  
BRANCH   7   8
HETATM    8  C   UNL     1      -9.814   6.175  70.594  1.00  0.00    -0.214 C  
BRANCH   8   9
HETATM    9  C   UNL     1     -10.535   5.395  69.497  1.00  0.00    -0.343 C  
BRANCH   9  10
HETATM   10  C   UNL     1     -11.163   6.304  68.481  1.00  0.00    -0.305 C  
HETATM   11  C   UNL     1     -11.027   6.209  67.149  1.00  0.00    -0.420 C  
BRANCH  11  12
HETATM   12  C   UNL     1     -10.219   5.176  66.407  1.00  0.00    -0.303 C  
BRANCH  12  13
HETATM   13  C   UNL     1      -8.727   5.523  66.436  1.00  0.00    -0.123 C  
HETATM   14  C   UNL     1      -7.797   4.316  66.621  1.00  0.00    -0.098 C  
HETATM   15  C   UNL     1      -6.448   4.854  66.167  1.00  0.00    -0.044 C  
HETATM   16  O   UNL     1      -8.160   3.234  65.766  1.00  0.00    -0.091 OA 
HETATM   17  C   UNL     1      -6.795   5.644  64.906  1.00  0.00    -0.051 C  
HETATM   18  H   UNL     1      -7.583   2.487  65.881  1.00  0.00     0.000 HD 
HETATM   19  C   UNL     1      -8.233   6.184  65.122  1.00  0.00    -0.141 C  
HETATM   20  O   UNL     1      -6.771   4.775  63.771  1.00  0.00    -0.040 OA 
HETATM   21  H   UNL     1      -6.986   5.266  62.987  1.00  0.00     0.000 HD 
BRANCH  19  22
HETATM   22  C   UNL     1      -8.278   7.700  65.134  1.00  0.00    -0.130 C  
HETATM   23  C   UNL     1      -8.350   8.461  66.243  1.00  0.00    -0.123 C  
BRANCH  23  24
HETATM   24  C   UNL     1      -8.269   9.968  66.263  1.00  0.00    -0.124 C  
HETATM   25  F   UNL     1      -8.234  10.446  64.988  1.00  0.00    -0.148 F  
HETATM   26  F   UNL     1      -7.103  10.349  66.851  1.00  0.00    -0.084 F  
BRANCH  24  27
HETATM   27  C   UNL     1      -9.453  10.598  67.014  1.00  0.00    -0.164 C  
BRANCH  27  28
HETATM   28  O   UNL     1     -10.633  10.600  66.196  1.00  0.00    -0.219 OA 
BRANCH  28  29
HETATM   29  C   UNL     1     -11.257  11.812  66.070  1.00  0.00    -0.296 A  
HETATM   30  C   UNL     1     -11.464  12.508  67.263  1.00  0.00    -0.416 A  
HETATM   31  C   UNL     1     -12.090  13.757  67.253  1.00  0.00    -0.393 A  
HETATM   32  C   UNL     1     -12.497  14.322  66.047  1.00  0.00    -0.392 A  
HETATM   33  C   UNL     1     -12.274  13.641  64.851  1.00  0.00    -0.447 A  
HETATM   34  C   UNL     1     -11.654  12.388  64.860  1.00  0.00    -0.392 A  
ENDBRANCH  28  29
ENDBRANCH  27  28
ENDBRANCH  24  27
ENDBRANCH  23  24
ENDBRANCH  19  22
ENDBRANCH  12  13
ENDBRANCH  11  12
ENDBRANCH   9  10
ENDBRANCH   8   9
ENDBRANCH   7   8
ENDBRANCH   5   7
ENDBRANCH   4   5
ENDBRANCH   2   4
TORSDOF 13
ENDMDL
MODEL      232
REMARK 921   NORMALIZED FREE ENERGY PREDICTED BY IDOCK:   -4.06 KCAL/MOL
REMARK 922        TOTAL FREE ENERGY PREDICTED BY IDOCK:   -9.98 KCAL/MOL
REMARK 923 INTER-LIGAND FREE ENERGY PREDICTED BY IDOCK:   -8.16 KCAL/MOL
REMARK 924 INTRA-LIGAND FREE ENERGY PREDICTED BY IDOCK:   -1.82 KCAL/MOL
REMARK 927      BINDING AFFINITY PREDICTED BY RF-SCORE:    0.00 PKD
ROOT
HETATM    1  C   UNL     1     -12.064  14.288  64.454  1.00  0.00    -0.490 C  
HETATM    2  C   UNL     1     -11.891  12.788  64.670  1.00  0.00    -0.374 C  
HETATM    3  C   UNL     1     -12.738  11.999  63.680  1.00  0.00    -0.550 C  
ENDROOT
BRANCH   2   4
HETATM    4  O   UNL     1     -10.516  12.430  64.447  1.00  0.00    -0.305 OA 
BRANCH   4   5
HETATM    5  C   UNL     1      -9.804  12.114  65.566  1.00  0.00    -0.221 C  
HETATM    6  O   UNL     1      -9.047  12.869  66.160  1.00  0.00    -0.090 OA 
BRANCH   5   7
HETATM    7  C   UNL     1     -10.045  10.676  65.943  1.00  0.00    -0.321 C  
BRANCH   7   8
HETATM    8  C   UNL     1      -8.776   9.848  65.751  1.00  0.00    -0.157 C  
BRANCH   8   9
HETATM    9  C   UNL     1      -7.908   9.902  67.006  1.00  0.00    -0.102 C  
BRANCH   9  10
HETATM   10  C   UNL     1      -8.268   8.825  67.986  1.00  0.00    -0.118 C  
HETATM   11  C   UNL     1      -8.949   8.996  69.130  1.00  0.00    -0.140 C  
BRANCH  11  12
HETATM   12  C   UNL     1      -9.486  10.300  69.660  1.00  0.00    -0.180 C  
BRANCH  12  13
HETATM   13  C   UNL     1     -11.013  10.358  69.531  1.00  0.00    -0.307 C  
HETATM   14  C   UNL     1     -11.746   9.137  70.101  1.00  0.00     0.065 C  
HETATM   15  C   UNL     1     -13.173   9.640  70.258  1.00  0.00     0.491 C  
HETATM   16  O   UNL     1     -11.252   8.778  71.390  1.00  0.00    -0.252 OA 
HETATM   17  C   UNL     1     -12.986  11.038  70.847  1.00  0.00    -0.224 C  
HETATM   18  H   UNL     1     -11.707   8.022  71.743  1.00  0.00     0.000 HD 
HETATM   19  C   UNL     1     -11.639  11.562  70.283  1.00  0.00    -0.305 C  
HETATM   20  O   UNL     1     -12.915  10.956  72.272  1.00  0.00    -0.450 OA 
HETATM   21  H   UNL     1     -12.799  11.825  72.637  1.00  0.00     0.000 HD 
BRANCH  19  22
HETATM   22  C   UNL     1     -11.819  12.802  69.429  1.00  0.00    -0.359 C  
HETATM   23  C   UNL     1     -10.918  13.795  69.311  1.00  0.00    -0.205 C  
BRANCH  23  24
HETATM   24  C   UNL     1     -11.043  14.967  68.366  1.00  0.00    -0.273 C  
HETATM   25  F   UNL     1     -12.349  15.149  68.026  1.00  0.00    -0.201 F  
HETATM   26  F   UNL     1     -10.378  14.688  67.213  1.00  0.00    -0.249 F  
BRANCH  24  27
HETATM   27  C   UNL     1     -10.488  16.263  68.980  1.00  0.00    -0.276 C  
BRANCH  27  28
HETATM   28  O   UNL     1     -10.971  17.411  68.269  1.00  0.00    -0.317 OA 
BRANCH  28  29
HETATM   29  C   UNL     1     -10.012  18.156  67.637  1.00  0.00    -0.337 A  
HETATM   30  C   UNL     1     -10.281  19.523  67.539  1.00  0.00    -0.546 A  
HETATM   31  C   UNL     1      -9.370  20.380  66.917  1.00  0.00    -0.477 A  
HETATM   32  C   UNL     1      -8.178  19.874  66.403  1.00  0.00    -0.365 A  
HETATM   33  C   UNL     1      -7.894  18.514  66.517  1.00  0.00    -0.279 A  
HETATM   34  C   UNL     1      -8.808  17.655  67.134  1.00  0.00    -0.251 A  
ENDBRANCH  28  29
ENDBRANCH  27  28
ENDBRANCH  24  27
ENDBRANCH  23  24
ENDBRANCH  19  22
ENDBRANCH  12  13
ENDBRANCH  11  12
ENDBRANCH   9  10
ENDBRANCH   8   9
ENDBRANCH   7   8
ENDBRANCH   5   7
ENDBRANCH   4   5
ENDBRANCH   2   4
TORSDOF 13
ENDMDL
MODEL      233
REMARK 921   NORMALIZED FREE ENERGY PREDICTED BY IDOCK:   -4.05 KCAL/MOL
REMARK 922        TOTAL FREE ENERGY PREDICTED BY IDOCK:   -9.96 KCAL/MOL
REMARK 923 INTER-LIGAND FREE ENERGY PREDICTED BY IDOCK:   -8.06 KCAL/MOL
REMARK 924 INTRA-LIGAND FREE ENERGY PREDICTED BY IDOCK:   -1.90 KCAL/MOL
REMARK 927      BINDING AFFINITY PREDICTED BY RF-SCORE:    0.00 PKD
ROOT
HETATM    1  C   UNL     1     -13.165  12.607  72.067  1.00  0.00    -0.531 C  
HETATM    2  C   UNL     1     -13.759  13.936  72.521  1.00  0.00    -0.560 C  
HETATM    3  C   UNL     1     -12.813  14.654  73.475  1.00  0.00    -0.425 C  
ENDROOT
BRANCH   2   4
HETATM    4  O   UNL     1     -13.954  14.788  71.379  1.00  0.00    -0.407 OA 
BRANCH   4   5
HETATM    5  C   UNL     1     -12.821  15.130  70.704  1.00  0.00    -0.388 C  
HETATM    6  O   UNL     1     -12.158  16.139  70.896  1.00  0.00    -0.349 OA 
BRANCH   5   7
HETATM    7  C   UNL     1     -12.523  14.104  69.642  1.00  0.00    -0.207 C  
BRANCH   7   8
HETATM    8  C   UNL     1     -11.122  14.309  69.070  1.00  0.00    -0.284 C  
BRANCH   8   9
HETATM    9  C   UNL     1     -10.999  13.640  67.703  1.00  0.00    -0.283 C  
BRANCH   9  10
HETATM   10  C   UNL     1      -9.768  14.082  66.969  1.00  0.00    -0.256 C  
HETATM   11  C   UNL     1      -8.525  13.611  67.160  1.00  0.00    -0.186 C  
BRANCH  11  12
HETATM   12  C   UNL     1      -8.117  12.550  68.147  1.00  0.00    -0.167 C  
BRANCH  12  13
HETATM   13  C   UNL     1      -8.602  11.167  67.697  1.00  0.00    -0.126 C  
HETATM   14  C   UNL     1      -8.161  10.767  66.283  1.00  0.00    -0.159 C  
HETATM   15  C   UNL     1      -8.365   9.260  66.276  1.00  0.00    -0.124 C  
HETATM   16  O   UNL     1      -6.777  11.033  66.066  1.00  0.00    -0.273 OA 
HETATM   17  C   UNL     1      -7.816   8.829  67.636  1.00  0.00    -0.102 C  
HETATM   18  H   UNL     1      -6.504  10.786  65.190  1.00  0.00     0.000 HD 
HETATM   19  C   UNL     1      -8.074  10.018  68.598  1.00  0.00    -0.102 C  
HETATM   20  O   UNL     1      -6.412   8.585  67.533  1.00  0.00    -0.056 OA 
HETATM   21  H   UNL     1      -6.071   8.316  68.378  1.00  0.00     0.000 HD 
BRANCH  19  22
HETATM   22  C   UNL     1      -9.004   9.643  69.735  1.00  0.00    -0.226 C  
HETATM   23  C   UNL     1     -10.349   9.684  69.677  1.00  0.00    -0.245 C  
BRANCH  23  24
HETATM   24  C   UNL     1     -11.275   9.193  70.764  1.00  0.00    -0.277 C  
HETATM   25  F   UNL     1     -12.566   9.465  70.428  1.00  0.00    -0.127 F  
HETATM   26  F   UNL     1     -11.022   9.875  71.914  1.00  0.00    -0.263 F  
BRANCH  24  27
HETATM   27  C   UNL     1     -11.119   7.684  71.015  1.00  0.00    -0.257 C  
BRANCH  27  28
HETATM   28  O   UNL     1     -11.747   6.925  69.972  1.00  0.00    -0.286 OA 
BRANCH  28  29
HETATM   29  C   UNL     1     -10.903   6.447  69.005  1.00  0.00    -0.327 A  
HETATM   30  C   UNL     1      -9.741   5.832  69.473  1.00  0.00    -0.199 A  
HETATM   31  C   UNL     1      -8.809   5.305  68.576  1.00  0.00    -0.102 A  
HETATM   32  C   UNL     1      -9.045   5.378  67.205  1.00  0.00    -0.111 A  
HETATM   33  C   UNL     1     -10.214   5.973  66.732  1.00  0.00    -0.268 A  
HETATM   34  C   UNL     1     -11.144   6.505  67.630  1.00  0.00    -0.380 A  
ENDBRANCH  28  29
ENDBRANCH  27  28
ENDBRANCH  24  27
ENDBRANCH  23  24
ENDBRANCH  19  22
ENDBRANCH  12  13
ENDBRANCH  11  12
ENDBRANCH   9  10
ENDBRANCH   8   9
ENDBRANCH   7   8
ENDBRANCH   5   7
ENDBRANCH   4   5
ENDBRANCH   2   4
TORSDOF 13
ENDMDL
MODEL      234
REMARK 921   NORMALIZED FREE ENERGY PREDICTED BY IDOCK:   -4.04 KCAL/MOL
REMARK 922        TOTAL FREE ENERGY PREDICTED BY IDOCK:   -9.94 KCAL/MOL
REMARK 923 INTER-LIGAND FREE ENERGY PREDICTED BY IDOCK:   -7.19 KCAL/MOL
REMARK 924 INTRA-LIGAND FREE ENERGY PREDICTED BY IDOCK:   -2.75 KCAL/MOL
REMARK 927      BINDING AFFINITY PREDICTED BY RF-SCORE:    0.00 PKD
ROOT
HETATM    1  C   UNL     1      -7.060   9.213  65.408  1.00  0.00    -0.081 C  
HETATM    2  C   UNL     1      -6.926  10.078  66.657  1.00  0.00    -0.087 C  
HETATM    3  C   UNL     1      -5.885  11.171  66.448  1.00  0.00    -0.148 C  
ENDROOT
BRANCH   2   4
HETATM    4  O   UNL     1      -8.183  10.722  66.930  1.00  0.00    -0.123 OA 
BRANCH   4   5
HETATM    5  C   UNL     1      -9.020  10.043  67.762  1.00  0.00    -0.131 C  
HETATM    6  O   UNL     1      -8.861   9.901  68.967  1.00  0.00    -0.138 OA 
BRANCH   5   7
HETATM    7  C   UNL     1     -10.155   9.441  66.976  1.00  0.00    -0.304 C  
BRANCH   7   8
HETATM    8  C   UNL     1     -10.503   8.052  67.506  1.00  0.00    -0.331 C  
BRANCH   8   9
HETATM    9  C   UNL     1      -9.668   6.986  66.801  1.00  0.00    -0.241 C  
BRANCH   9  10
HETATM   10  C   UNL     1      -8.547   6.486  67.665  1.00  0.00    -0.116 C  
HETATM   11  C   UNL     1      -8.592   5.414  68.471  1.00  0.00    -0.098 C  
BRANCH  11  12
HETATM   12  C   UNL     1      -9.772   4.500  68.672  1.00  0.00    -0.203 C  
BRANCH  12  13
HETATM   13  C   UNL     1      -9.850   4.015  70.125  1.00  0.00    -0.207 C  
HETATM   14  C   UNL     1      -9.348   2.582  70.345  1.00  0.00    -0.134 C  
HETATM   15  C   UNL     1      -9.111   2.532  71.846  1.00  0.00    -0.143 C  
HETATM   16  O   UNL     1      -8.105   2.350  69.686  1.00  0.00    -0.042 OA 
HETATM   17  C   UNL     1      -8.428   3.868  72.135  1.00  0.00    -0.099 C  
HETATM   18  H   UNL     1      -7.794   1.462  69.823  1.00  0.00     0.000 HD 
HETATM   19  C   UNL     1      -8.992   4.870  71.095  1.00  0.00    -0.167 C  
HETATM   20  O   UNL     1      -7.016   3.735  71.961  1.00  0.00    -0.037 OA 
HETATM   21  H   UNL     1      -6.591   4.565  72.142  1.00  0.00     0.000 HD 
BRANCH  19  22
HETATM   22  C   UNL     1      -9.747   6.010  71.750  1.00  0.00    -0.171 C  
HETATM   23  C   UNL     1      -9.922   7.232  71.210  1.00  0.00    -0.191 C  
BRANCH  23  24
HETATM   24  C   UNL     1     -10.777   8.324  71.805  1.00  0.00    -0.266 C  
HETATM   25  F   UNL     1     -10.018   9.431  72.036  1.00  0.00    -0.323 F  
HETATM   26  F   UNL     1     -11.250   7.920  73.015  1.00  0.00    -0.415 F  
BRANCH  24  27
HETATM   27  C   UNL     1     -11.956   8.694  70.890  1.00  0.00    -0.191 C  
BRANCH  27  28
HETATM   28  O   UNL     1     -12.819   9.646  71.529  1.00  0.00    -0.339 OA 
BRANCH  28  29
HETATM   29  C   UNL     1     -12.656  10.946  71.130  1.00  0.00    -0.428 A  
HETATM   30  C   UNL     1     -12.115  11.119  69.854  1.00  0.00    -0.418 A  
HETATM   31  C   UNL     1     -11.908  12.402  69.343  1.00  0.00    -0.365 A  
HETATM   32  C   UNL     1     -12.255  13.518  70.100  1.00  0.00    -0.400 A  
HETATM   33  C   UNL     1     -12.815  13.351  71.366  1.00  0.00    -0.420 A  
HETATM   34  C   UNL     1     -13.018  12.067  71.881  1.00  0.00    -0.428 A  
ENDBRANCH  28  29
ENDBRANCH  27  28
ENDBRANCH  24  27
ENDBRANCH  23  24
ENDBRANCH  19  22
ENDBRANCH  12  13
ENDBRANCH  11  12
ENDBRANCH   9  10
ENDBRANCH   8   9
ENDBRANCH   7   8
ENDBRANCH   5   7
ENDBRANCH   4   5
ENDBRANCH   2   4
TORSDOF 13
ENDMDL
MODEL      235
REMARK 921   NORMALIZED FREE ENERGY PREDICTED BY IDOCK:   -4.03 KCAL/MOL
REMARK 922        TOTAL FREE ENERGY PREDICTED BY IDOCK:   -9.93 KCAL/MOL
REMARK 923 INTER-LIGAND FREE ENERGY PREDICTED BY IDOCK:   -8.28 KCAL/MOL
REMARK 924 INTRA-LIGAND FREE ENERGY PREDICTED BY IDOCK:   -1.65 KCAL/MOL
REMARK 927      BINDING AFFINITY PREDICTED BY RF-SCORE:    0.00 PKD
ROOT
HETATM    1  C   UNL     1     -12.316  13.561  70.287  1.00  0.00    -0.370 C  
HETATM    2  C   UNL     1     -11.945  14.982  69.876  1.00  0.00    -0.334 C  
HETATM    3  C   UNL     1     -12.016  15.925  71.070  1.00  0.00    -0.453 C  
ENDROOT
BRANCH   2   4
HETATM    4  O   UNL     1     -10.593  15.001  69.387  1.00  0.00    -0.241 OA 
BRANCH   4   5
HETATM    5  C   UNL     1     -10.445  15.386  68.088  1.00  0.00    -0.247 C  
HETATM    6  O   UNL     1      -9.790  16.344  67.704  1.00  0.00    -0.237 OA 
BRANCH   5   7
HETATM    7  C   UNL     1     -11.251  14.487  67.188  1.00  0.00    -0.341 C  
BRANCH   7   8
HETATM    8  C   UNL     1     -11.585  15.195  65.877  1.00  0.00    -0.086 C  
BRANCH   8   9
HETATM    9  C   UNL     1     -10.910  14.490  64.702  1.00  0.00    -0.351 C  
BRANCH   9  10
HETATM   10  C   UNL     1     -11.822  13.496  64.044  1.00  0.00    -0.476 C  
HETATM   11  C   UNL     1     -11.761  12.162  64.180  1.00  0.00    -0.478 C  
BRANCH  11  12
HETATM   12  C   UNL     1     -10.771  11.396  65.017  1.00  0.00    -0.340 C  
BRANCH  12  13
HETATM   13  C   UNL     1     -10.130  10.263  64.208  1.00  0.00    -0.191 C  
HETATM   14  C   UNL     1      -9.643  10.673  62.812  1.00  0.00    -0.301 C  
HETATM   15  C   UNL     1      -8.688   9.549  62.441  1.00  0.00    -0.236 C  
HETATM   16  O   UNL     1      -8.907  11.894  62.847  1.00  0.00    -0.638 OA 
HETATM   17  C   UNL     1      -7.899   9.323  63.730  1.00  0.00    -0.133 C  
HETATM   18  H   UNL     1      -8.605  12.148  61.982  1.00  0.00     0.000 HD 
HETATM   19  C   UNL     1      -8.868   9.670  64.891  1.00  0.00    -0.234 C  
HETATM   20  O   UNL     1      -6.771  10.199  63.764  1.00  0.00    -0.131 OA 
HETATM   21  H   UNL     1      -6.280  10.057  64.566  1.00  0.00     0.000 HD 
BRANCH  19  22
HETATM   22  C   UNL     1      -9.148   8.474  65.780  1.00  0.00    -0.222 C  
HETATM   23  C   UNL     1     -10.176   8.378  66.643  1.00  0.00    -0.335 C  
BRANCH  23  24
HETATM   24  C   UNL     1     -10.526   7.141  67.436  1.00  0.00    -0.284 C  
HETATM   25  F   UNL     1     -11.761   6.696  67.076  1.00  0.00    -0.310 F  
HETATM   26  F   UNL     1     -10.598   7.458  68.757  1.00  0.00    -0.200 F  
BRANCH  24  27
HETATM   27  C   UNL     1      -9.497   6.017  67.232  1.00  0.00    -0.114 C  
BRANCH  27  28
HETATM   28  O   UNL     1     -10.116   4.857  66.658  1.00  0.00    -0.201 OA 
BRANCH  28  29
HETATM   29  C   UNL     1      -9.579   4.430  65.474  1.00  0.00    -0.186 A  
HETATM   30  C   UNL     1      -8.195   4.576  65.355  1.00  0.00    -0.111 A  
HETATM   31  C   UNL     1      -7.539   4.172  64.190  1.00  0.00    -0.071 A  
HETATM   32  C   UNL     1      -8.263   3.605  63.144  1.00  0.00    -0.084 A  
HETATM   33  C   UNL     1      -9.642   3.438  63.265  1.00  0.00    -0.106 A  
HETATM   34  C   UNL     1     -10.300   3.847  64.428  1.00  0.00    -0.242 A  
ENDBRANCH  28  29
ENDBRANCH  27  28
ENDBRANCH  24  27
ENDBRANCH  23  24
ENDBRANCH  19  22
ENDBRANCH  12  13
ENDBRANCH  11  12
ENDBRANCH   9  10
ENDBRANCH   8   9
ENDBRANCH   7   8
ENDBRANCH   5   7
ENDBRANCH   4   5
ENDBRANCH   2   4
TORSDOF 13
ENDMDL
MODEL      236
REMARK 921   NORMALIZED FREE ENERGY PREDICTED BY IDOCK:   -4.02 KCAL/MOL
REMARK 922        TOTAL FREE ENERGY PREDICTED BY IDOCK:   -9.91 KCAL/MOL
REMARK 923 INTER-LIGAND FREE ENERGY PREDICTED BY IDOCK:   -8.01 KCAL/MOL
REMARK 924 INTRA-LIGAND FREE ENERGY PREDICTED BY IDOCK:   -1.90 KCAL/MOL
REMARK 927      BINDING AFFINITY PREDICTED BY RF-SCORE:    0.00 PKD
ROOT
HETATM    1  C   UNL     1     -11.539   7.532  72.557  1.00  0.00    -0.352 C  
HETATM    2  C   UNL     1     -10.918   7.719  71.177  1.00  0.00    -0.239 C  
HETATM    3  C   UNL     1      -9.645   8.551  71.265  1.00  0.00    -0.264 C  
ENDROOT
BRANCH   2   4
HETATM    4  O   UNL     1     -10.560   6.434  70.636  1.00  0.00    -0.217 OA 
BRANCH   4   5
HETATM    5  C   UNL     1     -10.516   6.364  69.276  1.00  0.00    -0.231 C  
HETATM    6  O   UNL     1     -11.454   6.585  68.523  1.00  0.00    -0.193 OA 
BRANCH   5   7
HETATM    7  C   UNL     1      -9.149   5.921  68.826  1.00  0.00    -0.116 C  
BRANCH   7   8
HETATM    8  C   UNL     1      -8.984   6.120  67.321  1.00  0.00    -0.112 C  
BRANCH   8   9
HETATM    9  C   UNL     1      -8.169   7.378  67.035  1.00  0.00    -0.121 C  
BRANCH   9  10
HETATM   10  C   UNL     1      -8.792   8.602  67.639  1.00  0.00    -0.138 C  
HETATM   11  C   UNL     1      -9.361   9.612  66.961  1.00  0.00    -0.180 C  
BRANCH  11  12
HETATM   12  C   UNL     1      -9.486   9.722  65.464  1.00  0.00    -0.324 C  
BRANCH  12  13
HETATM   13  C   UNL     1      -9.869  11.147  65.049  1.00  0.00    -0.315 C  
HETATM   14  C   UNL     1      -9.602  11.472  63.573  1.00  0.00    -0.279 C  
HETATM   15  C   UNL     1     -10.458  12.708  63.338  1.00  0.00    -0.108 C  
HETATM   16  O   UNL     1     -10.066  10.435  62.711  1.00  0.00    -0.650 OA 
HETATM   17  C   UNL     1     -11.767  12.366  64.049  1.00  0.00    -0.420 C  
HETATM   18  H   UNL     1      -9.901  10.638  61.797  1.00  0.00     0.000 HD 
HETATM   19  C   UNL     1     -11.380  11.446  65.236  1.00  0.00    -0.069 C  
HETATM   20  O   UNL     1     -12.631  11.663  63.154  1.00  0.00    -0.926 OA 
HETATM   21  H   UNL     1     -13.445  11.451  63.595  1.00  0.00     0.000 HD 
BRANCH  19  22
HETATM   22  C   UNL     1     -11.730  12.064  66.576  1.00  0.00    -0.330 C  
HETATM   23  C   UNL     1     -11.138  13.154  67.100  1.00  0.00    -0.305 C  
BRANCH  23  24
HETATM   24  C   UNL     1     -11.568  13.842  68.373  1.00  0.00    -0.332 C  
HETATM   25  F   UNL     1     -10.945  13.272  69.441  1.00  0.00    -0.249 F  
HETATM   26  F   UNL     1     -12.903  13.654  68.559  1.00  0.00     0.127 F  
BRANCH  24  27
HETATM   27  C   UNL     1     -11.261  15.348  68.345  1.00  0.00    -0.315 C  
BRANCH  27  28
HETATM   28  O   UNL     1     -10.213  15.672  69.271  1.00  0.00    -0.216 OA 
BRANCH  28  29
HETATM   29  C   UNL     1      -8.977  15.864  68.714  1.00  0.00    -0.216 A  
HETATM   30  C   UNL     1      -7.899  15.389  69.464  1.00  0.00    -0.204 A  
HETATM   31  C   UNL     1      -6.593  15.528  68.991  1.00  0.00    -0.123 A  
HETATM   32  C   UNL     1      -6.359  16.130  67.757  1.00  0.00    -0.170 A  
HETATM   33  C   UNL     1      -7.432  16.587  66.994  1.00  0.00    -0.239 A  
HETATM   34  C   UNL     1      -8.740  16.454  67.469  1.00  0.00    -0.188 A  
ENDBRANCH  28  29
ENDBRANCH  27  28
ENDBRANCH  24  27
ENDBRANCH  23  24
ENDBRANCH  19  22
ENDBRANCH  12  13
ENDBRANCH  11  12
ENDBRANCH   9  10
ENDBRANCH   8   9
ENDBRANCH   7   8
ENDBRANCH   5   7
ENDBRANCH   4   5
ENDBRANCH   2   4
TORSDOF 13
ENDMDL
MODEL      237
REMARK 921   NORMALIZED FREE ENERGY PREDICTED BY IDOCK:   -4.01 KCAL/MOL
REMARK 922        TOTAL FREE ENERGY PREDICTED BY IDOCK:   -9.90 KCAL/MOL
REMARK 923 INTER-LIGAND FREE ENERGY PREDICTED BY IDOCK:   -8.23 KCAL/MOL
REMARK 924 INTRA-LIGAND FREE ENERGY PREDICTED BY IDOCK:   -1.67 KCAL/MOL
REMARK 927      BINDING AFFINITY PREDICTED BY RF-SCORE:    0.00 PKD
ROOT
HETATM    1  C   UNL     1      -5.335  18.974  66.374  1.00  0.00    -0.171 C  
HETATM    2  C   UNL     1      -6.678  19.425  66.939  1.00  0.00    -0.195 C  
HETATM    3  C   UNL     1      -7.636  19.806  65.817  1.00  0.00    -0.301 C  
ENDROOT
BRANCH   2   4
HETATM    4  O   UNL     1      -7.276  18.342  67.673  1.00  0.00    -0.211 OA 
BRANCH   4   5
HETATM    5  C   UNL     1      -8.424  18.649  68.339  1.00  0.00    -0.338 C  
HETATM    6  O   UNL     1      -8.620  19.675  68.976  1.00  0.00    -0.301 OA 
BRANCH   5   7
HETATM    7  C   UNL     1      -9.408  17.515  68.224  1.00  0.00    -0.281 C  
BRANCH   7   8
HETATM    8  C   UNL     1     -10.570  17.899  67.310  1.00  0.00    -0.341 C  
BRANCH   8   9
HETATM    9  C   UNL     1     -10.430  17.216  65.952  1.00  0.00    -0.265 C  
BRANCH   9  10
HETATM   10  C   UNL     1      -9.730  15.893  66.057  1.00  0.00    -0.375 C  
HETATM   11  C   UNL     1     -10.320  14.702  66.243  1.00  0.00    -0.301 C  
BRANCH  11  12
HETATM   12  C   UNL     1     -11.799  14.454  66.385  1.00  0.00    -0.402 C  
BRANCH  12  13
HETATM   13  C   UNL     1     -12.184  13.087  65.808  1.00  0.00    -0.511 C  
HETATM   14  C   UNL     1     -12.992  13.152  64.505  1.00  0.00     0.030 C  
HETATM   15  C   UNL     1     -12.839  11.748  63.940  1.00  0.00    -0.252 C  
HETATM   16  O   UNL     1     -12.423  14.073  63.576  1.00  0.00    -1.043 OA 
HETATM   17  C   UNL     1     -11.359  11.441  64.166  1.00  0.00    -0.183 C  
HETATM   18  H   UNL     1     -12.923  14.113  62.769  1.00  0.00     0.000 HD 
HETATM   19  C   UNL     1     -10.953  12.214  65.448  1.00  0.00    -0.346 C  
HETATM   20  O   UNL     1     -10.595  11.913  63.055  1.00  0.00    -0.656 OA 
HETATM   21  H   UNL     1      -9.675  11.722  63.195  1.00  0.00     0.000 HD 
BRANCH  19  22
HETATM   22  C   UNL     1     -10.507  11.283  66.559  1.00  0.00    -0.299 C  
HETATM   23  C   UNL     1     -10.525   9.938  66.494  1.00  0.00    -0.213 C  
BRANCH  23  24
HETATM   24  C   UNL     1      -9.966   9.014  67.549  1.00  0.00    -0.207 C  
HETATM   25  F   UNL     1      -9.058   8.169  66.988  1.00  0.00    -0.132 F  
HETATM   26  F   UNL     1     -10.966   8.235  68.042  1.00  0.00    -0.191 F  
BRANCH  24  27
HETATM   27  C   UNL     1      -9.302   9.789  68.699  1.00  0.00    -0.147 C  
BRANCH  27  28
HETATM   28  O   UNL     1      -7.944   9.364  68.883  1.00  0.00    -0.085 OA 
BRANCH  28  29
HETATM   29  C   UNL     1      -7.702   8.652  70.027  1.00  0.00    -0.080 A  
HETATM   30  C   UNL     1      -6.613   9.087  70.786  1.00  0.00    -0.063 A  
HETATM   31  C   UNL     1      -6.275   8.436  71.974  1.00  0.00    -0.064 A  
HETATM   32  C   UNL     1      -7.035   7.356  72.417  1.00  0.00    -0.063 A  
HETATM   33  C   UNL     1      -8.135   6.931  71.674  1.00  0.00    -0.105 A  
HETATM   34  C   UNL     1      -8.471   7.578  70.481  1.00  0.00    -0.133 A  
ENDBRANCH  28  29
ENDBRANCH  27  28
ENDBRANCH  24  27
ENDBRANCH  23  24
ENDBRANCH  19  22
ENDBRANCH  12  13
ENDBRANCH  11  12
ENDBRANCH   9  10
ENDBRANCH   8   9
ENDBRANCH   7   8
ENDBRANCH   5   7
ENDBRANCH   4   5
ENDBRANCH   2   4
TORSDOF 13
ENDMDL
MODEL      238
REMARK 921   NORMALIZED FREE ENERGY PREDICTED BY IDOCK:   -4.01 KCAL/MOL
REMARK 922        TOTAL FREE ENERGY PREDICTED BY IDOCK:   -9.89 KCAL/MOL
REMARK 923 INTER-LIGAND FREE ENERGY PREDICTED BY IDOCK:   -8.86 KCAL/MOL
REMARK 924 INTRA-LIGAND FREE ENERGY PREDICTED BY IDOCK:   -1.03 KCAL/MOL
REMARK 927      BINDING AFFINITY PREDICTED BY RF-SCORE:    0.00 PKD
ROOT
HETATM    1  C   UNL     1     -10.472   7.956  67.449  1.00  0.00    -0.360 C  
HETATM    2  C   UNL     1     -10.718   9.461  67.417  1.00  0.00    -0.210 C  
HETATM    3  C   UNL     1     -11.109   9.973  68.797  1.00  0.00    -0.219 C  
ENDROOT
BRANCH   2   4
HETATM    4  O   UNL     1      -9.507  10.134  67.030  1.00  0.00    -0.161 OA 
BRANCH   4   5
HETATM    5  C   UNL     1      -8.439   9.938  67.852  1.00  0.00    -0.121 C  
HETATM    6  O   UNL     1      -7.690   8.971  67.823  1.00  0.00    -0.095 OA 
BRANCH   5   7
HETATM    7  C   UNL     1      -8.338  11.064  68.847  1.00  0.00    -0.123 C  
BRANCH   7   8
HETATM    8  C   UNL     1      -7.678  12.287  68.213  1.00  0.00    -0.143 C  
BRANCH   8   9
HETATM    9  C   UNL     1      -8.722  13.353  67.894  1.00  0.00    -0.187 C  
BRANCH   9  10
HETATM   10  C   UNL     1      -9.642  13.605  69.052  1.00  0.00     0.217 C  
HETATM   11  C   UNL     1     -10.984  13.581  69.012  1.00  0.00    -0.264 C  
BRANCH  11  12
HETATM   12  C   UNL     1     -11.833  13.300  67.801  1.00  0.00    -0.394 C  
BRANCH  12  13
HETATM   13  C   UNL     1     -11.056  13.576  66.509  1.00  0.00    -0.310 C  
HETATM   14  C   UNL     1     -11.342  12.587  65.371  1.00  0.00    -0.325 C  
HETATM   15  C   UNL     1     -10.832  13.326  64.143  1.00  0.00    -0.369 C  
HETATM   16  O   UNL     1     -12.740  12.358  65.209  1.00  0.00    -0.617 OA 
HETATM   17  C   UNL     1     -11.340  14.751  64.358  1.00  0.00    -0.213 C  
HETATM   18  H   UNL     1     -12.917  11.746  64.503  1.00  0.00     0.000 HD 
HETATM   19  C   UNL     1     -11.376  14.964  65.894  1.00  0.00    -0.306 C  
HETATM   20  O   UNL     1     -12.659  14.878  63.822  1.00  0.00    -0.999 OA 
HETATM   21  H   UNL     1     -12.974  15.764  63.956  1.00  0.00     0.000 HD 
BRANCH  19  22
HETATM   22  C   UNL     1     -10.440  16.071  66.340  1.00  0.00    -0.313 C  
HETATM   23  C   UNL     1     -10.721  16.985  67.287  1.00  0.00    -0.206 C  
BRANCH  23  24
HETATM   24  C   UNL     1      -9.745  18.008  67.818  1.00  0.00    -0.292 C  
HETATM   25  F   UNL     1      -9.724  17.963  69.179  1.00  0.00    -0.283 F  
HETATM   26  F   UNL     1     -10.170  19.255  67.478  1.00  0.00    -0.379 F  
BRANCH  24  27
HETATM   27  C   UNL     1      -8.324  17.783  67.276  1.00  0.00    -0.220 C  
BRANCH  27  28
HETATM   28  O   UNL     1      -7.487  18.915  67.554  1.00  0.00    -0.226 OA 
BRANCH  28  29
HETATM   29  C   UNL     1      -6.763  18.838  68.713  1.00  0.00    -0.270 A  
HETATM   30  C   UNL     1      -6.658  20.028  69.436  1.00  0.00    -0.348 A  
HETATM   31  C   UNL     1      -5.944  20.066  70.636  1.00  0.00    -0.362 A  
HETATM   32  C   UNL     1      -5.344  18.909  71.126  1.00  0.00    -0.263 A  
HETATM   33  C   UNL     1      -5.463  17.713  70.419  1.00  0.00    -0.260 A  
HETATM   34  C   UNL     1      -6.172  17.675  69.215  1.00  0.00    -0.239 A  
ENDBRANCH  28  29
ENDBRANCH  27  28
ENDBRANCH  24  27
ENDBRANCH  23  24
ENDBRANCH  19  22
ENDBRANCH  12  13
ENDBRANCH  11  12
ENDBRANCH   9  10
ENDBRANCH   8   9
ENDBRANCH   7   8
ENDBRANCH   5   7
ENDBRANCH   4   5
ENDBRANCH   2   4
TORSDOF 13
ENDMDL
MODEL      239
REMARK 921   NORMALIZED FREE ENERGY PREDICTED BY IDOCK:   -4.00 KCAL/MOL
REMARK 922        TOTAL FREE ENERGY PREDICTED BY IDOCK:   -9.87 KCAL/MOL
REMARK 923 INTER-LIGAND FREE ENERGY PREDICTED BY IDOCK:   -8.12 KCAL/MOL
REMARK 924 INTRA-LIGAND FREE ENERGY PREDICTED BY IDOCK:   -1.75 KCAL/MOL
REMARK 927      BINDING AFFINITY PREDICTED BY RF-SCORE:    0.00 PKD
ROOT
HETATM    1  C   UNL     1      -7.717   5.633  70.972  1.00  0.00    -0.104 C  
HETATM    2  C   UNL     1      -9.119   5.059  71.149  1.00  0.00    -0.142 C  
HETATM    3  C   UNL     1      -9.057   3.571  71.469  1.00  0.00    -0.174 C  
ENDROOT
BRANCH   2   4
HETATM    4  O   UNL     1      -9.768   5.715  72.253  1.00  0.00    -0.154 OA 
BRANCH   4   5
HETATM    5  C   UNL     1     -11.101   5.949  72.093  1.00  0.00    -0.281 C  
HETATM    6  O   UNL     1     -11.990   5.494  72.799  1.00  0.00    -0.237 OA 
BRANCH   5   7
HETATM    7  C   UNL     1     -11.332   6.813  70.882  1.00  0.00    -0.363 C  
BRANCH   7   8
HETATM    8  C   UNL     1     -12.173   8.036  71.244  1.00  0.00    -0.308 C  
BRANCH   8   9
HETATM    9  C   UNL     1     -11.274   9.230  71.556  1.00  0.00    -0.457 C  
BRANCH   9  10
HETATM   10  C   UNL     1     -11.316  10.265  70.471  1.00  0.00    -0.422 C  
HETATM   11  C   UNL     1     -10.420  10.404  69.481  1.00  0.00    -0.274 C  
BRANCH  11  12
HETATM   12  C   UNL     1      -9.195   9.555  69.262  1.00  0.00    -0.169 C  
BRANCH  12  13
HETATM   13  C   UNL     1      -8.728   9.632  67.804  1.00  0.00    -0.122 C  
HETATM   14  C   UNL     1      -7.583   8.672  67.451  1.00  0.00    -0.093 C  
HETATM   15  C   UNL     1      -7.636   8.625  65.932  1.00  0.00    -0.089 C  
HETATM   16  O   UNL     1      -7.823   7.358  67.950  1.00  0.00    -0.113 OA 
HETATM   17  C   UNL     1      -9.133   8.520  65.639  1.00  0.00    -0.132 C  
HETATM   18  H   UNL     1      -7.114   6.764  67.731  1.00  0.00     0.000 HD 
HETATM   19  C   UNL     1      -9.847   9.276  66.790  1.00  0.00    -0.289 C  
HETATM   20  O   UNL     1      -9.530   7.147  65.643  1.00  0.00    -0.370 OA 
HETATM   21  H   UNL     1     -10.460   7.083  65.460  1.00  0.00     0.000 HD 
BRANCH  19  22
HETATM   22  C   UNL     1     -10.632  10.472  66.287  1.00  0.00    -0.203 C  
HETATM   23  C   UNL     1     -10.210  11.330  65.339  1.00  0.00    -0.323 C  
BRANCH  23  24
HETATM   24  C   UNL     1     -11.040  12.445  64.751  1.00  0.00    -0.304 C  
HETATM   25  F   UNL     1     -12.139  11.928  64.135  1.00  0.00    -0.438 F  
HETATM   26  F   UNL     1     -10.321  13.082  63.787  1.00  0.00    -0.412 F  
BRANCH  24  27
HETATM   27  C   UNL     1     -11.481  13.459  65.818  1.00  0.00    -0.320 C  
BRANCH  27  28
HETATM   28  O   UNL     1     -10.403  13.754  66.719  1.00  0.00    -0.266 OA 
BRANCH  28  29
HETATM   29  C   UNL     1     -10.592  14.846  67.523  1.00  0.00    -0.266 A  
HETATM   30  C   UNL     1     -11.449  14.651  68.609  1.00  0.00    -0.326 A  
HETATM   31  C   UNL     1     -11.712  15.695  69.498  1.00  0.00    -0.382 A  
HETATM   32  C   UNL     1     -11.108  16.936  69.312  1.00  0.00    -0.010 A  
HETATM   33  C   UNL     1     -10.236  17.131  68.242  1.00  0.00    -0.334 A  
HETATM   34  C   UNL     1      -9.976  16.088  67.348  1.00  0.00    -0.241 A  
ENDBRANCH  28  29
ENDBRANCH  27  28
ENDBRANCH  24  27
ENDBRANCH  23  24
ENDBRANCH  19  22
ENDBRANCH  12  13
ENDBRANCH  11  12
ENDBRANCH   9  10
ENDBRANCH   8   9
ENDBRANCH   7   8
ENDBRANCH   5   7
ENDBRANCH   4   5
ENDBRANCH   2   4
TORSDOF 13
ENDMDL
MODEL      240
REMARK 921   NORMALIZED FREE ENERGY PREDICTED BY IDOCK:   -3.98 KCAL/MOL
REMARK 922        TOTAL FREE ENERGY PREDICTED BY IDOCK:   -9.84 KCAL/MOL
REMARK 923 INTER-LIGAND FREE ENERGY PREDICTED BY IDOCK:   -8.21 KCAL/MOL
REMARK 924 INTRA-LIGAND FREE ENERGY PREDICTED BY IDOCK:   -1.63 KCAL/MOL
REMARK 927      BINDING AFFINITY PREDICTED BY RF-SCORE:    0.00 PKD
ROOT
HETATM    1  C   UNL     1      -8.963   9.692  62.330  1.00  0.00    -0.282 C  
HETATM    2  C   UNL     1      -8.946  10.716  63.460  1.00  0.00    -0.208 C  
HETATM    3  C   UNL     1     -10.165  11.628  63.381  1.00  0.00    -0.471 C  
ENDROOT
BRANCH   2   4
HETATM    4  O   UNL     1      -8.995  10.034  64.725  1.00  0.00    -0.177 OA 
BRANCH   4   5
HETATM    5  C   UNL     1      -7.786   9.706  65.260  1.00  0.00    -0.115 C  
HETATM    6  O   UNL     1      -6.730  10.280  65.032  1.00  0.00    -0.125 OA 
BRANCH   5   7
HETATM    7  C   UNL     1      -7.923   8.493  66.143  1.00  0.00    -0.102 C  
BRANCH   7   8
HETATM    8  C   UNL     1      -8.803   8.802  67.352  1.00  0.00    -0.140 C  
BRANCH   8   9
HETATM    9  C   UNL     1      -7.953   9.299  68.519  1.00  0.00    -0.101 C  
BRANCH   9  10
HETATM   10  C   UNL     1      -7.171   8.189  69.157  1.00  0.00    -0.073 C  
HETATM   11  C   UNL     1      -7.384   7.678  70.380  1.00  0.00    -0.071 C  
BRANCH  11  12
HETATM   12  C   UNL     1      -8.445   8.115  71.355  1.00  0.00    -0.154 C  
BRANCH  12  13
HETATM   13  C   UNL     1      -9.846   7.792  70.822  1.00  0.00    -0.183 C  
HETATM   14  C   UNL     1     -10.272   6.328  70.998  1.00  0.00    -0.192 C  
HETATM   15  C   UNL     1     -11.782   6.391  70.826  1.00  0.00    -0.378 C  
HETATM   16  O   UNL     1      -9.990   5.850  72.312  1.00  0.00    -0.168 OA 
HETATM   17  C   UNL     1     -12.173   7.632  71.628  1.00  0.00    -0.317 C  
HETATM   18  H   UNL     1     -10.254   4.944  72.420  1.00  0.00     0.000 HD 
HETATM   19  C   UNL     1     -10.965   8.601  71.532  1.00  0.00    -0.360 C  
HETATM   20  O   UNL     1     -12.397   7.273  72.992  1.00  0.00    -0.171 OA 
HETATM   21  H   UNL     1     -12.640   8.044  73.491  1.00  0.00     0.000 HD 
BRANCH  19  22
HETATM   22  C   UNL     1     -11.327   9.900  70.838  1.00  0.00    -0.446 C  
HETATM   23  C   UNL     1     -10.826  10.310  69.658  1.00  0.00    -0.311 C  
BRANCH  23  24
HETATM   24  C   UNL     1     -11.278  11.540  68.908  1.00  0.00    -0.247 C  
HETATM   25  F   UNL     1     -12.524  11.338  68.397  1.00  0.00    -0.216 F  
HETATM   26  F   UNL     1     -10.454  11.749  67.846  1.00  0.00    -0.186 F  
BRANCH  24  27
HETATM   27  C   UNL     1     -11.290  12.789  69.805  1.00  0.00    -0.033 C  
BRANCH  27  28
HETATM   28  O   UNL     1     -12.411  12.764  70.700  1.00  0.00    -0.360 OA 
BRANCH  28  29
HETATM   29  C   UNL     1     -12.540  13.861  71.508  1.00  0.00    -0.334 A  
HETATM   30  C   UNL     1     -11.735  14.952  71.174  1.00  0.00    -0.377 A  
HETATM   31  C   UNL     1     -11.787  16.126  71.928  1.00  0.00    -0.605 A  
HETATM   32  C   UNL     1     -12.656  16.219  73.013  1.00  0.00    -0.480 A  
HETATM   33  C   UNL     1     -13.477  15.141  73.339  1.00  0.00    -0.174 A  
HETATM   34  C   UNL     1     -13.422  13.963  72.588  1.00  0.00    -0.652 A  
ENDBRANCH  28  29
ENDBRANCH  27  28
ENDBRANCH  24  27
ENDBRANCH  23  24
ENDBRANCH  19  22
ENDBRANCH  12  13
ENDBRANCH  11  12
ENDBRANCH   9  10
ENDBRANCH   8   9
ENDBRANCH   7   8
ENDBRANCH   5   7
ENDBRANCH   4   5
ENDBRANCH   2   4
TORSDOF 13
ENDMDL
MODEL      241
REMARK 921   NORMALIZED FREE ENERGY PREDICTED BY IDOCK:   -3.96 KCAL/MOL
REMARK 922        TOTAL FREE ENERGY PREDICTED BY IDOCK:   -9.81 KCAL/MOL
REMARK 923 INTER-LIGAND FREE ENERGY PREDICTED BY IDOCK:   -8.54 KCAL/MOL
REMARK 924 INTRA-LIGAND FREE ENERGY PREDICTED BY IDOCK:   -1.28 KCAL/MOL
REMARK 927      BINDING AFFINITY PREDICTED BY RF-SCORE:    0.00 PKD
ROOT
HETATM    1  C   UNL     1      -9.749   8.260  70.271  1.00  0.00    -0.177 C  
HETATM    2  C   UNL     1     -10.074   6.770  70.274  1.00  0.00    -0.179 C  
HETATM    3  C   UNL     1     -11.487   6.526  70.787  1.00  0.00    -0.419 C  
ENDROOT
BRANCH   2   4
HETATM    4  O   UNL     1     -10.006   6.264  68.929  1.00  0.00    -0.143 OA 
BRANCH   4   5
HETATM    5  C   UNL     1      -8.772   5.859  68.517  1.00  0.00    -0.112 C  
HETATM    6  O   UNL     1      -8.059   5.055  69.100  1.00  0.00    -0.082 OA 
BRANCH   5   7
HETATM    7  C   UNL     1      -8.385   6.585  67.256  1.00  0.00    -0.113 C  
BRANCH   7   8
HETATM    8  C   UNL     1      -7.536   7.813  67.579  1.00  0.00    -0.109 C  
BRANCH   8   9
HETATM    9  C   UNL     1      -6.276   7.834  66.718  1.00  0.00    -0.049 C  
BRANCH   9  10
HETATM   10  C   UNL     1      -6.479   8.594  65.440  1.00  0.00    -0.063 C  
HETATM   11  C   UNL     1      -7.110   9.772  65.317  1.00  0.00    -0.119 C  
BRANCH  11  12
HETATM   12  C   UNL     1      -7.741  10.566  66.431  1.00  0.00    -0.135 C  
BRANCH  12  13
HETATM   13  C   UNL     1      -8.972  11.330  65.932  1.00  0.00    -0.206 C  
HETATM   14  C   UNL     1     -10.003  10.465  65.196  1.00  0.00    -0.322 C  
HETATM   15  C   UNL     1     -11.255  11.329  65.226  1.00  0.00    -0.067 C  
HETATM   16  O   UNL     1     -10.276   9.255  65.900  1.00  0.00    -0.330 OA 
HETATM   17  C   UNL     1     -11.267  11.873  66.654  1.00  0.00    -0.328 C  
HETATM   18  H   UNL     1     -10.915   8.719  65.444  1.00  0.00     0.000 HD 
HETATM   19  C   UNL     1      -9.780  11.991  67.079  1.00  0.00    -0.204 C  
HETATM   20  O   UNL     1     -11.945  10.955  67.514  1.00  0.00    -0.543 OA 
HETATM   21  H   UNL     1     -11.953  11.294  68.401  1.00  0.00     0.000 HD 
BRANCH  19  22
HETATM   22  C   UNL     1      -9.382  13.424  67.375  1.00  0.00    -0.221 C  
HETATM   23  C   UNL     1      -9.744  14.115  68.472  1.00  0.00    -0.219 C  
BRANCH  23  24
HETATM   24  C   UNL     1      -9.246  15.496  68.826  1.00  0.00    -0.210 C  
HETATM   25  F   UNL     1      -8.720  16.095  67.723  1.00  0.00    -0.168 F  
HETATM   26  F   UNL     1      -8.235  15.393  69.730  1.00  0.00    -0.243 F  
BRANCH  24  27
HETATM   27  C   UNL     1     -10.364  16.380  69.404  1.00  0.00    -0.290 C  
BRANCH  27  28
HETATM   28  O   UNL     1     -11.618  15.682  69.404  1.00  0.00    -0.321 OA 
BRANCH  28  29
HETATM   29  C   UNL     1     -12.281  15.667  70.601  1.00  0.00    -0.405 A  
HETATM   30  C   UNL     1     -11.574  16.191  71.686  1.00  0.00    -0.503 A  
HETATM   31  C   UNL     1     -12.154  16.229  72.956  1.00  0.00    -0.629 A  
HETATM   32  C   UNL     1     -13.451  15.756  73.143  1.00  0.00    -0.652 A  
HETATM   33  C   UNL     1     -14.169  15.250  72.060  1.00  0.00    -0.679 A  
HETATM   34  C   UNL     1     -13.587  15.207  70.790  1.00  0.00    -0.299 A  
ENDBRANCH  28  29
ENDBRANCH  27  28
ENDBRANCH  24  27
ENDBRANCH  23  24
ENDBRANCH  19  22
ENDBRANCH  12  13
ENDBRANCH  11  12
ENDBRANCH   9  10
ENDBRANCH   8   9
ENDBRANCH   7   8
ENDBRANCH   5   7
ENDBRANCH   4   5
ENDBRANCH   2   4
TORSDOF 13
ENDMDL
MODEL      242
REMARK 921   NORMALIZED FREE ENERGY PREDICTED BY IDOCK:   -3.95 KCAL/MOL
REMARK 922        TOTAL FREE ENERGY PREDICTED BY IDOCK:   -9.79 KCAL/MOL
REMARK 923 INTER-LIGAND FREE ENERGY PREDICTED BY IDOCK:   -7.71 KCAL/MOL
REMARK 924 INTRA-LIGAND FREE ENERGY PREDICTED BY IDOCK:   -2.08 KCAL/MOL
REMARK 927      BINDING AFFINITY PREDICTED BY RF-SCORE:    0.00 PKD
ROOT
HETATM    1  C   UNL     1     -11.118  16.713  68.125  1.00  0.00    -0.285 C  
HETATM    2  C   UNL     1     -10.038  16.247  67.154  1.00  0.00    -0.268 C  
HETATM    3  C   UNL     1     -10.417  16.590  65.719  1.00  0.00    -0.343 C  
ENDROOT
BRANCH   2   4
HETATM    4  O   UNL     1      -8.804  16.925  67.451  1.00  0.00    -0.201 OA 
BRANCH   4   5
HETATM    5  C   UNL     1      -7.679  16.338  66.954  1.00  0.00    -0.243 C  
HETATM    6  O   UNL     1      -6.833  16.895  66.270  1.00  0.00    -0.208 OA 
BRANCH   5   7
HETATM    7  C   UNL     1      -7.650  14.879  67.326  1.00  0.00    -0.213 C  
BRANCH   7   8
HETATM    8  C   UNL     1      -7.262  14.703  68.792  1.00  0.00    -0.124 C  
BRANCH   8   9
HETATM    9  C   UNL     1      -6.020  13.824  68.915  1.00  0.00    -0.085 C  
BRANCH   9  10
HETATM   10  C   UNL     1      -6.250  12.647  69.817  1.00  0.00    -0.111 C  
HETATM   11  C   UNL     1      -6.738  11.453  69.444  1.00  0.00    -0.122 C  
BRANCH  11  12
HETATM   12  C   UNL     1      -7.151  11.056  68.051  1.00  0.00    -0.077 C  
BRANCH  12  13
HETATM   13  C   UNL     1      -8.670  10.863  67.964  1.00  0.00    -0.132 C  
HETATM   14  C   UNL     1      -9.365  11.755  66.926  1.00  0.00    -0.192 C  
HETATM   15  C   UNL     1     -10.707  11.065  66.730  1.00  0.00    -0.319 C  
HETATM   16  O   UNL     1      -8.673  11.753  65.679  1.00  0.00    -0.403 OA 
HETATM   17  C   UNL     1     -10.330   9.585  66.661  1.00  0.00    -0.210 C  
HETATM   18  H   UNL     1      -9.105  12.305  65.037  1.00  0.00     0.000 HD 
HETATM   19  C   UNL     1      -9.075   9.421  67.557  1.00  0.00    -0.136 C  
HETATM   20  O   UNL     1     -10.012   9.232  65.313  1.00  0.00    -0.424 OA 
HETATM   21  H   UNL     1      -9.778   8.312  65.270  1.00  0.00     0.000 HD 
BRANCH  19  22
HETATM   22  C   UNL     1      -9.326   8.493  68.729  1.00  0.00    -0.143 C  
HETATM   23  C   UNL     1      -8.699   7.319  68.933  1.00  0.00    -0.128 C  
BRANCH  23  24
HETATM   24  C   UNL     1      -8.858   6.456  70.161  1.00  0.00    -0.150 C  
HETATM   25  F   UNL     1      -8.309   7.082  71.240  1.00  0.00    -0.110 F  
HETATM   26  F   UNL     1      -8.164   5.298  69.992  1.00  0.00    -0.079 F  
BRANCH  24  27
HETATM   27  C   UNL     1     -10.333   6.134  70.452  1.00  0.00    -0.213 C  
BRANCH  27  28
HETATM   28  O   UNL     1     -10.707   6.592  71.759  1.00  0.00    -0.221 OA 
BRANCH  28  29
HETATM   29  C   UNL     1     -11.830   7.374  71.808  1.00  0.00    -0.294 A  
HETATM   30  C   UNL     1     -13.022   6.735  71.460  1.00  0.00    -0.281 A  
HETATM   31  C   UNL     1     -14.230   7.435  71.477  1.00  0.00    -0.571 A  
HETATM   32  C   UNL     1     -14.253   8.775  71.857  1.00  0.00    -0.467 A  
HETATM   33  C   UNL     1     -13.069   9.412  72.226  1.00  0.00    -0.509 A  
HETATM   34  C   UNL     1     -11.858   8.714  72.204  1.00  0.00    -0.447 A  
ENDBRANCH  28  29
ENDBRANCH  27  28
ENDBRANCH  24  27
ENDBRANCH  23  24
ENDBRANCH  19  22
ENDBRANCH  12  13
ENDBRANCH  11  12
ENDBRANCH   9  10
ENDBRANCH   8   9
ENDBRANCH   7   8
ENDBRANCH   5   7
ENDBRANCH   4   5
ENDBRANCH   2   4
TORSDOF 13
ENDMDL
MODEL      243
REMARK 921   NORMALIZED FREE ENERGY PREDICTED BY IDOCK:   -3.91 KCAL/MOL
REMARK 922        TOTAL FREE ENERGY PREDICTED BY IDOCK:   -9.72 KCAL/MOL
REMARK 923 INTER-LIGAND FREE ENERGY PREDICTED BY IDOCK:   -7.99 KCAL/MOL
REMARK 924 INTRA-LIGAND FREE ENERGY PREDICTED BY IDOCK:   -1.73 KCAL/MOL
REMARK 927      BINDING AFFINITY PREDICTED BY RF-SCORE:    0.00 PKD
ROOT
HETATM    1  C   UNL     1     -11.058   8.926  71.243  1.00  0.00    -0.367 C  
HETATM    2  C   UNL     1     -12.269   8.423  72.022  1.00  0.00    -0.362 C  
HETATM    3  C   UNL     1     -12.961   7.290  71.273  1.00  0.00    -0.377 C  
ENDROOT
BRANCH   2   4
HETATM    4  O   UNL     1     -11.838   7.905  73.293  1.00  0.00    -0.137 OA 
BRANCH   4   5
HETATM    5  C   UNL     1     -10.585   7.370  73.313  1.00  0.00    -0.392 C  
HETATM    6  O   UNL     1      -9.542   8.007  73.258  1.00  0.00    -0.277 OA 
BRANCH   5   7
HETATM    7  C   UNL     1     -10.666   5.868  73.362  1.00  0.00    -0.293 C  
BRANCH   7   8
HETATM    8  C   UNL     1      -9.322   5.242  72.995  1.00  0.00    -0.140 C  
BRANCH   8   9
HETATM    9  C   UNL     1      -9.512   4.132  71.964  1.00  0.00    -0.195 C  
BRANCH   9  10
HETATM   10  C   UNL     1     -10.332   4.587  70.793  1.00  0.00    -0.055 C  
HETATM   11  C   UNL     1      -9.928   5.428  69.828  1.00  0.00    -0.294 C  
BRANCH  11  12
HETATM   12  C   UNL     1      -8.577   6.085  69.727  1.00  0.00    -0.130 C  
BRANCH  12  13
HETATM   13  C   UNL     1      -8.377   6.720  68.347  1.00  0.00    -0.123 C  
HETATM   14  C   UNL     1      -7.413   5.956  67.428  1.00  0.00    -0.078 C  
HETATM   15  C   UNL     1      -7.746   6.509  66.051  1.00  0.00    -0.093 C  
HETATM   16  O   UNL     1      -7.684   4.556  67.427  1.00  0.00    -0.087 OA 
HETATM   17  C   UNL     1      -9.274   6.555  66.054  1.00  0.00    -0.045 C  
HETATM   18  H   UNL     1      -7.087   4.083  66.858  1.00  0.00     0.000 HD 
HETATM   19  C   UNL     1      -9.691   6.811  67.526  1.00  0.00    -0.154 C  
HETATM   20  O   UNL     1      -9.794   5.298  65.616  1.00  0.00    -0.333 OA 
HETATM   21  H   UNL     1     -10.744   5.327  65.618  1.00  0.00     0.000 HD 
BRANCH  19  22
HETATM   22  C   UNL     1     -10.435   8.122  67.690  1.00  0.00    -0.300 C  
HETATM   23  C   UNL     1      -9.853   9.329  67.819  1.00  0.00    -0.210 C  
BRANCH  23  24
HETATM   24  C   UNL     1     -10.592  10.645  67.856  1.00  0.00    -0.228 C  
HETATM   25  F   UNL     1     -10.004  11.480  68.757  1.00  0.00    -0.196 F  
HETATM   26  F   UNL     1     -11.863  10.436  68.294  1.00  0.00    -0.298 F  
BRANCH  24  27
HETATM   27  C   UNL     1     -10.628  11.324  66.477  1.00  0.00    -0.266 C  
BRANCH  27  28
HETATM   28  O   UNL     1     -11.750  12.213  66.376  1.00  0.00    -0.489 OA 
BRANCH  28  29
HETATM   29  C   UNL     1     -11.481  13.435  65.819  1.00  0.00    -0.320 A  
HETATM   30  C   UNL     1     -12.501  13.973  65.031  1.00  0.00    -0.446 A  
HETATM   31  C   UNL     1     -12.338  15.216  64.416  1.00  0.00    -0.225 A  
HETATM   32  C   UNL     1     -11.158  15.934  64.599  1.00  0.00    -0.368 A  
HETATM   33  C   UNL     1     -10.145  15.411  65.402  1.00  0.00    -0.394 A  
HETATM   34  C   UNL     1     -10.305  14.165  66.013  1.00  0.00    -0.316 A  
ENDBRANCH  28  29
ENDBRANCH  27  28
ENDBRANCH  24  27
ENDBRANCH  23  24
ENDBRANCH  19  22
ENDBRANCH  12  13
ENDBRANCH  11  12
ENDBRANCH   9  10
ENDBRANCH   8   9
ENDBRANCH   7   8
ENDBRANCH   5   7
ENDBRANCH   4   5
ENDBRANCH   2   4
TORSDOF 13
ENDMDL
MODEL      244
REMARK 921   NORMALIZED FREE ENERGY PREDICTED BY IDOCK:   -3.89 KCAL/MOL
REMARK 922        TOTAL FREE ENERGY PREDICTED BY IDOCK:   -9.68 KCAL/MOL
REMARK 923 INTER-LIGAND FREE ENERGY PREDICTED BY IDOCK:   -7.51 KCAL/MOL
REMARK 924 INTRA-LIGAND FREE ENERGY PREDICTED BY IDOCK:   -2.17 KCAL/MOL
REMARK 927      BINDING AFFINITY PREDICTED BY RF-SCORE:    0.00 PKD
ROOT
HETATM    1  C   UNL     1      -6.836  12.002  67.503  1.00  0.00    -0.128 C  
HETATM    2  C   UNL     1      -6.623  11.255  66.191  1.00  0.00     0.045 C  
HETATM    3  C   UNL     1      -5.164  10.847  66.032  1.00  0.00    -0.129 C  
ENDROOT
BRANCH   2   4
HETATM    4  O   UNL     1      -7.414  10.053  66.191  1.00  0.00    -0.101 OA 
BRANCH   4   5
HETATM    5  C   UNL     1      -8.139   9.828  65.060  1.00  0.00    -0.134 C  
HETATM    6  O   UNL     1      -8.250  10.606  64.123  1.00  0.00    -0.105 OA 
BRANCH   5   7
HETATM    7  C   UNL     1      -8.834   8.495  65.149  1.00  0.00    -0.116 C  
BRANCH   7   8
HETATM    8  C   UNL     1      -8.699   7.908  66.552  1.00  0.00    -0.162 C  
BRANCH   8   9
HETATM    9  C   UNL     1     -10.035   7.975  67.289  1.00  0.00    -0.282 C  
BRANCH   9  10
HETATM   10  C   UNL     1     -10.228   6.805  68.210  1.00  0.00    -0.194 C  
HETATM   11  C   UNL     1     -10.457   6.873  69.531  1.00  0.00    -0.244 C  
BRANCH  11  12
HETATM   12  C   UNL     1     -10.564   8.130  70.353  1.00  0.00    -0.226 C  
BRANCH  12  13
HETATM   13  C   UNL     1     -12.009   8.640  70.391  1.00  0.00     0.151 C  
HETATM   14  C   UNL     1     -12.837   8.121  71.574  1.00  0.00    -0.301 C  
HETATM   15  C   UNL     1     -14.005   9.094  71.624  1.00  0.00    -0.345 C  
HETATM   16  O   UNL     1     -12.119   8.218  72.803  1.00  0.00    -0.554 OA 
HETATM   17  C   UNL     1     -13.337  10.452  71.411  1.00  0.00    -0.280 C  
HETATM   18  H   UNL     1     -12.632   7.897  73.536  1.00  0.00     0.000 HD 
HETATM   19  C   UNL     1     -12.103  10.185  70.510  1.00  0.00    -0.380 C  
HETATM   20  O   UNL     1     -12.912  10.981  72.669  1.00  0.00    -0.116 OA 
HETATM   21  H   UNL     1     -12.497  11.826  72.536  1.00  0.00     0.000 HD 
BRANCH  19  22
HETATM   22  C   UNL     1     -12.200  10.905  69.180  1.00  0.00    -0.181 C  
HETATM   23  C   UNL     1     -11.362  11.874  68.764  1.00  0.00    -0.330 C  
BRANCH  23  24
HETATM   24  C   UNL     1     -11.382  12.503  67.392  1.00  0.00    -0.313 C  
HETATM   25  F   UNL     1     -12.141  11.750  66.548  1.00  0.00    -0.284 F  
HETATM   26  F   UNL     1     -10.122  12.507  66.879  1.00  0.00    -0.216 F  
BRANCH  24  27
HETATM   27  C   UNL     1     -11.928  13.940  67.425  1.00  0.00    -0.401 C  
BRANCH  27  28
HETATM   28  O   UNL     1     -11.404  14.658  68.551  1.00  0.00    -0.258 OA 
BRANCH  28  29
HETATM   29  C   UNL     1     -10.878  15.890  68.268  1.00  0.00    -0.315 A  
HETATM   30  C   UNL     1     -10.681  16.162  66.913  1.00  0.00    -0.247 A  
HETATM   31  C   UNL     1     -10.153  17.390  66.507  1.00  0.00    -0.320 A  
HETATM   32  C   UNL     1      -9.833  18.357  67.457  1.00  0.00    -0.327 A  
HETATM   33  C   UNL     1     -10.047  18.100  68.810  1.00  0.00    -0.392 A  
HETATM   34  C   UNL     1     -10.571  16.869  69.217  1.00  0.00    -0.325 A  
ENDBRANCH  28  29
ENDBRANCH  27  28
ENDBRANCH  24  27
ENDBRANCH  23  24
ENDBRANCH  19  22
ENDBRANCH  12  13
ENDBRANCH  11  12
ENDBRANCH   9  10
ENDBRANCH   8   9
ENDBRANCH   7   8
ENDBRANCH   5   7
ENDBRANCH   4   5
ENDBRANCH   2   4
TORSDOF 13
ENDMDL
MODEL      245
REMARK 921   NORMALIZED FREE ENERGY PREDICTED BY IDOCK:   -3.88 KCAL/MOL
REMARK 922        TOTAL FREE ENERGY PREDICTED BY IDOCK:   -9.67 KCAL/MOL
REMARK 923 INTER-LIGAND FREE ENERGY PREDICTED BY IDOCK:   -7.55 KCAL/MOL
REMARK 924 INTRA-LIGAND FREE ENERGY PREDICTED BY IDOCK:   -2.12 KCAL/MOL
REMARK 927      BINDING AFFINITY PREDICTED BY RF-SCORE:    0.00 PKD
ROOT
HETATM    1  C   UNL     1     -10.523  13.182  64.234  1.00  0.00    -0.410 C  
HETATM    2  C   UNL     1     -10.969  11.733  64.068  1.00  0.00    -0.384 C  
HETATM    3  C   UNL     1     -10.072  11.002  63.076  1.00  0.00    -0.285 C  
ENDROOT
BRANCH   2   4
HETATM    4  O   UNL     1     -10.865  11.053  65.331  1.00  0.00    -0.206 OA 
BRANCH   4   5
HETATM    5  C   UNL     1      -9.676  10.430  65.564  1.00  0.00    -0.249 C  
HETATM    6  O   UNL     1      -8.579  10.840  65.212  1.00  0.00    -0.183 OA 
BRANCH   5   7
HETATM    7  C   UNL     1      -9.908   9.125  66.279  1.00  0.00    -0.359 C  
BRANCH   7   8
HETATM    8  C   UNL     1      -9.012   8.028  65.708  1.00  0.00    -0.148 C  
BRANCH   8   9
HETATM    9  C   UNL     1      -9.050   6.789  66.598  1.00  0.00    -0.164 C  
BRANCH   9  10
HETATM   10  C   UNL     1     -10.445   6.263  66.770  1.00  0.00    -0.311 C  
HETATM   11  C   UNL     1     -11.025   5.934  67.935  1.00  0.00    -0.248 C  
BRANCH  11  12
HETATM   12  C   UNL     1     -10.396   6.025  69.300  1.00  0.00    -0.294 C  
BRANCH  12  13
HETATM   13  C   UNL     1     -10.524   7.442  69.871  1.00  0.00    -0.238 C  
HETATM   14  C   UNL     1     -11.600   7.596  70.955  1.00  0.00    -0.280 C  
HETATM   15  C   UNL     1     -11.212   8.902  71.634  1.00  0.00    -0.415 C  
HETATM   16  O   UNL     1     -11.529   6.550  71.921  1.00  0.00    -0.270 OA 
HETATM   17  C   UNL     1      -9.694   8.789  71.764  1.00  0.00    -0.310 C  
HETATM   18  H   UNL     1     -12.195   6.646  72.593  1.00  0.00     0.000 HD 
HETATM   19  C   UNL     1      -9.223   7.941  70.553  1.00  0.00    -0.158 C  
HETATM   20  O   UNL     1      -9.363   8.119  72.982  1.00  0.00    -0.251 OA 
HETATM   21  H   UNL     1      -8.419   8.050  73.062  1.00  0.00     0.000 HD 
BRANCH  19  22
HETATM   22  C   UNL     1      -8.299   8.718  69.636  1.00  0.00    -0.126 C  
HETATM   23  C   UNL     1      -8.172  10.058  69.622  1.00  0.00    -0.185 C  
BRANCH  23  24
HETATM   24  C   UNL     1      -7.164  10.822  68.798  1.00  0.00    -0.091 C  
HETATM   25  F   UNL     1      -7.155  10.348  67.522  1.00  0.00    -0.081 F  
HETATM   26  F   UNL     1      -5.917  10.608  69.299  1.00  0.00    -0.040 F  
BRANCH  24  27
HETATM   27  C   UNL     1      -7.460  12.331  68.782  1.00  0.00    -0.065 C  
BRANCH  27  28
HETATM   28  O   UNL     1      -8.356  12.663  67.712  1.00  0.00    -0.148 OA 
BRANCH  28  29
HETATM   29  C   UNL     1      -9.428  13.438  68.065  1.00  0.00    -0.218 A  
HETATM   30  C   UNL     1     -10.620  12.747  68.292  1.00  0.00    -0.251 A  
HETATM   31  C   UNL     1     -11.778  13.436  68.660  1.00  0.00    -0.384 A  
HETATM   32  C   UNL     1     -11.744  14.820  68.818  1.00  0.00    -0.354 A  
HETATM   33  C   UNL     1     -10.552  15.513  68.613  1.00  0.00    -0.243 A  
HETATM   34  C   UNL     1      -9.394  14.825  68.238  1.00  0.00    -0.199 A  
ENDBRANCH  28  29
ENDBRANCH  27  28
ENDBRANCH  24  27
ENDBRANCH  23  24
ENDBRANCH  19  22
ENDBRANCH  12  13
ENDBRANCH  11  12
ENDBRANCH   9  10
ENDBRANCH   8   9
ENDBRANCH   7   8
ENDBRANCH   5   7
ENDBRANCH   4   5
ENDBRANCH   2   4
TORSDOF 13
ENDMDL
MODEL      246
REMARK 921   NORMALIZED FREE ENERGY PREDICTED BY IDOCK:   -3.87 KCAL/MOL
REMARK 922        TOTAL FREE ENERGY PREDICTED BY IDOCK:   -9.65 KCAL/MOL
REMARK 923 INTER-LIGAND FREE ENERGY PREDICTED BY IDOCK:   -7.65 KCAL/MOL
REMARK 924 INTRA-LIGAND FREE ENERGY PREDICTED BY IDOCK:   -2.00 KCAL/MOL
REMARK 927      BINDING AFFINITY PREDICTED BY RF-SCORE:    0.00 PKD
ROOT
HETATM    1  C   UNL     1     -12.249  14.293  64.595  1.00  0.00    -0.470 C  
HETATM    2  C   UNL     1     -11.176  14.776  65.564  1.00  0.00    -0.346 C  
HETATM    3  C   UNL     1     -10.114  13.704  65.773  1.00  0.00    -0.311 C  
ENDROOT
BRANCH   2   4
HETATM    4  O   UNL     1     -10.523  15.934  65.015  1.00  0.00    -0.518 OA 
BRANCH   4   5
HETATM    5  C   UNL     1     -10.142  16.877  65.922  1.00  0.00    -0.283 C  
HETATM    6  O   UNL     1     -10.880  17.709  66.431  1.00  0.00    -0.144 OA 
BRANCH   5   7
HETATM    7  C   UNL     1      -8.661  16.782  66.175  1.00  0.00    -0.299 C  
BRANCH   7   8
HETATM    8  C   UNL     1      -8.193  17.921  67.078  1.00  0.00    -0.241 C  
BRANCH   8   9
HETATM    9  C   UNL     1      -8.360  17.541  68.548  1.00  0.00    -0.274 C  
BRANCH   9  10
HETATM   10  C   UNL     1      -8.141  16.074  68.778  1.00  0.00    -0.212 C  
HETATM   11  C   UNL     1      -9.052  15.206  69.246  1.00  0.00    -0.201 C  
BRANCH  11  12
HETATM   12  C   UNL     1     -10.472  15.528  69.635  1.00  0.00    -0.289 C  
BRANCH  12  13
HETATM   13  C   UNL     1     -11.043  14.451  70.564  1.00  0.00     0.089 C  
HETATM   14  C   UNL     1     -11.596  14.985  71.892  1.00  0.00    -0.349 C  
HETATM   15  C   UNL     1     -12.471  13.841  72.380  1.00  0.00    -0.017 C  
HETATM   16  O   UNL     1     -12.423  16.131  71.697  1.00  0.00    -0.560 OA 
HETATM   17  C   UNL     1     -13.206  13.400  71.115  1.00  0.00    -0.103 C  
HETATM   18  H   UNL     1     -12.766  16.461  72.520  1.00  0.00     0.000 HD 
HETATM   19  C   UNL     1     -12.237  13.683  69.937  1.00  0.00    -0.367 C  
HETATM   20  O   UNL     1     -14.398  14.173  70.957  1.00  0.00    -0.146 OA 
HETATM   21  H   UNL     1     -14.855  13.899  70.171  1.00  0.00     0.000 HD 
BRANCH  19  22
HETATM   22  C   UNL     1     -11.844  12.416  69.204  1.00  0.00    -0.352 C  
HETATM   23  C   UNL     1     -10.638  11.822  69.282  1.00  0.00    -0.052 C  
BRANCH  23  24
HETATM   24  C   UNL     1     -10.286  10.495  68.652  1.00  0.00    -0.185 C  
HETATM   25  F   UNL     1      -9.247  10.656  67.787  1.00  0.00    -0.142 F  
HETATM   26  F   UNL     1     -11.340  10.053  67.914  1.00  0.00    -0.326 F  
BRANCH  24  27
HETATM   27  C   UNL     1      -9.917   9.438  69.705  1.00  0.00    -0.200 C  
BRANCH  27  28
HETATM   28  O   UNL     1     -10.312   8.128  69.274  1.00  0.00    -0.211 OA 
BRANCH  28  29
HETATM   29  C   UNL     1      -9.942   7.102  70.100  1.00  0.00    -0.186 A  
HETATM   30  C   UNL     1     -10.845   6.039  70.181  1.00  0.00    -0.409 A  
HETATM   31  C   UNL     1     -10.568   4.936  70.992  1.00  0.00    -0.085 A  
HETATM   32  C   UNL     1      -9.379   4.885  71.715  1.00  0.00    -0.185 A  
HETATM   33  C   UNL     1      -8.464   5.932  71.622  1.00  0.00    -0.128 A  
HETATM   34  C   UNL     1      -8.742   7.039  70.815  1.00  0.00    -0.148 A  
ENDBRANCH  28  29
ENDBRANCH  27  28
ENDBRANCH  24  27
ENDBRANCH  23  24
ENDBRANCH  19  22
ENDBRANCH  12  13
ENDBRANCH  11  12
ENDBRANCH   9  10
ENDBRANCH   8   9
ENDBRANCH   7   8
ENDBRANCH   5   7
ENDBRANCH   4   5
ENDBRANCH   2   4
TORSDOF 13
ENDMDL
MODEL      247
REMARK 921   NORMALIZED FREE ENERGY PREDICTED BY IDOCK:   -3.87 KCAL/MOL
REMARK 922        TOTAL FREE ENERGY PREDICTED BY IDOCK:   -9.65 KCAL/MOL
REMARK 923 INTER-LIGAND FREE ENERGY PREDICTED BY IDOCK:   -7.38 KCAL/MOL
REMARK 924 INTRA-LIGAND FREE ENERGY PREDICTED BY IDOCK:   -2.27 KCAL/MOL
REMARK 927      BINDING AFFINITY PREDICTED BY RF-SCORE:    0.00 PKD
ROOT
HETATM    1  C   UNL     1      -8.938   4.227  67.104  1.00  0.00    -0.133 C  
HETATM    2  C   UNL     1      -9.058   4.903  65.742  1.00  0.00    -0.148 C  
HETATM    3  C   UNL     1     -10.406   4.592  65.102  1.00  0.00    -0.144 C  
ENDROOT
BRANCH   2   4
HETATM    4  O   UNL     1      -8.975   6.329  65.907  1.00  0.00    -0.156 OA 
BRANCH   4   5
HETATM    5  C   UNL     1      -8.144   6.972  65.038  1.00  0.00    -0.119 C  
HETATM    6  O   UNL     1      -7.750   6.522  63.971  1.00  0.00    -0.094 OA 
BRANCH   5   7
HETATM    7  C   UNL     1      -7.736   8.305  65.605  1.00  0.00    -0.092 C  
BRANCH   7   8
HETATM    8  C   UNL     1      -6.883   8.121  66.858  1.00  0.00    -0.069 C  
BRANCH   8   9
HETATM    9  C   UNL     1      -6.924   9.380  67.722  1.00  0.00    -0.080 C  
BRANCH   9  10
HETATM   10  C   UNL     1      -8.330   9.824  68.001  1.00  0.00    -0.110 C  
HETATM   11  C   UNL     1      -9.116   9.373  68.991  1.00  0.00    -0.142 C  
BRANCH  11  12
HETATM   12  C   UNL     1      -8.750   8.333  70.016  1.00  0.00    -0.133 C  
BRANCH  12  13
HETATM   13  C   UNL     1      -9.918   7.373  70.266  1.00  0.00    -0.188 C  
HETATM   14  C   UNL     1      -9.536   5.886  70.245  1.00  0.00    -0.163 C  
HETATM   15  C   UNL     1     -10.714   5.224  70.945  1.00  0.00    -0.189 C  
HETATM   16  O   UNL     1      -8.360   5.633  71.010  1.00  0.00    -0.118 OA 
HETATM   17  C   UNL     1     -10.984   6.153  72.127  1.00  0.00    -0.262 C  
HETATM   18  H   UNL     1      -8.124   4.712  70.997  1.00  0.00     0.000 HD 
HETATM   19  C   UNL     1     -10.582   7.575  71.654  1.00  0.00    -0.232 C  
HETATM   20  O   UNL     1     -10.174   5.767  73.239  1.00  0.00    -0.180 OA 
HETATM   21  H   UNL     1     -10.343   6.344  73.974  1.00  0.00     0.000 HD 
BRANCH  19  22
HETATM   22  C   UNL     1     -11.760   8.530  71.647  1.00  0.00    -0.369 C  
HETATM   23  C   UNL     1     -11.700   9.826  71.287  1.00  0.00    -0.472 C  
BRANCH  23  24
HETATM   24  C   UNL     1     -12.893  10.743  71.159  1.00  0.00    -0.414 C  
HETATM   25  F   UNL     1     -13.471  10.921  72.379  1.00  0.00    -0.512 F  
HETATM   26  F   UNL     1     -13.831  10.155  70.368  1.00  0.00    -0.219 F  
BRANCH  24  27
HETATM   27  C   UNL     1     -12.507  12.110  70.571  1.00  0.00    -0.198 C  
BRANCH  27  28
HETATM   28  O   UNL     1     -11.317  12.006  69.776  1.00  0.00    -0.225 OA 
BRANCH  28  29
HETATM   29  C   UNL     1     -11.414  12.504  68.505  1.00  0.00    -0.305 A  
HETATM   30  C   UNL     1     -11.458  13.896  68.407  1.00  0.00    -0.346 A  
HETATM   31  C   UNL     1     -11.554  14.515  67.158  1.00  0.00    -0.406 A  
HETATM   32  C   UNL     1     -11.592  13.742  66.000  1.00  0.00    -0.361 A  
HETATM   33  C   UNL     1     -11.528  12.352  66.090  1.00  0.00    -0.430 A  
HETATM   34  C   UNL     1     -11.438  11.732  67.340  1.00  0.00    -0.375 A  
ENDBRANCH  28  29
ENDBRANCH  27  28
ENDBRANCH  24  27
ENDBRANCH  23  24
ENDBRANCH  19  22
ENDBRANCH  12  13
ENDBRANCH  11  12
ENDBRANCH   9  10
ENDBRANCH   8   9
ENDBRANCH   7   8
ENDBRANCH   5   7
ENDBRANCH   4   5
ENDBRANCH   2   4
TORSDOF 13
ENDMDL
MODEL      248
REMARK 921   NORMALIZED FREE ENERGY PREDICTED BY IDOCK:   -3.86 KCAL/MOL
REMARK 922        TOTAL FREE ENERGY PREDICTED BY IDOCK:   -9.62 KCAL/MOL
REMARK 923 INTER-LIGAND FREE ENERGY PREDICTED BY IDOCK:   -7.29 KCAL/MOL
REMARK 924 INTRA-LIGAND FREE ENERGY PREDICTED BY IDOCK:   -2.33 KCAL/MOL
REMARK 927      BINDING AFFINITY PREDICTED BY RF-SCORE:    0.00 PKD
ROOT
HETATM    1  C   UNL     1      -5.692   5.934  66.187  1.00  0.00    -0.013 C  
HETATM    2  C   UNL     1      -7.035   5.212  66.180  1.00  0.00    -0.067 C  
HETATM    3  C   UNL     1      -7.511   4.941  67.601  1.00  0.00    -0.079 C  
ENDROOT
BRANCH   2   4
HETATM    4  O   UNL     1      -8.022   6.042  65.542  1.00  0.00    -0.103 OA 
BRANCH   4   5
HETATM    5  C   UNL     1      -8.488   5.585  64.346  1.00  0.00    -0.080 C  
HETATM    6  O   UNL     1      -9.137   4.561  64.183  1.00  0.00    -0.151 OA 
BRANCH   5   7
HETATM    7  C   UNL     1      -8.043   6.498  63.235  1.00  0.00    -0.024 C  
BRANCH   7   8
HETATM    8  C   UNL     1      -7.653   7.869  63.785  1.00  0.00    -0.129 C  
BRANCH   8   9
HETATM    9  C   UNL     1      -8.501   8.964  63.142  1.00  0.00    -0.162 C  
BRANCH   9  10
HETATM   10  C   UNL     1      -8.391  10.266  63.880  1.00  0.00    -0.165 C  
HETATM   11  C   UNL     1      -9.065  10.601  64.992  1.00  0.00    -0.229 C  
BRANCH  11  12
HETATM   12  C   UNL     1     -10.065   9.741  65.720  1.00  0.00    -0.308 C  
BRANCH  12  13
HETATM   13  C   UNL     1      -9.916   9.893  67.238  1.00  0.00    -0.245 C  
HETATM   14  C   UNL     1      -9.197   8.726  67.927  1.00  0.00    -0.139 C  
HETATM   15  C   UNL     1      -8.794   9.320  69.269  1.00  0.00    -0.146 C  
HETATM   16  O   UNL     1      -8.011   8.350  67.229  1.00  0.00    -0.103 OA 
HETATM   17  C   UNL     1      -8.279  10.709  68.894  1.00  0.00    -0.145 C  
HETATM   18  H   UNL     1      -7.566   7.628  67.656  1.00  0.00     0.000 HD 
HETATM   19  C   UNL     1      -9.088  11.142  67.643  1.00  0.00    -0.147 C  
HETATM   20  O   UNL     1      -6.889  10.636  68.569  1.00  0.00    -0.062 OA 
HETATM   21  H   UNL     1      -6.569  11.500  68.337  1.00  0.00     0.000 HD 
BRANCH  19  22
HETATM   22  C   UNL     1      -9.921  12.382  67.902  1.00  0.00    -0.204 C  
HETATM   23  C   UNL     1      -9.618  13.620  67.468  1.00  0.00    -0.220 C  
BRANCH  23  24
HETATM   24  C   UNL     1     -10.507  14.830  67.618  1.00  0.00    -0.254 C  
HETATM   25  F   UNL     1     -11.729  14.577  67.072  1.00  0.00    -0.349 F  
HETATM   26  F   UNL     1      -9.978  15.869  66.915  1.00  0.00    -0.232 F  
BRANCH  24  27
HETATM   27  C   UNL     1     -10.679  15.240  69.090  1.00  0.00    -0.251 C  
BRANCH  27  28
HETATM   28  O   UNL     1     -12.039  15.608  69.361  1.00  0.00    -0.356 OA 
BRANCH  28  29
HETATM   29  C   UNL     1     -12.660  14.879  70.341  1.00  0.00    -0.343 A  
HETATM   30  C   UNL     1     -12.217  13.562  70.481  1.00  0.00    -0.433 A  
HETATM   31  C   UNL     1     -12.777  12.727  71.450  1.00  0.00    -0.353 A  
HETATM   32  C   UNL     1     -13.773  13.212  72.295  1.00  0.00    -0.647 A  
HETATM   33  C   UNL     1     -14.205  14.533  72.174  1.00  0.00    -0.619 A  
HETATM   34  C   UNL     1     -13.648  15.367  71.200  1.00  0.00    -0.536 A  
ENDBRANCH  28  29
ENDBRANCH  27  28
ENDBRANCH  24  27
ENDBRANCH  23  24
ENDBRANCH  19  22
ENDBRANCH  12  13
ENDBRANCH  11  12
ENDBRANCH   9  10
ENDBRANCH   8   9
ENDBRANCH   7   8
ENDBRANCH   5   7
ENDBRANCH   4   5
ENDBRANCH   2   4
TORSDOF 13
ENDMDL
MODEL      249
REMARK 921   NORMALIZED FREE ENERGY PREDICTED BY IDOCK:   -3.85 KCAL/MOL
REMARK 922        TOTAL FREE ENERGY PREDICTED BY IDOCK:   -9.62 KCAL/MOL
REMARK 923 INTER-LIGAND FREE ENERGY PREDICTED BY IDOCK:   -7.87 KCAL/MOL
REMARK 924 INTRA-LIGAND FREE ENERGY PREDICTED BY IDOCK:   -1.75 KCAL/MOL
REMARK 927      BINDING AFFINITY PREDICTED BY RF-SCORE:    0.00 PKD
ROOT
HETATM    1  C   UNL     1      -8.494   7.194  66.536  1.00  0.00    -0.125 C  
HETATM    2  C   UNL     1      -8.633   8.712  66.580  1.00  0.00    -0.116 C  
HETATM    3  C   UNL     1      -9.540   9.204  65.460  1.00  0.00    -0.239 C  
ENDROOT
BRANCH   2   4
HETATM    4  O   UNL     1      -9.233   9.100  67.828  1.00  0.00    -0.133 OA 
BRANCH   4   5
HETATM    5  C   UNL     1      -8.489   9.943  68.598  1.00  0.00    -0.114 C  
HETATM    6  O   UNL     1      -8.826  11.064  68.951  1.00  0.00    -0.164 OA 
BRANCH   5   7
HETATM    7  C   UNL     1      -7.159   9.313  68.916  1.00  0.00    -0.068 C  
BRANCH   7   8
HETATM    8  C   UNL     1      -7.310   8.249  70.001  1.00  0.00    -0.063 C  
BRANCH   8   9
HETATM    9  C   UNL     1      -7.598   8.899  71.351  1.00  0.00    -0.118 C  
BRANCH   9  10
HETATM   10  C   UNL     1      -7.013   8.115  72.490  1.00  0.00    -0.101 C  
HETATM   11  C   UNL     1      -7.688   7.647  73.552  1.00  0.00    -0.153 C  
BRANCH  11  12
HETATM   12  C   UNL     1      -9.161   7.816  73.816  1.00  0.00    -0.316 C  
BRANCH  12  13
HETATM   13  C   UNL     1      -9.990   7.374  72.605  1.00  0.00    -0.241 C  
HETATM   14  C   UNL     1      -9.698   5.947  72.120  1.00  0.00    -0.155 C  
HETATM   15  C   UNL     1     -10.914   5.624  71.265  1.00  0.00    -0.251 C  
HETATM   16  O   UNL     1      -9.652   5.021  73.204  1.00  0.00    -0.139 OA 
HETATM   17  C   UNL     1     -12.078   6.161  72.098  1.00  0.00    -0.207 C  
HETATM   18  H   UNL     1      -9.471   4.137  72.903  1.00  0.00     0.000 HD 
HETATM   19  C   UNL     1     -11.517   7.375  72.883  1.00  0.00    -0.269 C  
HETATM   20  O   UNL     1     -12.520   5.156  73.012  1.00  0.00    -0.402 OA 
HETATM   21  H   UNL     1     -13.244   5.490  73.529  1.00  0.00     0.000 HD 
BRANCH  19  22
HETATM   22  C   UNL     1     -12.214   8.669  72.510  1.00  0.00    -0.374 C  
HETATM   23  C   UNL     1     -11.927   9.417  71.429  1.00  0.00    -0.446 C  
BRANCH  23  24
HETATM   24  C   UNL     1     -12.702  10.636  70.990  1.00  0.00    -0.415 C  
HETATM   25  F   UNL     1     -13.378  11.160  72.050  1.00  0.00    -0.546 F  
HETATM   26  F   UNL     1     -13.641  10.269  70.076  1.00  0.00    -0.127 F  
BRANCH  24  27
HETATM   27  C   UNL     1     -11.787  11.713  70.384  1.00  0.00    -0.293 C  
BRANCH  27  28
HETATM   28  O   UNL     1     -12.050  11.874  68.982  1.00  0.00    -0.284 OA 
BRANCH  28  29
HETATM   29  C   UNL     1     -11.735  13.102  68.464  1.00  0.00    -0.352 A  
HETATM   30  C   UNL     1     -11.479  14.103  69.404  1.00  0.00    -0.337 A  
HETATM   31  C   UNL     1     -11.145  15.394  68.988  1.00  0.00    -0.268 A  
HETATM   32  C   UNL     1     -11.050  15.685  67.629  1.00  0.00    -0.305 A  
HETATM   33  C   UNL     1     -11.284  14.684  66.687  1.00  0.00    -0.349 A  
HETATM   34  C   UNL     1     -11.624  13.394  67.102  1.00  0.00    -0.399 A  
ENDBRANCH  28  29
ENDBRANCH  27  28
ENDBRANCH  24  27
ENDBRANCH  23  24
ENDBRANCH  19  22
ENDBRANCH  12  13
ENDBRANCH  11  12
ENDBRANCH   9  10
ENDBRANCH   8   9
ENDBRANCH   7   8
ENDBRANCH   5   7
ENDBRANCH   4   5
ENDBRANCH   2   4
TORSDOF 13
ENDMDL
MODEL      250
REMARK 921   NORMALIZED FREE ENERGY PREDICTED BY IDOCK:   -3.85 KCAL/MOL
REMARK 922        TOTAL FREE ENERGY PREDICTED BY IDOCK:   -9.61 KCAL/MOL
REMARK 923 INTER-LIGAND FREE ENERGY PREDICTED BY IDOCK:   -8.13 KCAL/MOL
REMARK 924 INTRA-LIGAND FREE ENERGY PREDICTED BY IDOCK:   -1.48 KCAL/MOL
REMARK 927      BINDING AFFINITY PREDICTED BY RF-SCORE:    0.00 PKD
ROOT
HETATM    1  C   UNL     1     -11.125   6.382  69.035  1.00  0.00    -0.424 C  
HETATM    2  C   UNL     1     -10.690   5.734  70.345  1.00  0.00    -0.302 C  
HETATM    3  C   UNL     1      -9.247   5.254  70.257  1.00  0.00    -0.185 C  
ENDROOT
BRANCH   2   4
HETATM    4  O   UNL     1     -10.761   6.705  71.405  1.00  0.00    -0.222 OA 
BRANCH   4   5
HETATM    5  C   UNL     1     -11.894   7.460  71.432  1.00  0.00    -0.300 C  
HETATM    6  O   UNL     1     -12.999   7.068  71.780  1.00  0.00    -0.359 OA 
BRANCH   5   7
HETATM    7  C   UNL     1     -11.604   8.846  70.921  1.00  0.00    -0.331 C  
BRANCH   7   8
HETATM    8  C   UNL     1     -10.125   9.187  71.093  1.00  0.00    -0.384 C  
BRANCH   8   9
HETATM    9  C   UNL     1      -9.589   9.885  69.846  1.00  0.00    -0.265 C  
BRANCH   9  10
HETATM   10  C   UNL     1      -8.524   9.078  69.162  1.00  0.00    -0.128 C  
HETATM   11  C   UNL     1      -7.636   9.541  68.269  1.00  0.00    -0.078 C  
BRANCH  11  12
HETATM   12  C   UNL     1      -7.530  10.959  67.772  1.00  0.00    -0.094 C  
BRANCH  12  13
HETATM   13  C   UNL     1      -8.057  11.079  66.337  1.00  0.00    -0.166 C  
HETATM   14  C   UNL     1      -7.102  10.542  65.262  1.00  0.00    -0.047 C  
HETATM   15  C   UNL     1      -8.014  10.363  64.058  1.00  0.00    -0.073 C  
HETATM   16  O   UNL     1      -6.571   9.267  65.617  1.00  0.00    -0.067 OA 
HETATM   17  C   UNL     1      -9.269   9.734  64.662  1.00  0.00    -0.255 C  
HETATM   18  H   UNL     1      -5.980   8.935  64.951  1.00  0.00     0.000 HD 
HETATM   19  C   UNL     1      -9.372  10.287  66.107  1.00  0.00    -0.211 C  
HETATM   20  O   UNL     1      -9.125   8.312  64.698  1.00  0.00    -0.330 OA 
HETATM   21  H   UNL     1      -9.906   7.921  65.073  1.00  0.00     0.000 HD 
BRANCH  19  22
HETATM   22  C   UNL     1     -10.632  11.103  66.319  1.00  0.00    -0.309 C  
HETATM   23  C   UNL     1     -10.663  12.423  66.582  1.00  0.00    -0.263 C  
BRANCH  23  24
HETATM   24  C   UNL     1     -11.917  13.258  66.669  1.00  0.00    -0.388 C  
HETATM   25  F   UNL     1     -12.482  13.117  67.900  1.00  0.00    -0.251 F  
HETATM   26  F   UNL     1     -12.829  12.797  65.770  1.00  0.00    -0.380 F  
BRANCH  24  27
HETATM   27  C   UNL     1     -11.638  14.746  66.401  1.00  0.00    -0.299 C  
BRANCH  27  28
HETATM   28  O   UNL     1     -10.756  15.287  67.396  1.00  0.00    -0.280 OA 
BRANCH  28  29
HETATM   29  C   UNL     1      -9.972  16.329  66.980  1.00  0.00    -0.255 A  
HETATM   30  C   UNL     1     -10.506  17.602  67.188  1.00  0.00    -0.319 A  
HETATM   31  C   UNL     1      -9.791  18.740  66.805  1.00  0.00    -0.374 A  
HETATM   32  C   UNL     1      -8.531  18.607  66.225  1.00  0.00    -0.241 A  
HETATM   33  C   UNL     1      -7.984  17.339  66.035  1.00  0.00    -0.196 A  
HETATM   34  C   UNL     1      -8.701  16.200  66.412  1.00  0.00    -0.360 A  
ENDBRANCH  28  29
ENDBRANCH  27  28
ENDBRANCH  24  27
ENDBRANCH  23  24
ENDBRANCH  19  22
ENDBRANCH  12  13
ENDBRANCH  11  12
ENDBRANCH   9  10
ENDBRANCH   8   9
ENDBRANCH   7   8
ENDBRANCH   5   7
ENDBRANCH   4   5
ENDBRANCH   2   4
TORSDOF 13
ENDMDL
MODEL      251
REMARK 921   NORMALIZED FREE ENERGY PREDICTED BY IDOCK:   -3.84 KCAL/MOL
REMARK 922        TOTAL FREE ENERGY PREDICTED BY IDOCK:   -9.60 KCAL/MOL
REMARK 923 INTER-LIGAND FREE ENERGY PREDICTED BY IDOCK:   -8.39 KCAL/MOL
REMARK 924 INTRA-LIGAND FREE ENERGY PREDICTED BY IDOCK:   -1.20 KCAL/MOL
REMARK 927      BINDING AFFINITY PREDICTED BY RF-SCORE:    0.00 PKD
ROOT
HETATM    1  C   UNL     1      -6.161   6.947  66.023  1.00  0.00    -0.035 C  
HETATM    2  C   UNL     1      -7.391   6.314  66.663  1.00  0.00    -0.078 C  
HETATM    3  C   UNL     1      -7.297   4.793  66.627  1.00  0.00    -0.082 C  
ENDROOT
BRANCH   2   4
HETATM    4  O   UNL     1      -7.470   6.711  68.043  1.00  0.00    -0.093 OA 
BRANCH   4   5
HETATM    5  C   UNL     1      -6.690   5.998  68.903  1.00  0.00    -0.060 C  
HETATM    6  O   UNL     1      -5.531   5.666  68.700  1.00  0.00    -0.006 OA 
BRANCH   5   7
HETATM    7  C   UNL     1      -7.480   5.629  70.131  1.00  0.00    -0.077 C  
BRANCH   7   8
HETATM    8  C   UNL     1      -8.137   6.864  70.743  1.00  0.00    -0.114 C  
BRANCH   8   9
HETATM    9  C   UNL     1      -8.742   6.529  72.104  1.00  0.00    -0.131 C  
BRANCH   9  10
HETATM   10  C   UNL     1      -9.978   5.688  71.978  1.00  0.00    -0.217 C  
HETATM   11  C   UNL     1     -11.223   6.064  72.311  1.00  0.00    -0.341 C  
BRANCH  11  12
HETATM   12  C   UNL     1     -11.629   7.400  72.877  1.00  0.00    -0.200 C  
BRANCH  12  13
HETATM   13  C   UNL     1     -12.357   8.244  71.824  1.00  0.00    -0.366 C  
HETATM   14  C   UNL     1     -13.860   8.419  72.077  1.00  0.00    -0.388 C  
HETATM   15  C   UNL     1     -14.215   9.611  71.201  1.00  0.00     0.281 C  
HETATM   16  O   UNL     1     -14.130   8.764  73.434  1.00  0.00    -1.167 OA 
HETATM   17  C   UNL     1     -13.057  10.579  71.443  1.00  0.00    -0.410 C  
HETATM   18  H   UNL     1     -15.061   8.873  73.591  1.00  0.00     0.000 HD 
HETATM   19  C   UNL     1     -11.815   9.695  71.732  1.00  0.00    -0.391 C  
HETATM   20  O   UNL     1     -13.343  11.397  72.579  1.00  0.00    -0.510 OA 
HETATM   21  H   UNL     1     -12.624  11.999  72.730  1.00  0.00     0.000 HD 
BRANCH  19  22
HETATM   22  C   UNL     1     -10.724   9.886  70.696  1.00  0.00    -0.372 C  
HETATM   23  C   UNL     1     -10.703   9.307  69.481  1.00  0.00    -0.236 C  
BRANCH  23  24
HETATM   24  C   UNL     1      -9.684   9.593  68.405  1.00  0.00    -0.150 C  
HETATM   25  F   UNL     1      -8.585   8.811  68.588  1.00  0.00    -0.127 F  
HETATM   26  F   UNL     1      -9.264  10.883  68.514  1.00  0.00    -0.150 F  
BRANCH  24  27
HETATM   27  C   UNL     1     -10.253   9.355  66.996  1.00  0.00    -0.255 C  
BRANCH  27  28
HETATM   28  O   UNL     1      -9.668  10.261  66.050  1.00  0.00    -0.193 OA 
BRANCH  28  29
HETATM   29  C   UNL     1     -10.525  11.184  65.514  1.00  0.00    -0.256 A  
HETATM   30  C   UNL     1     -10.409  11.384  64.137  1.00  0.00    -0.400 A  
HETATM   31  C   UNL     1     -11.236  12.300  63.483  1.00  0.00    -0.535 A  
HETATM   32  C   UNL     1     -12.193  13.010  64.203  1.00  0.00    -0.471 A  
HETATM   33  C   UNL     1     -12.329  12.800  65.574  1.00  0.00    -0.495 A  
HETATM   34  C   UNL     1     -11.498  11.888  66.230  1.00  0.00    -0.367 A  
ENDBRANCH  28  29
ENDBRANCH  27  28
ENDBRANCH  24  27
ENDBRANCH  23  24
ENDBRANCH  19  22
ENDBRANCH  12  13
ENDBRANCH  11  12
ENDBRANCH   9  10
ENDBRANCH   8   9
ENDBRANCH   7   8
ENDBRANCH   5   7
ENDBRANCH   4   5
ENDBRANCH   2   4
TORSDOF 13
ENDMDL
MODEL      252
REMARK 921   NORMALIZED FREE ENERGY PREDICTED BY IDOCK:   -3.82 KCAL/MOL
REMARK 922        TOTAL FREE ENERGY PREDICTED BY IDOCK:   -9.55 KCAL/MOL
REMARK 923 INTER-LIGAND FREE ENERGY PREDICTED BY IDOCK:   -6.53 KCAL/MOL
REMARK 924 INTRA-LIGAND FREE ENERGY PREDICTED BY IDOCK:   -3.03 KCAL/MOL
REMARK 927      BINDING AFFINITY PREDICTED BY RF-SCORE:    0.00 PKD
ROOT
HETATM    1  C   UNL     1     -13.046   9.840  71.567  1.00  0.00    -0.506 C  
HETATM    2  C   UNL     1     -12.258   8.583  71.922  1.00  0.00    -0.352 C  
HETATM    3  C   UNL     1     -13.112   7.336  71.726  1.00  0.00    -0.365 C  
ENDROOT
BRANCH   2   4
HETATM    4  O   UNL     1     -11.119   8.472  71.051  1.00  0.00    -0.244 OA 
BRANCH   4   5
HETATM    5  C   UNL     1      -9.945   8.145  71.661  1.00  0.00    -0.192 C  
HETATM    6  O   UNL     1      -9.187   8.934  72.208  1.00  0.00    -0.376 OA 
BRANCH   5   7
HETATM    7  C   UNL     1      -9.684   6.669  71.523  1.00  0.00    -0.172 C  
BRANCH   7   8
HETATM    8  C   UNL     1      -9.251   6.328  70.098  1.00  0.00    -0.162 C  
BRANCH   8   9
HETATM    9  C   UNL     1     -10.374   5.607  69.357  1.00  0.00    -0.343 C  
BRANCH   9  10
HETATM   10  C   UNL     1     -11.032   6.489  68.337  1.00  0.00    -0.358 C  
HETATM   11  C   UNL     1     -10.900   6.387  67.005  1.00  0.00    -0.464 C  
BRANCH  11  12
HETATM   12  C   UNL     1     -10.068   5.371  66.267  1.00  0.00    -0.209 C  
BRANCH  12  13
HETATM   13  C   UNL     1      -8.580   5.733  66.328  1.00  0.00    -0.130 C  
HETATM   14  C   UNL     1      -7.646   4.542  66.583  1.00  0.00    -0.086 C  
HETATM   15  C   UNL     1      -6.289   5.077  66.150  1.00  0.00    -0.039 C  
HETATM   16  O   UNL     1      -7.974   3.427  65.756  1.00  0.00    -0.091 OA 
HETATM   17  C   UNL     1      -6.605   5.819  64.852  1.00  0.00    -0.042 C  
HETATM   18  H   UNL     1      -7.394   2.691  65.914  1.00  0.00     0.000 HD 
HETATM   19  C   UNL     1      -8.053   6.352  65.006  1.00  0.00    -0.135 C  
HETATM   20  O   UNL     1      -6.539   4.911  63.750  1.00  0.00    -0.035 OA 
HETATM   21  H   UNL     1      -6.735   5.372  62.943  1.00  0.00     0.000 HD 
BRANCH  19  22
HETATM   22  C   UNL     1      -8.112   7.867  64.964  1.00  0.00    -0.144 C  
HETATM   23  C   UNL     1      -7.065   8.686  65.179  1.00  0.00    -0.086 C  
BRANCH  23  24
HETATM   24  C   UNL     1      -7.094  10.187  65.014  1.00  0.00    -0.135 C  
HETATM   25  F   UNL     1      -8.296  10.573  64.504  1.00  0.00    -0.168 F  
HETATM   26  F   UNL     1      -6.151  10.559  64.107  1.00  0.00    -0.136 F  
BRANCH  24  27
HETATM   27  C   UNL     1      -6.845  10.917  66.344  1.00  0.00    -0.135 C  
BRANCH  27  28
HETATM   28  O   UNL     1      -7.492  10.236  67.429  1.00  0.00    -0.093 OA 
BRANCH  28  29
HETATM   29  C   UNL     1      -8.697  10.758  67.814  1.00  0.00    -0.130 A  
HETATM   30  C   UNL     1      -9.740   9.838  67.933  1.00  0.00    -0.168 A  
HETATM   31  C   UNL     1     -11.014  10.259  68.322  1.00  0.00    -0.315 A  
HETATM   32  C   UNL     1     -11.245  11.602  68.609  1.00  0.00    -0.308 A  
HETATM   33  C   UNL     1     -10.202  12.523  68.513  1.00  0.00    -0.210 A  
HETATM   34  C   UNL     1      -8.929  12.103  68.118  1.00  0.00    -0.195 A  
ENDBRANCH  28  29
ENDBRANCH  27  28
ENDBRANCH  24  27
ENDBRANCH  23  24
ENDBRANCH  19  22
ENDBRANCH  12  13
ENDBRANCH  11  12
ENDBRANCH   9  10
ENDBRANCH   8   9
ENDBRANCH   7   8
ENDBRANCH   5   7
ENDBRANCH   4   5
ENDBRANCH   2   4
TORSDOF 13
ENDMDL
MODEL      253
REMARK 921   NORMALIZED FREE ENERGY PREDICTED BY IDOCK:   -3.82 KCAL/MOL
REMARK 922        TOTAL FREE ENERGY PREDICTED BY IDOCK:   -9.55 KCAL/MOL
REMARK 923 INTER-LIGAND FREE ENERGY PREDICTED BY IDOCK:   -7.88 KCAL/MOL
REMARK 924 INTRA-LIGAND FREE ENERGY PREDICTED BY IDOCK:   -1.67 KCAL/MOL
REMARK 927      BINDING AFFINITY PREDICTED BY RF-SCORE:    0.00 PKD
ROOT
HETATM    1  C   UNL     1      -9.064   3.788  67.035  1.00  0.00    -0.179 C  
HETATM    2  C   UNL     1      -8.991   4.236  65.579  1.00  0.00    -0.132 C  
HETATM    3  C   UNL     1     -10.109   3.599  64.761  1.00  0.00    -0.133 C  
ENDROOT
BRANCH   2   4
HETATM    4  O   UNL     1      -9.161   5.662  65.509  1.00  0.00    -0.144 OA 
BRANCH   4   5
HETATM    5  C   UNL     1      -8.274   6.319  64.709  1.00  0.00    -0.100 C  
HETATM    6  O   UNL     1      -7.718   5.844  63.729  1.00  0.00    -0.085 OA 
BRANCH   5   7
HETATM    7  C   UNL     1      -8.034   7.709  65.236  1.00  0.00    -0.129 C  
BRANCH   7   8
HETATM    8  C   UNL     1      -7.168   7.668  66.493  1.00  0.00    -0.082 C  
BRANCH   8   9
HETATM    9  C   UNL     1      -7.397   8.917  67.340  1.00  0.00    -0.081 C  
BRANCH   9  10
HETATM   10  C   UNL     1      -8.850   9.129  67.649  1.00  0.00    -0.123 C  
HETATM   11  C   UNL     1      -9.496   8.687  68.740  1.00  0.00    -0.143 C  
BRANCH  11  12
HETATM   12  C   UNL     1      -8.895   7.893  69.870  1.00  0.00    -0.141 C  
BRANCH  12  13
HETATM   13  C   UNL     1      -9.885   6.847  70.394  1.00  0.00    -0.187 C  
HETATM   14  C   UNL     1      -9.344   5.412  70.414  1.00  0.00    -0.159 C  
HETATM   15  C   UNL     1     -10.301   4.701  71.359  1.00  0.00    -0.160 C  
HETATM   16  O   UNL     1      -8.033   5.350  70.973  1.00  0.00    -0.100 OA 
HETATM   17  C   UNL     1     -10.473   5.704  72.499  1.00  0.00    -0.213 C  
HETATM   18  H   UNL     1      -7.698   4.460  70.986  1.00  0.00     0.000 HD 
HETATM   19  C   UNL     1     -10.323   7.109  71.860  1.00  0.00    -0.212 C  
HETATM   20  O   UNL     1      -9.448   5.505  73.474  1.00  0.00    -0.137 OA 
HETATM   21  H   UNL     1      -9.555   6.127  74.184  1.00  0.00     0.000 HD 
BRANCH  19  22
HETATM   22  C   UNL     1     -11.588   7.935  71.992  1.00  0.00    -0.357 C  
HETATM   23  C   UNL     1     -11.702   9.231  71.646  1.00  0.00    -0.462 C  
BRANCH  23  24
HETATM   24  C   UNL     1     -12.990  10.019  71.660  1.00  0.00    -0.449 C  
HETATM   25  F   UNL     1     -13.491  10.063  72.926  1.00  0.00    -0.174 F  
HETATM   26  F   UNL     1     -13.918   9.379  70.899  1.00  0.00    -0.358 F  
BRANCH  24  27
HETATM   27  C   UNL     1     -12.795  11.451  71.137  1.00  0.00    -0.341 C  
BRANCH  27  28
HETATM   28  O   UNL     1     -13.582  12.382  71.893  1.00  0.00    -0.342 OA 
BRANCH  28  29
HETATM   29  C   UNL     1     -13.035  13.629  72.041  1.00  0.00    -0.334 A  
HETATM   30  C   UNL     1     -12.412  14.150  70.905  1.00  0.00    -0.436 A  
HETATM   31  C   UNL     1     -11.822  15.415  70.939  1.00  0.00    -0.400 A  
HETATM   32  C   UNL     1     -11.866  16.172  72.108  1.00  0.00    -0.626 A  
HETATM   33  C   UNL     1     -12.504  15.665  73.240  1.00  0.00    -0.612 A  
HETATM   34  C   UNL     1     -13.090  14.397  73.207  1.00  0.00    -0.352 A  
ENDBRANCH  28  29
ENDBRANCH  27  28
ENDBRANCH  24  27
ENDBRANCH  23  24
ENDBRANCH  19  22
ENDBRANCH  12  13
ENDBRANCH  11  12
ENDBRANCH   9  10
ENDBRANCH   8   9
ENDBRANCH   7   8
ENDBRANCH   5   7
ENDBRANCH   4   5
ENDBRANCH   2   4
TORSDOF 13
ENDMDL
MODEL      254
REMARK 921   NORMALIZED FREE ENERGY PREDICTED BY IDOCK:   -3.81 KCAL/MOL
REMARK 922        TOTAL FREE ENERGY PREDICTED BY IDOCK:   -9.54 KCAL/MOL
REMARK 923 INTER-LIGAND FREE ENERGY PREDICTED BY IDOCK:   -8.08 KCAL/MOL
REMARK 924 INTRA-LIGAND FREE ENERGY PREDICTED BY IDOCK:   -1.46 KCAL/MOL
REMARK 927      BINDING AFFINITY PREDICTED BY RF-SCORE:    0.00 PKD
ROOT
HETATM    1  C   UNL     1     -10.897   6.035  68.588  1.00  0.00    -0.379 C  
HETATM    2  C   UNL     1     -10.214   7.124  67.766  1.00  0.00    -0.184 C  
HETATM    3  C   UNL     1     -10.265   8.461  68.494  1.00  0.00    -0.228 C  
ENDROOT
BRANCH   2   4
HETATM    4  O   UNL     1      -8.830   6.783  67.578  1.00  0.00    -0.118 OA 
BRANCH   4   5
HETATM    5  C   UNL     1      -7.991   7.165  68.582  1.00  0.00    -0.123 C  
HETATM    6  O   UNL     1      -8.034   6.759  69.734  1.00  0.00    -0.119 OA 
BRANCH   5   7
HETATM    7  C   UNL     1      -7.025   8.205  68.080  1.00  0.00    -0.077 C  
BRANCH   7   8
HETATM    8  C   UNL     1      -6.771   8.030  66.584  1.00  0.00    -0.063 C  
BRANCH   8   9
HETATM    9  C   UNL     1      -7.055   9.331  65.838  1.00  0.00    -0.090 C  
BRANCH   9  10
HETATM   10  C   UNL     1      -7.445  10.441  66.770  1.00  0.00    -0.110 C  
HETATM   11  C   UNL     1      -8.634  11.062  66.802  1.00  0.00    -0.152 C  
BRANCH  11  12
HETATM   12  C   UNL     1      -9.813  10.773  65.910  1.00  0.00    -0.290 C  
BRANCH  12  13
HETATM   13  C   UNL     1     -10.361  12.064  65.289  1.00  0.00    -0.311 C  
HETATM   14  C   UNL     1     -10.409  12.061  63.755  1.00  0.00    -0.426 C  
HETATM   15  C   UNL     1     -11.370  13.198  63.444  1.00  0.00    -0.090 C  
HETATM   16  O   UNL     1     -10.966  10.851  63.247  1.00  0.00    -0.675 OA 
HETATM   17  C   UNL     1     -12.490  12.996  64.464  1.00  0.00    -0.363 C  
HETATM   18  H   UNL     1     -10.996  10.849  62.297  1.00  0.00     0.000 HD 
HETATM   19  C   UNL     1     -11.822  12.368  65.715  1.00  0.00    -0.467 C  
HETATM   20  O   UNL     1     -13.467  12.097  63.935  1.00  0.00    -0.544 OA 
HETATM   21  H   UNL     1     -14.163  11.971  64.568  1.00  0.00     0.000 HD 
BRANCH  19  22
HETATM   22  C   UNL     1     -11.940  13.260  66.935  1.00  0.00    -0.430 C  
HETATM   23  C   UNL     1     -11.003  14.135  67.345  1.00  0.00    -0.306 C  
BRANCH  23  24
HETATM   24  C   UNL     1     -11.172  15.111  68.485  1.00  0.00    -0.293 C  
HETATM   25  F   UNL     1     -10.598  14.608  69.613  1.00  0.00    -0.240 F  
HETATM   26  F   UNL     1     -12.497  15.260  68.758  1.00  0.00    -0.180 F  
BRANCH  24  27
HETATM   27  C   UNL     1     -10.555  16.482  68.165  1.00  0.00    -0.329 C  
BRANCH  27  28
HETATM   28  O   UNL     1      -9.649  16.888  69.201  1.00  0.00    -0.241 OA 
BRANCH  28  29
HETATM   29  C   UNL     1      -8.394  17.237  68.779  1.00  0.00    -0.228 A  
HETATM   30  C   UNL     1      -7.533  16.171  68.510  1.00  0.00    -0.167 A  
HETATM   31  C   UNL     1      -6.229  16.409  68.070  1.00  0.00    -0.134 A  
HETATM   32  C   UNL     1      -5.785  17.716  67.883  1.00  0.00    -0.143 A  
HETATM   33  C   UNL     1      -6.647  18.784  68.130  1.00  0.00    -0.235 A  
HETATM   34  C   UNL     1      -7.950  18.546  68.576  1.00  0.00    -0.346 A  
ENDBRANCH  28  29
ENDBRANCH  27  28
ENDBRANCH  24  27
ENDBRANCH  23  24
ENDBRANCH  19  22
ENDBRANCH  12  13
ENDBRANCH  11  12
ENDBRANCH   9  10
ENDBRANCH   8   9
ENDBRANCH   7   8
ENDBRANCH   5   7
ENDBRANCH   4   5
ENDBRANCH   2   4
TORSDOF 13
ENDMDL
MODEL      255
REMARK 921   NORMALIZED FREE ENERGY PREDICTED BY IDOCK:   -3.79 KCAL/MOL
REMARK 922        TOTAL FREE ENERGY PREDICTED BY IDOCK:   -9.51 KCAL/MOL
REMARK 923 INTER-LIGAND FREE ENERGY PREDICTED BY IDOCK:   -7.58 KCAL/MOL
REMARK 924 INTRA-LIGAND FREE ENERGY PREDICTED BY IDOCK:   -1.93 KCAL/MOL
REMARK 927      BINDING AFFINITY PREDICTED BY RF-SCORE:    0.00 PKD
ROOT
HETATM    1  C   UNL     1     -10.037  20.358  66.263  1.00  0.00    -0.341 C  
HETATM    2  C   UNL     1      -9.987  18.843  66.431  1.00  0.00    -0.393 C  
HETATM    3  C   UNL     1     -10.897  18.157  65.421  1.00  0.00     0.276 C  
ENDROOT
BRANCH   2   4
HETATM    4  O   UNL     1      -8.645  18.381  66.193  1.00  0.00    -0.456 OA 
BRANCH   4   5
HETATM    5  C   UNL     1      -7.857  18.274  67.300  1.00  0.00    -0.226 C  
HETATM    6  O   UNL     1      -7.269  19.199  67.843  1.00  0.00    -0.234 OA 
BRANCH   5   7
HETATM    7  C   UNL     1      -7.771  16.836  67.736  1.00  0.00    -0.180 C  
BRANCH   7   8
HETATM    8  C   UNL     1      -8.350  15.911  66.666  1.00  0.00    -0.328 C  
BRANCH   8   9
HETATM    9  C   UNL     1      -9.182  14.805  67.310  1.00  0.00    -0.211 C  
BRANCH   9  10
HETATM   10  C   UNL     1     -10.604  15.229  67.535  1.00  0.00    -0.273 C  
HETATM   11  C   UNL     1     -11.128  15.642  68.701  1.00  0.00    -0.317 C  
BRANCH  11  12
HETATM   12  C   UNL     1     -10.398  15.760  70.013  1.00  0.00    -0.286 C  
BRANCH  12  13
HETATM   13  C   UNL     1     -11.065  14.899  71.091  1.00  0.00    -0.107 C  
HETATM   14  C   UNL     1     -11.976  15.675  72.051  1.00  0.00    -0.457 C  
HETATM   15  C   UNL     1     -12.821  14.577  72.680  1.00  0.00    -0.498 C  
HETATM   16  O   UNL     1     -12.844  16.565  71.352  1.00  0.00    -0.044 OA 
HETATM   17  C   UNL     1     -13.176  13.687  71.489  1.00  0.00    -0.331 C  
HETATM   18  H   UNL     1     -13.409  17.045  71.947  1.00  0.00     0.000 HD 
HETATM   19  C   UNL     1     -11.984  13.796  70.503  1.00  0.00    -0.367 C  
HETATM   20  O   UNL     1     -14.367  14.172  70.864  1.00  0.00    -0.087 OA 
HETATM   21  H   UNL     1     -14.588  13.619  70.125  1.00  0.00     0.000 HD 
BRANCH  19  22
HETATM   22  C   UNL     1     -11.296  12.463  70.288  1.00  0.00     0.325 C  
HETATM   23  C   UNL     1     -11.928  11.283  70.139  1.00  0.00    -0.452 C  
BRANCH  23  24
HETATM   24  C   UNL     1     -11.250   9.977  69.801  1.00  0.00    -0.258 C  
HETATM   25  F   UNL     1      -9.902  10.105  69.942  1.00  0.00    -0.236 F  
HETATM   26  F   UNL     1     -11.476   9.677  68.493  1.00  0.00    -0.128 F  
BRANCH  24  27
HETATM   27  C   UNL     1     -11.750   8.824  70.687  1.00  0.00    -0.166 C  
BRANCH  27  28
HETATM   28  O   UNL     1     -11.391   9.042  72.059  1.00  0.00    -0.364 OA 
BRANCH  28  29
HETATM   29  C   UNL     1     -10.539   8.115  72.597  1.00  0.00    -0.344 A  
HETATM   30  C   UNL     1      -9.183   8.442  72.542  1.00  0.00    -0.338 A  
HETATM   31  C   UNL     1      -8.223   7.572  73.063  1.00  0.00    -0.150 A  
HETATM   32  C   UNL     1      -8.619   6.375  73.656  1.00  0.00    -0.129 A  
HETATM   33  C   UNL     1      -9.973   6.052  73.734  1.00  0.00    -0.212 A  
HETATM   34  C   UNL     1     -10.933   6.921  73.207  1.00  0.00    -0.270 A  
ENDBRANCH  28  29
ENDBRANCH  27  28
ENDBRANCH  24  27
ENDBRANCH  23  24
ENDBRANCH  19  22
ENDBRANCH  12  13
ENDBRANCH  11  12
ENDBRANCH   9  10
ENDBRANCH   8   9
ENDBRANCH   7   8
ENDBRANCH   5   7
ENDBRANCH   4   5
ENDBRANCH   2   4
TORSDOF 13
ENDMDL
MODEL      256
REMARK 921   NORMALIZED FREE ENERGY PREDICTED BY IDOCK:   -3.78 KCAL/MOL
REMARK 922        TOTAL FREE ENERGY PREDICTED BY IDOCK:   -9.50 KCAL/MOL
REMARK 923 INTER-LIGAND FREE ENERGY PREDICTED BY IDOCK:   -7.66 KCAL/MOL
REMARK 924 INTRA-LIGAND FREE ENERGY PREDICTED BY IDOCK:   -1.84 KCAL/MOL
REMARK 927      BINDING AFFINITY PREDICTED BY RF-SCORE:    0.00 PKD
ROOT
HETATM    1  C   UNL     1      -8.841   7.145  74.182  1.00  0.00    -0.245 C  
HETATM    2  C   UNL     1      -9.624   6.383  73.118  1.00  0.00    -0.150 C  
HETATM    3  C   UNL     1      -9.748   4.911  73.489  1.00  0.00    -0.151 C  
ENDROOT
BRANCH   2   4
HETATM    4  O   UNL     1     -10.954   6.923  73.027  1.00  0.00    -0.274 OA 
BRANCH   4   5
HETATM    5  C   UNL     1     -11.190   7.721  71.949  1.00  0.00    -0.265 C  
HETATM    6  O   UNL     1     -10.840   8.888  71.841  1.00  0.00    -0.333 OA 
BRANCH   5   7
HETATM    7  C   UNL     1     -11.995   6.974  70.919  1.00  0.00    -0.409 C  
BRANCH   7   8
HETATM    8  C   UNL     1     -11.340   7.076  69.543  1.00  0.00    -0.138 C  
BRANCH   8   9
HETATM    9  C   UNL     1     -10.309   5.965  69.358  1.00  0.00    -0.313 C  
BRANCH   9  10
HETATM   10  C   UNL     1      -8.908   6.499  69.318  1.00  0.00    -0.132 C  
HETATM   11  C   UNL     1      -8.348   7.167  68.296  1.00  0.00    -0.124 C  
BRANCH  11  12
HETATM   12  C   UNL     1      -9.011   7.512  66.989  1.00  0.00    -0.143 C  
BRANCH  12  13
HETATM   13  C   UNL     1      -8.005   8.130  66.010  1.00  0.00    -0.100 C  
HETATM   14  C   UNL     1      -6.886   7.180  65.564  1.00  0.00    -0.052 C  
HETATM   15  C   UNL     1      -6.343   7.858  64.315  1.00  0.00    -0.057 C  
HETATM   16  O   UNL     1      -7.395   5.900  65.195  1.00  0.00    -0.071 OA 
HETATM   17  C   UNL     1      -7.608   8.300  63.581  1.00  0.00    -0.134 C  
HETATM   18  H   UNL     1      -6.701   5.312  64.918  1.00  0.00     0.000 HD 
HETATM   19  C   UNL     1      -8.660   8.594  64.682  1.00  0.00    -0.116 C  
HETATM   20  O   UNL     1      -8.072   7.241  62.741  1.00  0.00    -0.212 OA 
HETATM   21  H   UNL     1      -8.858   7.516  62.284  1.00  0.00     0.000 HD 
BRANCH  19  22
HETATM   22  C   UNL     1      -9.098  10.046  64.680  1.00  0.00    -0.280 C  
HETATM   23  C   UNL     1     -10.329  10.481  65.010  1.00  0.00    -0.310 C  
BRANCH  23  24
HETATM   24  C   UNL     1     -10.730  11.932  65.129  1.00  0.00    -0.291 C  
HETATM   25  F   UNL     1     -11.473  12.297  64.049  1.00  0.00    -0.356 F  
HETATM   26  F   UNL     1      -9.614  12.711  65.111  1.00  0.00    -0.187 F  
BRANCH  24  27
HETATM   27  C   UNL     1     -11.527  12.205  66.415  1.00  0.00    -0.370 C  
BRANCH  27  28
HETATM   28  O   UNL     1     -10.651  12.580  67.488  1.00  0.00    -0.216 OA 
BRANCH  28  29
HETATM   29  C   UNL     1     -11.263  12.816  68.690  1.00  0.00    -0.282 A  
HETATM   30  C   UNL     1     -11.496  14.159  68.991  1.00  0.00    -0.322 A  
HETATM   31  C   UNL     1     -12.118  14.518  70.189  1.00  0.00    -0.394 A  
HETATM   32  C   UNL     1     -12.522  13.531  71.086  1.00  0.00    -0.424 A  
HETATM   33  C   UNL     1     -12.311  12.187  70.781  1.00  0.00    -0.391 A  
HETATM   34  C   UNL     1     -11.684  11.828  69.584  1.00  0.00    -0.413 A  
ENDBRANCH  28  29
ENDBRANCH  27  28
ENDBRANCH  24  27
ENDBRANCH  23  24
ENDBRANCH  19  22
ENDBRANCH  12  13
ENDBRANCH  11  12
ENDBRANCH   9  10
ENDBRANCH   8   9
ENDBRANCH   7   8
ENDBRANCH   5   7
ENDBRANCH   4   5
ENDBRANCH   2   4
TORSDOF 13
ENDMDL
MODEL      257
REMARK 921   NORMALIZED FREE ENERGY PREDICTED BY IDOCK:   -3.77 KCAL/MOL
REMARK 922        TOTAL FREE ENERGY PREDICTED BY IDOCK:   -9.48 KCAL/MOL
REMARK 923 INTER-LIGAND FREE ENERGY PREDICTED BY IDOCK:   -7.08 KCAL/MOL
REMARK 924 INTRA-LIGAND FREE ENERGY PREDICTED BY IDOCK:   -2.40 KCAL/MOL
REMARK 927      BINDING AFFINITY PREDICTED BY RF-SCORE:    0.00 PKD
ROOT
HETATM    1  C   UNL     1     -11.658  15.701  64.631  1.00  0.00    -0.249 C  
HETATM    2  C   UNL     1     -10.622  14.637  64.978  1.00  0.00    -0.439 C  
HETATM    3  C   UNL     1      -9.523  15.219  65.858  1.00  0.00    -0.351 C  
ENDROOT
BRANCH   2   4
HETATM    4  O   UNL     1     -11.255  13.577  65.716  1.00  0.00    -0.297 OA 
BRANCH   4   5
HETATM    5  C   UNL     1     -11.783  12.572  64.962  1.00  0.00    -0.362 C  
HETATM    6  O   UNL     1     -12.971  12.421  64.715  1.00  0.00    -0.786 OA 
BRANCH   5   7
HETATM    7  C   UNL     1     -10.693  11.635  64.514  1.00  0.00    -0.378 C  
BRANCH   7   8
HETATM    8  C   UNL     1      -9.589  11.547  65.566  1.00  0.00    -0.252 C  
BRANCH   8   9
HETATM    9  C   UNL     1      -9.852  10.384  66.519  1.00  0.00    -0.256 C  
BRANCH   9  10
HETATM   10  C   UNL     1      -8.809   9.311  66.398  1.00  0.00    -0.169 C  
HETATM   11  C   UNL     1      -9.039   7.989  66.375  1.00  0.00    -0.226 C  
BRANCH  11  12
HETATM   12  C   UNL     1     -10.384   7.317  66.467  1.00  0.00    -0.104 C  
BRANCH  12  13
HETATM   13  C   UNL     1     -10.236   5.848  66.879  1.00  0.00    -0.262 C  
HETATM   14  C   UNL     1     -10.262   4.853  65.711  1.00  0.00    -0.180 C  
HETATM   15  C   UNL     1      -9.660   3.597  66.321  1.00  0.00    -0.146 C  
HETATM   16  O   UNL     1      -9.423   5.277  64.638  1.00  0.00    -0.353 OA 
HETATM   17  C   UNL     1      -8.479   4.134  67.130  1.00  0.00    -0.100 C  
HETATM   18  H   UNL     1      -9.439   4.661  63.915  1.00  0.00     0.000 HD 
HETATM   19  C   UNL     1      -8.893   5.553  67.599  1.00  0.00    -0.105 C  
HETATM   20  O   UNL     1      -7.323   4.218  66.295  1.00  0.00    -0.077 OA 
HETATM   21  H   UNL     1      -6.589   4.551  66.798  1.00  0.00     0.000 HD 
BRANCH  19  22
HETATM   22  C   UNL     1      -8.962   5.658  69.110  1.00  0.00    -0.120 C  
HETATM   23  C   UNL     1     -10.081   5.508  69.844  1.00  0.00    -0.305 C  
BRANCH  23  24
HETATM   24  C   UNL     1     -10.128   5.488  71.352  1.00  0.00    -0.201 C  
HETATM   25  F   UNL     1     -10.599   4.286  71.785  1.00  0.00    -0.206 F  
HETATM   26  F   UNL     1     -11.011   6.428  71.788  1.00  0.00    -0.252 F  
BRANCH  24  27
HETATM   27  C   UNL     1      -8.748   5.752  71.975  1.00  0.00    -0.137 C  
BRANCH  27  28
HETATM   28  O   UNL     1      -8.579   7.145  72.272  1.00  0.00    -0.116 OA 
BRANCH  28  29
HETATM   29  C   UNL     1      -7.904   7.869  71.326  1.00  0.00    -0.088 A  
HETATM   30  C   UNL     1      -8.561   9.009  70.859  1.00  0.00    -0.263 A  
HETATM   31  C   UNL     1      -7.965   9.825  69.895  1.00  0.00    -0.184 A  
HETATM   32  C   UNL     1      -6.700   9.510  69.403  1.00  0.00    -0.048 A  
HETATM   33  C   UNL     1      -6.030   8.385  69.880  1.00  0.00    -0.025 A  
HETATM   34  C   UNL     1      -6.629   7.565  70.841  1.00  0.00    -0.042 A  
ENDBRANCH  28  29
ENDBRANCH  27  28
ENDBRANCH  24  27
ENDBRANCH  23  24
ENDBRANCH  19  22
ENDBRANCH  12  13
ENDBRANCH  11  12
ENDBRANCH   9  10
ENDBRANCH   8   9
ENDBRANCH   7   8
ENDBRANCH   5   7
ENDBRANCH   4   5
ENDBRANCH   2   4
TORSDOF 13
ENDMDL
MODEL      258
REMARK 921   NORMALIZED FREE ENERGY PREDICTED BY IDOCK:   -3.76 KCAL/MOL
REMARK 922        TOTAL FREE ENERGY PREDICTED BY IDOCK:   -9.45 KCAL/MOL
REMARK 923 INTER-LIGAND FREE ENERGY PREDICTED BY IDOCK:   -8.16 KCAL/MOL
REMARK 924 INTRA-LIGAND FREE ENERGY PREDICTED BY IDOCK:   -1.29 KCAL/MOL
REMARK 927      BINDING AFFINITY PREDICTED BY RF-SCORE:    0.00 PKD
ROOT
HETATM    1  C   UNL     1     -14.050  13.615  72.297  1.00  0.00    -0.602 C  
HETATM    2  C   UNL     1     -14.099  15.139  72.251  1.00  0.00    -0.534 C  
HETATM    3  C   UNL     1     -13.176  15.741  73.302  1.00  0.00    -0.687 C  
ENDROOT
BRANCH   2   4
HETATM    4  O   UNL     1     -13.646  15.592  70.963  1.00  0.00    -0.588 OA 
BRANCH   4   5
HETATM    5  C   UNL     1     -12.309  15.468  70.736  1.00  0.00    -0.414 C  
HETATM    6  O   UNL     1     -11.463  16.310  71.002  1.00  0.00    -0.407 OA 
BRANCH   5   7
HETATM    7  C   UNL     1     -12.020  14.156  70.056  1.00  0.00    -0.404 C  
BRANCH   7   8
HETATM    8  C   UNL     1     -12.201  14.278  68.545  1.00  0.00    -0.194 C  
BRANCH   8   9
HETATM    9  C   UNL     1     -12.018  12.919  67.873  1.00  0.00    -0.333 C  
BRANCH   9  10
HETATM   10  C   UNL     1     -12.135  13.010  66.379  1.00  0.00    -0.428 C  
HETATM   11  C   UNL     1     -11.194  12.647  65.493  1.00  0.00    -0.337 C  
BRANCH  11  12
HETATM   12  C   UNL     1      -9.837  12.078  65.816  1.00  0.00    -0.263 C  
BRANCH  12  13
HETATM   13  C   UNL     1      -9.740  10.611  65.385  1.00  0.00    -0.306 C  
HETATM   14  C   UNL     1      -9.070  10.392  64.022  1.00  0.00    -0.242 C  
HETATM   15  C   UNL     1      -8.703   8.916  64.057  1.00  0.00    -0.068 C  
HETATM   16  O   UNL     1      -7.869  11.149  63.896  1.00  0.00    -0.137 OA 
HETATM   17  C   UNL     1      -8.147   8.729  65.468  1.00  0.00    -0.115 C  
HETATM   18  H   UNL     1      -7.454  11.013  63.052  1.00  0.00     0.000 HD 
HETATM   19  C   UNL     1      -8.901   9.746  66.364  1.00  0.00    -0.163 C  
HETATM   20  O   UNL     1      -6.748   9.022  65.477  1.00  0.00    -0.070 OA 
HETATM   21  H   UNL     1      -6.402   8.905  66.354  1.00  0.00     0.000 HD 
BRANCH  19  22
HETATM   22  C   UNL     1      -9.717   9.063  67.443  1.00  0.00    -0.217 C  
HETATM   23  C   UNL     1      -9.978   7.743  67.494  1.00  0.00    -0.242 C  
BRANCH  23  24
HETATM   24  C   UNL     1     -10.683   7.045  68.632  1.00  0.00    -0.189 C  
HETATM   25  F   UNL     1     -11.717   6.302  68.150  1.00  0.00    -0.247 F  
HETATM   26  F   UNL     1     -11.228   7.974  69.463  1.00  0.00    -0.173 F  
BRANCH  24  27
HETATM   27  C   UNL     1      -9.730   6.139  69.429  1.00  0.00    -0.145 C  
BRANCH  27  28
HETATM   28  O   UNL     1      -9.346   6.762  70.663  1.00  0.00    -0.161 OA 
BRANCH  28  29
HETATM   29  C   UNL     1      -8.146   7.421  70.639  1.00  0.00    -0.110 A  
HETATM   30  C   UNL     1      -8.212   8.798  70.856  1.00  0.00    -0.189 A  
HETATM   31  C   UNL     1      -7.049   9.571  70.856  1.00  0.00    -0.070 A  
HETATM   32  C   UNL     1      -5.811   8.965  70.652  1.00  0.00    -0.033 A  
HETATM   33  C   UNL     1      -5.736   7.587  70.456  1.00  0.00    -0.027 A  
HETATM   34  C   UNL     1      -6.901   6.814  70.450  1.00  0.00    -0.062 A  
ENDBRANCH  28  29
ENDBRANCH  27  28
ENDBRANCH  24  27
ENDBRANCH  23  24
ENDBRANCH  19  22
ENDBRANCH  12  13
ENDBRANCH  11  12
ENDBRANCH   9  10
ENDBRANCH   8   9
ENDBRANCH   7   8
ENDBRANCH   5   7
ENDBRANCH   4   5
ENDBRANCH   2   4
TORSDOF 13
ENDMDL
MODEL      259
REMARK 921   NORMALIZED FREE ENERGY PREDICTED BY IDOCK:   -3.73 KCAL/MOL
REMARK 922        TOTAL FREE ENERGY PREDICTED BY IDOCK:   -9.39 KCAL/MOL
REMARK 923 INTER-LIGAND FREE ENERGY PREDICTED BY IDOCK:   -6.82 KCAL/MOL
REMARK 924 INTRA-LIGAND FREE ENERGY PREDICTED BY IDOCK:   -2.57 KCAL/MOL
REMARK 927      BINDING AFFINITY PREDICTED BY RF-SCORE:    0.00 PKD
ROOT
HETATM    1  C   UNL     1      -9.628  15.509  66.548  1.00  0.00    -0.295 C  
HETATM    2  C   UNL     1      -9.347  14.011  66.615  1.00  0.00    -0.277 C  
HETATM    3  C   UNL     1      -8.104  13.732  67.451  1.00  0.00    -0.188 C  
ENDROOT
BRANCH   2   4
HETATM    4  O   UNL     1     -10.454  13.345  67.246  1.00  0.00    -0.246 OA 
BRANCH   4   5
HETATM    5  C   UNL     1     -11.147  12.481  66.453  1.00  0.00    -0.290 C  
HETATM    6  O   UNL     1     -12.315  12.610  66.115  1.00  0.00    -0.570 OA 
BRANCH   5   7
HETATM    7  C   UNL     1     -10.279  11.306  66.087  1.00  0.00    -0.291 C  
BRANCH   7   8
HETATM    8  C   UNL     1     -10.208  10.307  67.240  1.00  0.00    -0.267 C  
BRANCH   8   9
HETATM    9  C   UNL     1     -11.125   9.116  66.973  1.00  0.00     0.376 C  
BRANCH   9  10
HETATM   10  C   UNL     1     -10.359   7.831  66.857  1.00  0.00    -0.396 C  
HETATM   11  C   UNL     1     -10.497   6.757  67.651  1.00  0.00    -0.287 C  
BRANCH  11  12
HETATM   12  C   UNL     1     -11.445   6.626  68.814  1.00  0.00    -0.060 C  
BRANCH  12  13
HETATM   13  C   UNL     1     -10.715   6.843  70.145  1.00  0.00    -0.270 C  
HETATM   14  C   UNL     1     -10.462   8.314  70.499  1.00  0.00    -0.210 C  
HETATM   15  C   UNL     1     -10.168   8.259  71.990  1.00  0.00    -0.339 C  
HETATM   16  O   UNL     1     -11.626   9.114  70.300  1.00  0.00    -0.419 OA 
HETATM   17  C   UNL     1     -11.225   7.289  72.517  1.00  0.00    -0.301 C  
HETATM   18  H   UNL     1     -11.468  10.025  70.520  1.00  0.00     0.000 HD 
HETATM   19  C   UNL     1     -11.501   6.289  71.363  1.00  0.00    -0.352 C  
HETATM   20  O   UNL     1     -12.421   8.004  72.833  1.00  0.00    -0.602 OA 
HETATM   21  H   UNL     1     -13.077   7.401  73.161  1.00  0.00     0.000 HD 
BRANCH  19  22
HETATM   22  C   UNL     1     -11.138   4.866  71.741  1.00  0.00     0.175 C  
HETATM   23  C   UNL     1     -10.640   4.487  72.933  1.00  0.00    -0.275 C  
BRANCH  23  24
HETATM   24  C   UNL     1     -10.397   3.057  73.352  1.00  0.00    -0.147 C  
HETATM   25  F   UNL     1     -11.509   2.558  73.959  1.00  0.00    -0.262 F  
HETATM   26  F   UNL     1      -9.402   3.022  74.279  1.00  0.00    -0.087 F  
BRANCH  24  27
HETATM   27  C   UNL     1     -10.021   2.163  72.159  1.00  0.00    -0.160 C  
BRANCH  27  28
HETATM   28  O   UNL     1      -8.716   2.497  71.664  1.00  0.00    -0.066 OA 
BRANCH  28  29
HETATM   29  C   UNL     1      -8.668   2.881  70.351  1.00  0.00    -0.070 A  
HETATM   30  C   UNL     1      -7.870   3.995  70.080  1.00  0.00    -0.051 A  
HETATM   31  C   UNL     1      -7.745   4.474  68.774  1.00  0.00    -0.071 A  
HETATM   32  C   UNL     1      -8.406   3.830  67.730  1.00  0.00    -0.099 A  
HETATM   33  C   UNL     1      -9.186   2.705  67.991  1.00  0.00    -0.254 A  
HETATM   34  C   UNL     1      -9.317   2.229  69.299  1.00  0.00    -0.174 A  
ENDBRANCH  28  29
ENDBRANCH  27  28
ENDBRANCH  24  27
ENDBRANCH  23  24
ENDBRANCH  19  22
ENDBRANCH  12  13
ENDBRANCH  11  12
ENDBRANCH   9  10
ENDBRANCH   8   9
ENDBRANCH   7   8
ENDBRANCH   5   7
ENDBRANCH   4   5
ENDBRANCH   2   4
TORSDOF 13
ENDMDL
MODEL      260
REMARK 921   NORMALIZED FREE ENERGY PREDICTED BY IDOCK:   -3.70 KCAL/MOL
REMARK 922        TOTAL FREE ENERGY PREDICTED BY IDOCK:   -9.35 KCAL/MOL
REMARK 923 INTER-LIGAND FREE ENERGY PREDICTED BY IDOCK:   -7.78 KCAL/MOL
REMARK 924 INTRA-LIGAND FREE ENERGY PREDICTED BY IDOCK:   -1.57 KCAL/MOL
REMARK 927      BINDING AFFINITY PREDICTED BY RF-SCORE:    0.00 PKD
ROOT
HETATM    1  C   UNL     1      -8.778   7.163  74.126  1.00  0.00    -0.235 C  
HETATM    2  C   UNL     1      -9.750   6.412  73.222  1.00  0.00    -0.163 C  
HETATM    3  C   UNL     1      -9.895   4.963  73.670  1.00  0.00    -0.169 C  
ENDROOT
BRANCH   2   4
HETATM    4  O   UNL     1     -11.049   7.025  73.306  1.00  0.00    -0.276 OA 
BRANCH   4   5
HETATM    5  C   UNL     1     -11.363   7.874  72.288  1.00  0.00    -0.337 C  
HETATM    6  O   UNL     1     -11.010   9.042  72.204  1.00  0.00    -0.348 OA 
BRANCH   5   7
HETATM    7  C   UNL     1     -12.256   7.180  71.293  1.00  0.00    -0.403 C  
BRANCH   7   8
HETATM    8  C   UNL     1     -11.784   7.445  69.865  1.00  0.00     0.132 C  
BRANCH   8   9
HETATM    9  C   UNL     1     -10.940   6.279  69.357  1.00  0.00    -0.440 C  
BRANCH   9  10
HETATM   10  C   UNL     1      -9.509   6.673  69.139  1.00  0.00    -0.136 C  
HETATM   11  C   UNL     1      -9.055   7.495  68.179  1.00  0.00    -0.128 C  
BRANCH  11  12
HETATM   12  C   UNL     1      -9.888   8.184  67.130  1.00  0.00    -0.281 C  
BRANCH  12  13
HETATM   13  C   UNL     1      -9.037   9.156  66.305  1.00  0.00    -0.222 C  
HETATM   14  C   UNL     1      -8.005   8.481  65.393  1.00  0.00    -0.113 C  
HETATM   15  C   UNL     1      -7.652   9.583  64.406  1.00  0.00    -0.122 C  
HETATM   16  O   UNL     1      -8.574   7.393  64.666  1.00  0.00    -0.363 OA 
HETATM   17  C   UNL     1      -9.010  10.197  64.069  1.00  0.00    -0.238 C  
HETATM   18  H   UNL     1      -7.934   6.976  64.100  1.00  0.00     0.000 HD 
HETATM   19  C   UNL     1      -9.882  10.031  65.341  1.00  0.00    -0.384 C  
HETATM   20  O   UNL     1      -9.603   9.486  62.980  1.00  0.00    -0.519 OA 
HETATM   21  H   UNL     1     -10.447   9.868  62.770  1.00  0.00     0.000 HD 
BRANCH  19  22
HETATM   22  C   UNL     1     -10.304  11.366  65.923  1.00  0.00    -0.299 C  
HETATM   23  C   UNL     1     -11.332  11.547  66.774  1.00  0.00    -0.309 C  
BRANCH  23  24
HETATM   24  C   UNL     1     -11.675  12.852  67.449  1.00  0.00    -0.372 C  
HETATM   25  F   UNL     1     -11.873  12.646  68.781  1.00  0.00    -0.301 F  
HETATM   26  F   UNL     1     -12.851  13.323  66.952  1.00  0.00    -0.114 F  
BRANCH  24  27
HETATM   27  C   UNL     1     -10.575  13.908  67.254  1.00  0.00    -0.276 C  
BRANCH  27  28
HETATM   28  O   UNL     1      -9.640  13.879  68.342  1.00  0.00    -0.214 OA 
BRANCH  28  29
HETATM   29  C   UNL     1      -8.597  14.760  68.244  1.00  0.00    -0.164 A  
HETATM   30  C   UNL     1      -8.752  15.956  68.949  1.00  0.00    -0.225 A  
HETATM   31  C   UNL     1      -7.749  16.927  68.923  1.00  0.00    -0.237 A  
HETATM   32  C   UNL     1      -6.579  16.700  68.202  1.00  0.00    -0.148 A  
HETATM   33  C   UNL     1      -6.410  15.500  67.513  1.00  0.00    -0.165 A  
HETATM   34  C   UNL     1      -7.416  14.530  67.534  1.00  0.00    -0.216 A  
ENDBRANCH  28  29
ENDBRANCH  27  28
ENDBRANCH  24  27
ENDBRANCH  23  24
ENDBRANCH  19  22
ENDBRANCH  12  13
ENDBRANCH  11  12
ENDBRANCH   9  10
ENDBRANCH   8   9
ENDBRANCH   7   8
ENDBRANCH   5   7
ENDBRANCH   4   5
ENDBRANCH   2   4
TORSDOF 13
ENDMDL
MODEL      261
REMARK 921   NORMALIZED FREE ENERGY PREDICTED BY IDOCK:   -3.68 KCAL/MOL
REMARK 922        TOTAL FREE ENERGY PREDICTED BY IDOCK:   -9.31 KCAL/MOL
REMARK 923 INTER-LIGAND FREE ENERGY PREDICTED BY IDOCK:   -7.51 KCAL/MOL
REMARK 924 INTRA-LIGAND FREE ENERGY PREDICTED BY IDOCK:   -1.80 KCAL/MOL
REMARK 927      BINDING AFFINITY PREDICTED BY RF-SCORE:    0.00 PKD
ROOT
HETATM    1  C   UNL     1     -10.428  20.242  66.368  1.00  0.00    -0.331 C  
HETATM    2  C   UNL     1     -10.335  18.792  66.832  1.00  0.00    -0.404 C  
HETATM    3  C   UNL     1     -10.733  17.840  65.711  1.00  0.00    -0.098 C  
ENDROOT
BRANCH   2   4
HETATM    4  O   UNL     1      -8.976  18.492  67.195  1.00  0.00    -0.269 OA 
BRANCH   4   5
HETATM    5  C   UNL     1      -8.632  18.796  68.478  1.00  0.00    -0.344 C  
HETATM    6  O   UNL     1      -8.900  19.839  69.056  1.00  0.00    -0.234 OA 
BRANCH   5   7
HETATM    7  C   UNL     1      -7.822  17.675  69.074  1.00  0.00    -0.106 C  
BRANCH   7   8
HETATM    8  C   UNL     1      -6.656  17.304  68.159  1.00  0.00    -0.164 C  
BRANCH   8   9
HETATM    9  C   UNL     1      -6.618  15.796  67.926  1.00  0.00    -0.165 C  
BRANCH   9  10
HETATM   10  C   UNL     1      -7.552  15.372  66.831  1.00  0.00    -0.111 C  
HETATM   11  C   UNL     1      -8.765  14.823  67.000  1.00  0.00    -0.258 C  
BRANCH  11  12
HETATM   12  C   UNL     1      -9.431  14.521  68.317  1.00  0.00    -0.207 C  
BRANCH  12  13
HETATM   13  C   UNL     1     -10.019  13.106  68.323  1.00  0.00    -0.236 C  
HETATM   14  C   UNL     1     -11.467  13.021  68.825  1.00  0.00    -0.298 C  
HETATM   15  C   UNL     1     -11.925  11.664  68.311  1.00  0.00    -0.236 C  
HETATM   16  O   UNL     1     -12.290  14.025  68.235  1.00  0.00    -0.537 OA 
HETATM   17  C   UNL     1     -11.374  11.628  66.885  1.00  0.00    -0.295 C  
HETATM   18  H   UNL     1     -13.187  13.972  68.546  1.00  0.00     0.000 HD 
HETATM   19  C   UNL     1     -10.069  12.465  66.910  1.00  0.00    -0.230 C  
HETATM   20  O   UNL     1     -12.314  12.225  65.990  1.00  0.00    -0.609 OA 
HETATM   21  H   UNL     1     -11.972  12.202  65.104  1.00  0.00     0.000 HD 
BRANCH  19  22
HETATM   22  C   UNL     1      -8.849  11.633  66.563  1.00  0.00    -0.188 C  
HETATM   23  C   UNL     1      -8.756  10.805  65.505  1.00  0.00    -0.196 C  
BRANCH  23  24
HETATM   24  C   UNL     1      -7.502  10.074  65.089  1.00  0.00    -0.139 C  
HETATM   25  F   UNL     1      -6.409  10.695  65.612  1.00  0.00    -0.110 F  
HETATM   26  F   UNL     1      -7.372  10.137  63.736  1.00  0.00    -0.129 F  
BRANCH  24  27
HETATM   27  C   UNL     1      -7.519   8.603  65.536  1.00  0.00    -0.085 C  
BRANCH  27  28
HETATM   28  O   UNL     1      -8.852   8.073  65.499  1.00  0.00    -0.148 OA 
BRANCH  28  29
HETATM   29  C   UNL     1      -9.139   7.140  66.458  1.00  0.00    -0.154 A  
HETATM   30  C   UNL     1     -10.430   7.198  66.986  1.00  0.00    -0.392 A  
HETATM   31  C   UNL     1     -10.834   6.292  67.969  1.00  0.00    -0.409 A  
HETATM   32  C   UNL     1      -9.951   5.313  68.418  1.00  0.00    -0.220 A  
HETATM   33  C   UNL     1      -8.667   5.236  67.879  1.00  0.00    -0.102 A  
HETATM   34  C   UNL     1      -8.260   6.146  66.900  1.00  0.00    -0.106 A  
ENDBRANCH  28  29
ENDBRANCH  27  28
ENDBRANCH  24  27
ENDBRANCH  23  24
ENDBRANCH  19  22
ENDBRANCH  12  13
ENDBRANCH  11  12
ENDBRANCH   9  10
ENDBRANCH   8   9
ENDBRANCH   7   8
ENDBRANCH   5   7
ENDBRANCH   4   5
ENDBRANCH   2   4
TORSDOF 13
ENDMDL
MODEL      262
REMARK 921   NORMALIZED FREE ENERGY PREDICTED BY IDOCK:   -3.67 KCAL/MOL
REMARK 922        TOTAL FREE ENERGY PREDICTED BY IDOCK:   -9.29 KCAL/MOL
REMARK 923 INTER-LIGAND FREE ENERGY PREDICTED BY IDOCK:   -7.90 KCAL/MOL
REMARK 924 INTRA-LIGAND FREE ENERGY PREDICTED BY IDOCK:   -1.39 KCAL/MOL
REMARK 927      BINDING AFFINITY PREDICTED BY RF-SCORE:    0.00 PKD
ROOT
HETATM    1  C   UNL     1      -6.674   8.953  63.832  1.00  0.00    -0.087 C  
HETATM    2  C   UNL     1      -7.969   8.151  63.891  1.00  0.00    -0.138 C  
HETATM    3  C   UNL     1      -8.013   7.111  62.778  1.00  0.00    -0.107 C  
ENDROOT
BRANCH   2   4
HETATM    4  O   UNL     1      -8.039   7.448  65.145  1.00  0.00    -0.123 OA 
BRANCH   4   5
HETATM    5  C   UNL     1      -6.943   6.704  65.461  1.00  0.00    -0.060 C  
HETATM    6  O   UNL     1      -6.426   5.861  64.740  1.00  0.00    -0.036 OA 
BRANCH   5   7
HETATM    7  C   UNL     1      -6.481   7.031  66.856  1.00  0.00    -0.054 C  
BRANCH   7   8
HETATM    8  C   UNL     1      -5.339   8.045  66.824  1.00  0.00    -0.032 C  
BRANCH   8   9
HETATM    9  C   UNL     1      -5.453   9.016  67.997  1.00  0.00    -0.035 C  
BRANCH   9  10
HETATM   10  C   UNL     1      -6.869   9.158  68.474  1.00  0.00    -0.063 C  
HETATM   11  C   UNL     1      -7.784  10.007  67.983  1.00  0.00    -0.089 C  
BRANCH  11  12
HETATM   12  C   UNL     1      -7.577  10.988  66.858  1.00  0.00    -0.133 C  
BRANCH  12  13
HETATM   13  C   UNL     1      -8.878  11.728  66.528  1.00  0.00    -0.183 C  
HETATM   14  C   UNL     1      -9.800  10.987  65.551  1.00  0.00    -0.243 C  
HETATM   15  C   UNL     1     -11.139  11.680  65.756  1.00  0.00    -0.313 C  
HETATM   16  O   UNL     1      -9.948   9.612  65.902  1.00  0.00    -0.285 OA 
HETATM   17  C   UNL     1     -11.227  11.823  67.275  1.00  0.00    -0.305 C  
HETATM   18  H   UNL     1     -10.520   9.154  65.297  1.00  0.00     0.000 HD 
HETATM   19  C   UNL     1      -9.767  11.975  67.776  1.00  0.00    -0.192 C  
HETATM   20  O   UNL     1     -11.811  10.646  67.837  1.00  0.00    -0.738 OA 
HETATM   21  H   UNL     1     -11.866  10.735  68.781  1.00  0.00     0.000 HD 
BRANCH  19  22
HETATM   22  C   UNL     1      -9.530  13.312  68.451  1.00  0.00    -0.172 C  
HETATM   23  C   UNL     1      -9.739  14.513  67.880  1.00  0.00    -0.218 C  
BRANCH  23  24
HETATM   24  C   UNL     1      -9.623  15.840  68.591  1.00  0.00    -0.207 C  
HETATM   25  F   UNL     1      -9.069  16.764  67.758  1.00  0.00    -0.211 F  
HETATM   26  F   UNL     1      -8.775  15.713  69.647  1.00  0.00    -0.247 F  
BRANCH  24  27
HETATM   27  C   UNL     1     -10.987  16.349  69.085  1.00  0.00    -0.324 C  
BRANCH  27  28
HETATM   28  O   UNL     1     -10.929  16.695  70.476  1.00  0.00    -0.223 OA 
BRANCH  28  29
HETATM   29  C   UNL     1     -11.851  16.074  71.274  1.00  0.00    -0.449 A  
HETATM   30  C   UNL     1     -12.612  15.081  70.653  1.00  0.00    -0.429 A  
HETATM   31  C   UNL     1     -13.581  14.379  71.373  1.00  0.00    -0.431 A  
HETATM   32  C   UNL     1     -13.784  14.658  72.723  1.00  0.00    -0.473 A  
HETATM   33  C   UNL     1     -13.013  15.634  73.354  1.00  0.00    -0.676 A  
HETATM   34  C   UNL     1     -12.047  16.341  72.632  1.00  0.00    -0.628 A  
ENDBRANCH  28  29
ENDBRANCH  27  28
ENDBRANCH  24  27
ENDBRANCH  23  24
ENDBRANCH  19  22
ENDBRANCH  12  13
ENDBRANCH  11  12
ENDBRANCH   9  10
ENDBRANCH   8   9
ENDBRANCH   7   8
ENDBRANCH   5   7
ENDBRANCH   4   5
ENDBRANCH   2   4
TORSDOF 13
ENDMDL
MODEL      263
REMARK 921   NORMALIZED FREE ENERGY PREDICTED BY IDOCK:   -3.67 KCAL/MOL
REMARK 922        TOTAL FREE ENERGY PREDICTED BY IDOCK:   -9.29 KCAL/MOL
REMARK 923 INTER-LIGAND FREE ENERGY PREDICTED BY IDOCK:   -7.24 KCAL/MOL
REMARK 924 INTRA-LIGAND FREE ENERGY PREDICTED BY IDOCK:   -2.05 KCAL/MOL
REMARK 927      BINDING AFFINITY PREDICTED BY RF-SCORE:    0.00 PKD
ROOT
HETATM    1  C   UNL     1      -6.132   6.708  68.316  1.00  0.00    -0.029 C  
HETATM    2  C   UNL     1      -7.341   5.794  68.150  1.00  0.00    -0.077 C  
HETATM    3  C   UNL     1      -8.220   5.829  69.394  1.00  0.00    -0.108 C  
ENDROOT
BRANCH   2   4
HETATM    4  O   UNL     1      -8.137   6.251  67.042  1.00  0.00    -0.108 OA 
BRANCH   4   5
HETATM    5  C   UNL     1      -8.356   5.333  66.060  1.00  0.00    -0.118 C  
HETATM    6  O   UNL     1      -8.711   4.176  66.237  1.00  0.00    -0.112 OA 
BRANCH   5   7
HETATM    7  C   UNL     1      -8.048   5.933  64.714  1.00  0.00    -0.132 C  
BRANCH   7   8
HETATM    8  C   UNL     1      -7.254   7.228  64.868  1.00  0.00    -0.071 C  
BRANCH   8   9
HETATM    9  C   UNL     1      -7.961   8.377  64.153  1.00  0.00    -0.151 C  
BRANCH   9  10
HETATM   10  C   UNL     1      -7.695   9.699  64.812  1.00  0.00    -0.122 C  
HETATM   11  C   UNL     1      -8.624  10.537  65.298  1.00  0.00    -0.185 C  
BRANCH  11  12
HETATM   12  C   UNL     1     -10.115  10.322  65.280  1.00  0.00    -0.359 C  
BRANCH  12  13
HETATM   13  C   UNL     1     -10.718  10.541  66.671  1.00  0.00    -0.222 C  
HETATM   14  C   UNL     1     -10.812   9.274  67.531  1.00  0.00    -0.112 C  
HETATM   15  C   UNL     1     -10.994   9.829  68.936  1.00  0.00    -0.183 C  
HETATM   16  O   UNL     1      -9.600   8.523  67.499  1.00  0.00    -0.145 OA 
HETATM   17  C   UNL     1      -9.991  10.980  68.988  1.00  0.00    -0.167 C  
HETATM   18  H   UNL     1      -9.658   7.738  68.032  1.00  0.00     0.000 HD 
HETATM   19  C   UNL     1      -9.894  11.529  67.540  1.00  0.00    -0.203 C  
HETATM   20  O   UNL     1      -8.715  10.489  69.404  1.00  0.00    -0.272 OA 
HETATM   21  H   UNL     1      -8.092  11.205  69.437  1.00  0.00     0.000 HD 
BRANCH  19  22
HETATM   22  C   UNL     1     -10.352  12.971  67.443  1.00  0.00    -0.234 C  
HETATM   23  C   UNL     1     -10.979  13.649  68.423  1.00  0.00    -0.284 C  
BRANCH  23  24
HETATM   24  C   UNL     1     -11.322  15.119  68.374  1.00  0.00    -0.315 C  
HETATM   25  F   UNL     1     -12.427  15.361  69.132  1.00  0.00    -0.250 F  
HETATM   26  F   UNL     1     -11.646  15.464  67.098  1.00  0.00    -0.314 F  
BRANCH  24  27
HETATM   27  C   UNL     1     -10.161  15.998  68.865  1.00  0.00    -0.229 C  
BRANCH  27  28
HETATM   28  O   UNL     1     -10.567  17.370  68.966  1.00  0.00    -0.323 OA 
BRANCH  28  29
HETATM   29  C   UNL     1      -9.951  18.229  68.096  1.00  0.00    -0.360 A  
HETATM   30  C   UNL     1      -8.676  17.845  67.674  1.00  0.00    -0.242 A  
HETATM   31  C   UNL     1      -7.955  18.645  66.784  1.00  0.00    -0.266 A  
HETATM   32  C   UNL     1      -8.514  19.826  66.300  1.00  0.00    -0.390 A  
HETATM   33  C   UNL     1      -9.794  20.204  66.701  1.00  0.00    -0.588 A  
HETATM   34  C   UNL     1     -10.514  19.407  67.597  1.00  0.00    -0.573 A  
ENDBRANCH  28  29
ENDBRANCH  27  28
ENDBRANCH  24  27
ENDBRANCH  23  24
ENDBRANCH  19  22
ENDBRANCH  12  13
ENDBRANCH  11  12
ENDBRANCH   9  10
ENDBRANCH   8   9
ENDBRANCH   7   8
ENDBRANCH   5   7
ENDBRANCH   4   5
ENDBRANCH   2   4
TORSDOF 13
ENDMDL
MODEL      264
REMARK 921   NORMALIZED FREE ENERGY PREDICTED BY IDOCK:   -3.66 KCAL/MOL
REMARK 922        TOTAL FREE ENERGY PREDICTED BY IDOCK:   -9.28 KCAL/MOL
REMARK 923 INTER-LIGAND FREE ENERGY PREDICTED BY IDOCK:   -7.69 KCAL/MOL
REMARK 924 INTRA-LIGAND FREE ENERGY PREDICTED BY IDOCK:   -1.58 KCAL/MOL
REMARK 927      BINDING AFFINITY PREDICTED BY RF-SCORE:    0.00 PKD
ROOT
HETATM    1  C   UNL     1     -12.088   6.970  71.230  1.00  0.00    -0.403 C  
HETATM    2  C   UNL     1     -10.638   6.730  71.638  1.00  0.00    -0.214 C  
HETATM    3  C   UNL     1     -10.197   5.322  71.261  1.00  0.00    -0.291 C  
ENDROOT
BRANCH   2   4
HETATM    4  O   UNL     1      -9.786   7.655  70.939  1.00  0.00    -0.177 OA 
BRANCH   4   5
HETATM    5  C   UNL     1      -8.509   7.229  70.727  1.00  0.00    -0.132 C  
HETATM    6  O   UNL     1      -7.669   7.048  71.597  1.00  0.00    -0.092 OA 
BRANCH   5   7
HETATM    7  C   UNL     1      -8.260   7.058  69.252  1.00  0.00    -0.125 C  
BRANCH   7   8
HETATM    8  C   UNL     1      -7.121   7.964  68.788  1.00  0.00    -0.072 C  
BRANCH   8   9
HETATM    9  C   UNL     1      -7.539   9.430  68.865  1.00  0.00    -0.075 C  
BRANCH   9  10
HETATM   10  C   UNL     1      -8.950   9.638  68.398  1.00  0.00    -0.123 C  
HETATM   11  C   UNL     1      -9.335   9.868  67.133  1.00  0.00    -0.170 C  
BRANCH  11  12
HETATM   12  C   UNL     1      -8.433   9.965  65.931  1.00  0.00    -0.137 C  
BRANCH  12  13
HETATM   13  C   UNL     1      -8.776  11.196  65.084  1.00  0.00     0.005 C  
HETATM   14  C   UNL     1      -9.207  10.879  63.646  1.00  0.00    -0.226 C  
HETATM   15  C   UNL     1      -9.898  12.161  63.208  1.00  0.00    -0.125 C  
HETATM   16  O   UNL     1     -10.159   9.818  63.601  1.00  0.00    -0.326 OA 
HETATM   17  C   UNL     1     -10.741  12.536  64.427  1.00  0.00    -0.350 C  
HETATM   18  H   UNL     1     -10.425   9.622  62.710  1.00  0.00     0.000 HD 
HETATM   19  C   UNL     1      -9.960  12.017  65.662  1.00  0.00    -0.270 C  
HETATM   20  O   UNL     1     -12.012  11.887  64.351  1.00  0.00    -0.300 OA 
HETATM   21  H   UNL     1     -12.536  12.121  65.109  1.00  0.00     0.000 HD 
BRANCH  19  22
HETATM   22  C   UNL     1      -9.541  13.142  66.588  1.00  0.00    -0.260 C  
HETATM   23  C   UNL     1     -10.363  13.793  67.433  1.00  0.00    -0.252 C  
BRANCH  23  24
HETATM   24  C   UNL     1      -9.923  14.826  68.442  1.00  0.00    -0.223 C  
HETATM   25  F   UNL     1      -9.749  16.029  67.827  1.00  0.00    -0.215 F  
HETATM   26  F   UNL     1      -8.711  14.473  68.950  1.00  0.00    -0.170 F  
BRANCH  24  27
HETATM   27  C   UNL     1     -10.936  14.979  69.588  1.00  0.00    -0.279 C  
BRANCH  27  28
HETATM   28  O   UNL     1     -12.152  14.279  69.290  1.00  0.00    -0.325 OA 
BRANCH  28  29
HETATM   29  C   UNL     1     -12.404  13.182  70.070  1.00  0.00    -0.172 A  
HETATM   30  C   UNL     1     -13.149  13.425  71.225  1.00  0.00    -0.317 A  
HETATM   31  C   UNL     1     -13.468  12.378  72.094  1.00  0.00    -0.481 A  
HETATM   32  C   UNL     1     -13.054  11.081  71.802  1.00  0.00    -0.554 A  
HETATM   33  C   UNL     1     -12.328  10.829  70.639  1.00  0.00    -0.465 A  
HETATM   34  C   UNL     1     -12.003  11.877  69.772  1.00  0.00    -0.377 A  
ENDBRANCH  28  29
ENDBRANCH  27  28
ENDBRANCH  24  27
ENDBRANCH  23  24
ENDBRANCH  19  22
ENDBRANCH  12  13
ENDBRANCH  11  12
ENDBRANCH   9  10
ENDBRANCH   8   9
ENDBRANCH   7   8
ENDBRANCH   5   7
ENDBRANCH   4   5
ENDBRANCH   2   4
TORSDOF 13
ENDMDL
MODEL      265
REMARK 921   NORMALIZED FREE ENERGY PREDICTED BY IDOCK:   -3.62 KCAL/MOL
REMARK 922        TOTAL FREE ENERGY PREDICTED BY IDOCK:   -9.21 KCAL/MOL
REMARK 923 INTER-LIGAND FREE ENERGY PREDICTED BY IDOCK:   -6.65 KCAL/MOL
REMARK 924 INTRA-LIGAND FREE ENERGY PREDICTED BY IDOCK:   -2.56 KCAL/MOL
REMARK 927      BINDING AFFINITY PREDICTED BY RF-SCORE:    0.00 PKD
ROOT
HETATM    1  C   UNL     1      -9.316  14.812  68.344  1.00  0.00    -0.197 C  
HETATM    2  C   UNL     1     -10.239  14.104  67.358  1.00  0.00    -0.244 C  
HETATM    3  C   UNL     1      -9.435  13.262  66.375  1.00  0.00    -0.225 C  
ENDROOT
BRANCH   2   4
HETATM    4  O   UNL     1     -11.114  13.217  68.076  1.00  0.00    -0.243 OA 
BRANCH   4   5
HETATM    5  C   UNL     1     -11.584  12.154  67.364  1.00  0.00    -0.340 C  
HETATM    6  O   UNL     1     -12.086  12.214  66.250  1.00  0.00    -0.626 OA 
BRANCH   5   7
HETATM    7  C   UNL     1     -11.442  10.890  68.169  1.00  0.00    -0.368 C  
BRANCH   7   8
HETATM    8  C   UNL     1     -10.165  10.146  67.785  1.00  0.00    -0.232 C  
BRANCH   8   9
HETATM    9  C   UNL     1     -10.418   8.641  67.734  1.00  0.00    -0.287 C  
BRANCH   9  10
HETATM   10  C   UNL     1      -9.139   7.855  67.714  1.00  0.00    -0.138 C  
HETATM   11  C   UNL     1      -8.963   6.625  68.222  1.00  0.00    -0.122 C  
BRANCH  11  12
HETATM   12  C   UNL     1     -10.008   5.788  68.911  1.00  0.00    -0.211 C  
BRANCH  12  13
HETATM   13  C   UNL     1      -9.379   4.553  69.565  1.00  0.00    -0.221 C  
HETATM   14  C   UNL     1      -9.527   3.258  68.756  1.00  0.00    -0.127 C  
HETATM   15  C   UNL     1      -8.471   2.351  69.369  1.00  0.00    -0.092 C  
HETATM   16  O   UNL     1      -9.206   3.455  67.380  1.00  0.00    -0.165 OA 
HETATM   17  C   UNL     1      -7.267   3.278  69.529  1.00  0.00    -0.045 C  
HETATM   18  H   UNL     1      -9.297   2.653  66.879  1.00  0.00     0.000 HD 
HETATM   19  C   UNL     1      -7.848   4.695  69.777  1.00  0.00    -0.061 C  
HETATM   20  O   UNL     1      -6.494   3.276  68.327  1.00  0.00    -0.035 OA 
HETATM   21  H   UNL     1      -5.745   3.852  68.427  1.00  0.00     0.000 HD 
BRANCH  19  22
HETATM   22  C   UNL     1      -7.457   5.244  71.135  1.00  0.00    -0.084 C  
HETATM   23  C   UNL     1      -7.052   6.506  71.370  1.00  0.00    -0.077 C  
BRANCH  23  24
HETATM   24  C   UNL     1      -6.783   7.087  72.738  1.00  0.00    -0.068 C  
HETATM   25  F   UNL     1      -5.525   7.606  72.780  1.00  0.00    -0.037 F  
HETATM   26  F   UNL     1      -6.823   6.092  73.666  1.00  0.00    -0.075 F  
BRANCH  24  27
HETATM   27  C   UNL     1      -7.800   8.178  73.109  1.00  0.00    -0.159 C  
BRANCH  27  28
HETATM   28  O   UNL     1      -8.999   7.598  73.642  1.00  0.00    -0.207 OA 
BRANCH  28  29
HETATM   29  C   UNL     1     -10.074   7.591  72.795  1.00  0.00    -0.240 A  
HETATM   30  C   UNL     1     -10.864   6.440  72.835  1.00  0.00    -0.286 A  
HETATM   31  C   UNL     1     -11.988   6.325  72.015  1.00  0.00    -0.353 A  
HETATM   32  C   UNL     1     -12.336   7.369  71.161  1.00  0.00    -0.349 A  
HETATM   33  C   UNL     1     -11.564   8.529  71.131  1.00  0.00    -0.325 A  
HETATM   34  C   UNL     1     -10.435   8.643  71.947  1.00  0.00    -0.410 A  
ENDBRANCH  28  29
ENDBRANCH  27  28
ENDBRANCH  24  27
ENDBRANCH  23  24
ENDBRANCH  19  22
ENDBRANCH  12  13
ENDBRANCH  11  12
ENDBRANCH   9  10
ENDBRANCH   8   9
ENDBRANCH   7   8
ENDBRANCH   5   7
ENDBRANCH   4   5
ENDBRANCH   2   4
TORSDOF 13
ENDMDL
MODEL      266
REMARK 921   NORMALIZED FREE ENERGY PREDICTED BY IDOCK:   -3.62 KCAL/MOL
REMARK 922        TOTAL FREE ENERGY PREDICTED BY IDOCK:   -9.21 KCAL/MOL
REMARK 923 INTER-LIGAND FREE ENERGY PREDICTED BY IDOCK:   -6.63 KCAL/MOL
REMARK 924 INTRA-LIGAND FREE ENERGY PREDICTED BY IDOCK:   -2.58 KCAL/MOL
REMARK 927      BINDING AFFINITY PREDICTED BY RF-SCORE:    0.00 PKD
ROOT
HETATM    1  C   UNL     1      -6.458   6.286  68.215  1.00  0.00    -0.053 C  
HETATM    2  C   UNL     1      -5.632   5.274  67.428  1.00  0.00    -0.013 C  
HETATM    3  C   UNL     1      -6.149   3.859  67.658  1.00  0.00    -0.032 C  
ENDROOT
BRANCH   2   4
HETATM    4  O   UNL     1      -5.744   5.555  66.022  1.00  0.00    -0.016 OA 
BRANCH   4   5
HETATM    5  C   UNL     1      -6.240   6.784  65.709  1.00  0.00    -0.039 C  
HETATM    6  O   UNL     1      -5.603   7.828  65.715  1.00  0.00    -0.032 OA 
BRANCH   5   7
HETATM    7  C   UNL     1      -7.710   6.685  65.398  1.00  0.00    -0.100 C  
BRANCH   7   8
HETATM    8  C   UNL     1      -8.318   8.073  65.209  1.00  0.00    -0.151 C  
BRANCH   8   9
HETATM    9  C   UNL     1      -8.779   8.641  66.549  1.00  0.00    -0.143 C  
BRANCH   9  10
HETATM   10  C   UNL     1     -10.220   9.060  66.516  1.00  0.00    -0.318 C  
HETATM   11  C   UNL     1     -10.710  10.231  66.954  1.00  0.00    -0.252 C  
BRANCH  11  12
HETATM   12  C   UNL     1      -9.916  11.356  67.565  1.00  0.00    -0.201 C  
BRANCH  12  13
HETATM   13  C   UNL     1     -10.396  11.656  68.989  1.00  0.00    -0.119 C  
HETATM   14  C   UNL     1     -11.427  12.789  69.087  1.00  0.00    -0.306 C  
HETATM   15  C   UNL     1     -12.042  12.570  70.461  1.00  0.00    -0.361 C  
HETATM   16  O   UNL     1     -12.455  12.654  68.108  1.00  0.00     0.006 OA 
HETATM   17  C   UNL     1     -12.237  11.055  70.517  1.00  0.00    -0.381 C  
HETATM   18  H   UNL     1     -13.094  13.355  68.169  1.00  0.00     0.000 HD 
HETATM   19  C   UNL     1     -11.098  10.445  69.659  1.00  0.00    -0.328 C  
HETATM   20  O   UNL     1     -13.504  10.711  69.953  1.00  0.00    -0.237 OA 
HETATM   21  H   UNL     1     -13.626   9.769  69.989  1.00  0.00     0.000 HD 
BRANCH  19  22
HETATM   22  C   UNL     1     -10.173   9.567  70.478  1.00  0.00    -0.349 C  
HETATM   23  C   UNL     1     -10.529   8.896  71.590  1.00  0.00    -0.408 C  
BRANCH  23  24
HETATM   24  C   UNL     1      -9.644   7.925  72.334  1.00  0.00    -0.210 C  
HETATM   25  F   UNL     1      -9.425   8.375  73.600  1.00  0.00    -0.271 F  
HETATM   26  F   UNL     1      -8.427   7.868  71.727  1.00  0.00    -0.106 F  
BRANCH  24  27
HETATM   27  C   UNL     1     -10.257   6.516  72.390  1.00  0.00    -0.185 C  
BRANCH  27  28
HETATM   28  O   UNL     1     -11.204   6.329  71.328  1.00  0.00    -0.276 OA 
BRANCH  28  29
HETATM   29  C   UNL     1     -10.697   5.783  70.180  1.00  0.00    -0.320 A  
HETATM   30  C   UNL     1      -9.859   4.680  70.358  1.00  0.00    -0.306 A  
HETATM   31  C   UNL     1      -9.287   4.041  69.255  1.00  0.00    -0.238 A  
HETATM   32  C   UNL     1      -9.564   4.495  67.967  1.00  0.00    -0.209 A  
HETATM   33  C   UNL     1     -10.417   5.582  67.782  1.00  0.00    -0.245 A  
HETATM   34  C   UNL     1     -10.985   6.226  68.886  1.00  0.00    -0.435 A  
ENDBRANCH  28  29
ENDBRANCH  27  28
ENDBRANCH  24  27
ENDBRANCH  23  24
ENDBRANCH  19  22
ENDBRANCH  12  13
ENDBRANCH  11  12
ENDBRANCH   9  10
ENDBRANCH   8   9
ENDBRANCH   7   8
ENDBRANCH   5   7
ENDBRANCH   4   5
ENDBRANCH   2   4
TORSDOF 13
ENDMDL
MODEL      267
REMARK 921   NORMALIZED FREE ENERGY PREDICTED BY IDOCK:   -3.62 KCAL/MOL
REMARK 922        TOTAL FREE ENERGY PREDICTED BY IDOCK:   -9.20 KCAL/MOL
REMARK 923 INTER-LIGAND FREE ENERGY PREDICTED BY IDOCK:   -8.51 KCAL/MOL
REMARK 924 INTRA-LIGAND FREE ENERGY PREDICTED BY IDOCK:   -0.69 KCAL/MOL
REMARK 927      BINDING AFFINITY PREDICTED BY RF-SCORE:    0.00 PKD
ROOT
HETATM    1  C   UNL     1     -10.426  18.879  65.952  1.00  0.00    -0.450 C  
HETATM    2  C   UNL     1      -9.032  19.312  66.393  1.00  0.00    -0.352 C  
HETATM    3  C   UNL     1      -9.111  20.496  67.350  1.00  0.00    -0.457 C  
ENDROOT
BRANCH   2   4
HETATM    4  O   UNL     1      -8.394  18.230  67.093  1.00  0.00    -0.237 OA 
BRANCH   4   5
HETATM    5  C   UNL     1      -9.231  17.406  67.785  1.00  0.00    -0.248 C  
HETATM    6  O   UNL     1      -9.583  17.566  68.945  1.00  0.00    -0.279 OA 
BRANCH   5   7
HETATM    7  C   UNL     1      -9.626  16.233  66.928  1.00  0.00    -0.244 C  
BRANCH   7   8
HETATM    8  C   UNL     1      -9.972  15.023  67.794  1.00  0.00    -0.229 C  
BRANCH   8   9
HETATM    9  C   UNL     1     -11.478  14.951  68.035  1.00  0.00    -0.355 C  
BRANCH   9  10
HETATM   10  C   UNL     1     -12.143  13.946  67.141  1.00  0.00    -0.422 C  
HETATM   11  C   UNL     1     -11.819  12.648  67.038  1.00  0.00    -0.415 C  
BRANCH  11  12
HETATM   12  C   UNL     1     -10.726  11.940  67.795  1.00  0.00    -0.243 C  
BRANCH  12  13
HETATM   13  C   UNL     1      -9.949  10.989  66.877  1.00  0.00    -0.231 C  
HETATM   14  C   UNL     1      -9.709  11.528  65.461  1.00  0.00    -0.230 C  
HETATM   15  C   UNL     1      -8.583  10.644  64.948  1.00  0.00    -0.147 C  
HETATM   16  O   UNL     1      -9.247  12.878  65.480  1.00  0.00    -0.422 OA 
HETATM   17  C   UNL     1      -7.633  10.561  66.142  1.00  0.00    -0.135 C  
HETATM   18  H   UNL     1      -9.098  13.211  64.603  1.00  0.00     0.000 HD 
HETATM   19  C   UNL     1      -8.527  10.665  67.406  1.00  0.00    -0.122 C  
HETATM   20  O   UNL     1      -6.717  11.657  66.107  1.00  0.00    -0.365 OA 
HETATM   21  H   UNL     1      -6.127  11.605  66.850  1.00  0.00     0.000 HD 
BRANCH  19  22
HETATM   22  C   UNL     1      -8.453   9.415  68.262  1.00  0.00    -0.120 C  
HETATM   23  C   UNL     1      -8.459   8.155  67.790  1.00  0.00    -0.132 C  
BRANCH  23  24
HETATM   24  C   UNL     1      -8.260   6.916  68.631  1.00  0.00    -0.121 C  
HETATM   25  F   UNL     1      -7.841   7.267  69.878  1.00  0.00    -0.101 F  
HETATM   26  F   UNL     1      -7.269   6.158  68.089  1.00  0.00    -0.073 F  
BRANCH  24  27
HETATM   27  C   UNL     1      -9.546   6.081  68.738  1.00  0.00    -0.129 C  
BRANCH  27  28
HETATM   28  O   UNL     1     -10.703   6.929  68.780  1.00  0.00    -0.217 OA 
BRANCH  28  29
HETATM   29  C   UNL     1     -11.047   7.392  70.021  1.00  0.00    -0.220 A  
HETATM   30  C   UNL     1     -11.354   6.409  70.965  1.00  0.00    -0.386 A  
HETATM   31  C   UNL     1     -11.716   6.766  72.265  1.00  0.00    -0.300 A  
HETATM   32  C   UNL     1     -11.758   8.109  72.632  1.00  0.00    -0.419 A  
HETATM   33  C   UNL     1     -11.432   9.094  71.701  1.00  0.00    -0.451 A  
HETATM   34  C   UNL     1     -11.075   8.738  70.397  1.00  0.00    -0.261 A  
ENDBRANCH  28  29
ENDBRANCH  27  28
ENDBRANCH  24  27
ENDBRANCH  23  24
ENDBRANCH  19  22
ENDBRANCH  12  13
ENDBRANCH  11  12
ENDBRANCH   9  10
ENDBRANCH   8   9
ENDBRANCH   7   8
ENDBRANCH   5   7
ENDBRANCH   4   5
ENDBRANCH   2   4
TORSDOF 13
ENDMDL
MODEL      268
REMARK 921   NORMALIZED FREE ENERGY PREDICTED BY IDOCK:   -3.57 KCAL/MOL
REMARK 922        TOTAL FREE ENERGY PREDICTED BY IDOCK:   -9.12 KCAL/MOL
REMARK 923 INTER-LIGAND FREE ENERGY PREDICTED BY IDOCK:   -7.70 KCAL/MOL
REMARK 924 INTRA-LIGAND FREE ENERGY PREDICTED BY IDOCK:   -1.42 KCAL/MOL
REMARK 927      BINDING AFFINITY PREDICTED BY RF-SCORE:    0.00 PKD
ROOT
HETATM    1  C   UNL     1      -6.873   7.077  72.303  1.00  0.00    -0.061 C  
HETATM    2  C   UNL     1      -7.878   5.936  72.423  1.00  0.00    -0.102 C  
HETATM    3  C   UNL     1      -7.807   5.297  73.805  1.00  0.00    -0.102 C  
ENDROOT
BRANCH   2   4
HETATM    4  O   UNL     1      -9.210   6.452  72.252  1.00  0.00    -0.141 OA 
BRANCH   4   5
HETATM    5  C   UNL     1     -10.102   5.594  71.682  1.00  0.00    -0.195 C  
HETATM    6  O   UNL     1     -11.027   5.045  72.263  1.00  0.00    -0.183 OA 
BRANCH   5   7
HETATM    7  C   UNL     1      -9.753   5.373  70.234  1.00  0.00    -0.254 C  
BRANCH   7   8
HETATM    8  C   UNL     1      -9.952   6.656  69.429  1.00  0.00    -0.169 C  
BRANCH   8   9
HETATM    9  C   UNL     1     -11.147   6.517  68.489  1.00  0.00    -0.347 C  
BRANCH   9  10
HETATM   10  C   UNL     1     -10.780   6.814  67.064  1.00  0.00    -0.435 C  
HETATM   11  C   UNL     1     -10.258   7.964  66.609  1.00  0.00    -0.303 C  
BRANCH  11  12
HETATM   12  C   UNL     1      -9.938   9.184  67.432  1.00  0.00    -0.262 C  
BRANCH  12  13
HETATM   13  C   UNL     1      -8.892  10.059  66.732  1.00  0.00    -0.144 C  
HETATM   14  C   UNL     1      -7.440   9.619  66.958  1.00  0.00    -0.091 C  
HETATM   15  C   UNL     1      -6.692  10.329  65.839  1.00  0.00    -0.117 C  
HETATM   16  O   UNL     1      -7.280   8.212  66.781  1.00  0.00    -0.079 OA 
HETATM   17  C   UNL     1      -7.604  10.129  64.629  1.00  0.00    -0.135 C  
HETATM   18  H   UNL     1      -6.381   7.940  66.921  1.00  0.00     0.000 HD 
HETATM   19  C   UNL     1      -9.049  10.072  65.188  1.00  0.00    -0.247 C  
HETATM   20  O   UNL     1      -7.285   8.893  63.986  1.00  0.00    -0.093 OA 
HETATM   21  H   UNL     1      -7.851   8.769  63.233  1.00  0.00     0.000 HD 
BRANCH  19  22
HETATM   22  C   UNL     1      -9.911  11.202  64.661  1.00  0.00    -0.345 C  
HETATM   23  C   UNL     1     -11.227  11.109  64.392  1.00  0.00    -0.064 C  
BRANCH  23  24
HETATM   24  C   UNL     1     -12.110  12.264  63.987  1.00  0.00    -0.471 C  
HETATM   25  F   UNL     1     -13.411  11.862  63.950  1.00  0.00    -0.519 F  
HETATM   26  F   UNL     1     -11.790  12.656  62.724  1.00  0.00    -0.357 F  
BRANCH  24  27
HETATM   27  C   UNL     1     -11.972  13.458  64.946  1.00  0.00    -0.378 C  
BRANCH  27  28
HETATM   28  O   UNL     1     -10.933  14.346  64.509  1.00  0.00    -0.363 OA 
BRANCH  28  29
HETATM   29  C   UNL     1     -10.261  14.999  65.507  1.00  0.00    -0.378 A  
HETATM   30  C   UNL     1     -10.476  16.377  65.575  1.00  0.00    -0.349 A  
HETATM   31  C   UNL     1      -9.844  17.144  66.556  1.00  0.00    -0.305 A  
HETATM   32  C   UNL     1      -9.004  16.533  67.484  1.00  0.00    -0.201 A  
HETATM   33  C   UNL     1      -8.802  15.154  67.435  1.00  0.00    -0.199 A  
HETATM   34  C   UNL     1      -9.430  14.386  66.450  1.00  0.00    -0.309 A  
ENDBRANCH  28  29
ENDBRANCH  27  28
ENDBRANCH  24  27
ENDBRANCH  23  24
ENDBRANCH  19  22
ENDBRANCH  12  13
ENDBRANCH  11  12
ENDBRANCH   9  10
ENDBRANCH   8   9
ENDBRANCH   7   8
ENDBRANCH   5   7
ENDBRANCH   4   5
ENDBRANCH   2   4
TORSDOF 13
ENDMDL
MODEL      269
REMARK 921   NORMALIZED FREE ENERGY PREDICTED BY IDOCK:   -3.57 KCAL/MOL
REMARK 922        TOTAL FREE ENERGY PREDICTED BY IDOCK:   -9.12 KCAL/MOL
REMARK 923 INTER-LIGAND FREE ENERGY PREDICTED BY IDOCK:   -6.78 KCAL/MOL
REMARK 924 INTRA-LIGAND FREE ENERGY PREDICTED BY IDOCK:   -2.34 KCAL/MOL
REMARK 927      BINDING AFFINITY PREDICTED BY RF-SCORE:    0.00 PKD
ROOT
HETATM    1  C   UNL     1      -6.880  15.803  68.117  1.00  0.00    -0.128 C  
HETATM    2  C   UNL     1      -6.620  14.416  68.695  1.00  0.00    -0.088 C  
HETATM    3  C   UNL     1      -6.243  14.506  70.168  1.00  0.00    -0.167 C  
ENDROOT
BRANCH   2   4
HETATM    4  O   UNL     1      -7.820  13.627  68.601  1.00  0.00    -0.136 OA 
BRANCH   4   5
HETATM    5  C   UNL     1      -8.051  13.055  67.386  1.00  0.00    -0.180 C  
HETATM    6  O   UNL     1      -9.048  13.227  66.699  1.00  0.00    -0.234 OA 
BRANCH   5   7
HETATM    7  C   UNL     1      -6.918  12.131  67.027  1.00  0.00    -0.068 C  
BRANCH   7   8
HETATM    8  C   UNL     1      -7.304  10.676  67.287  1.00  0.00    -0.092 C  
BRANCH   8   9
HETATM    9  C   UNL     1      -7.989  10.078  66.061  1.00  0.00    -0.118 C  
BRANCH   9  10
HETATM   10  C   UNL     1      -8.374   8.643  66.275  1.00  0.00    -0.124 C  
HETATM   11  C   UNL     1      -9.466   8.209  66.923  1.00  0.00    -0.244 C  
BRANCH  11  12
HETATM   12  C   UNL     1     -10.523   9.070  67.564  1.00  0.00    -0.338 C  
BRANCH  12  13
HETATM   13  C   UNL     1     -10.406   9.035  69.092  1.00  0.00    -0.229 C  
HETATM   14  C   UNL     1     -11.051  10.229  69.807  1.00  0.00    -0.287 C  
HETATM   15  C   UNL     1     -11.195   9.732  71.238  1.00  0.00    -0.417 C  
HETATM   16  O   UNL     1     -12.353  10.511  69.297  1.00  0.00    -0.665 OA 
HETATM   17  C   UNL     1     -11.702   8.301  71.059  1.00  0.00    -0.270 C  
HETATM   18  H   UNL     1     -12.752  11.251  69.741  1.00  0.00     0.000 HD 
HETATM   19  C   UNL     1     -11.097   7.796  69.723  1.00  0.00    -0.095 C  
HETATM   20  O   UNL     1     -13.129   8.304  70.973  1.00  0.00    -0.512 OA 
HETATM   21  H   UNL     1     -13.445   7.415  70.863  1.00  0.00     0.000 HD 
BRANCH  19  22
HETATM   22  C   UNL     1     -10.178   6.608  69.925  1.00  0.00    -0.214 C  
HETATM   23  C   UNL     1     -10.584   5.330  70.044  1.00  0.00    -0.300 C  
BRANCH  23  24
HETATM   24  C   UNL     1      -9.664   4.135  70.120  1.00  0.00    -0.208 C  
HETATM   25  F   UNL     1      -9.716   3.437  68.952  1.00  0.00    -0.237 F  
HETATM   26  F   UNL     1     -10.100   3.291  71.094  1.00  0.00    -0.235 F  
BRANCH  24  27
HETATM   27  C   UNL     1      -8.210   4.544  70.407  1.00  0.00    -0.070 C  
BRANCH  27  28
HETATM   28  O   UNL     1      -7.948   4.539  71.818  1.00  0.00    -0.092 OA 
BRANCH  28  29
HETATM   29  C   UNL     1      -8.018   5.761  72.432  1.00  0.00    -0.103 A  
HETATM   30  C   UNL     1      -9.110   5.943  73.284  1.00  0.00    -0.133 A  
HETATM   31  C   UNL     1      -9.281   7.150  73.966  1.00  0.00    -0.281 A  
HETATM   32  C   UNL     1      -8.351   8.175  73.810  1.00  0.00    -0.311 A  
HETATM   33  C   UNL     1      -7.248   7.991  72.977  1.00  0.00    -0.130 A  
HETATM   34  C   UNL     1      -7.079   6.786  72.290  1.00  0.00    -0.075 A  
ENDBRANCH  28  29
ENDBRANCH  27  28
ENDBRANCH  24  27
ENDBRANCH  23  24
ENDBRANCH  19  22
ENDBRANCH  12  13
ENDBRANCH  11  12
ENDBRANCH   9  10
ENDBRANCH   8   9
ENDBRANCH   7   8
ENDBRANCH   5   7
ENDBRANCH   4   5
ENDBRANCH   2   4
TORSDOF 13
ENDMDL
MODEL      270
REMARK 921   NORMALIZED FREE ENERGY PREDICTED BY IDOCK:   -3.55 KCAL/MOL
REMARK 922        TOTAL FREE ENERGY PREDICTED BY IDOCK:   -9.08 KCAL/MOL
REMARK 923 INTER-LIGAND FREE ENERGY PREDICTED BY IDOCK:   -8.16 KCAL/MOL
REMARK 924 INTRA-LIGAND FREE ENERGY PREDICTED BY IDOCK:   -0.93 KCAL/MOL
REMARK 927      BINDING AFFINITY PREDICTED BY RF-SCORE:    0.00 PKD
ROOT
HETATM    1  C   UNL     1      -7.524   9.533  63.593  1.00  0.00    -0.115 C  
HETATM    2  C   UNL     1      -8.382  10.637  64.203  1.00  0.00    -0.024 C  
HETATM    3  C   UNL     1      -9.827  10.520  63.733  1.00  0.00    -0.363 C  
ENDROOT
BRANCH   2   4
HETATM    4  O   UNL     1      -8.379  10.507  65.635  1.00  0.00    -0.158 OA 
BRANCH   4   5
HETATM    5  C   UNL     1      -9.548  10.073  66.187  1.00  0.00    -0.210 C  
HETATM    6  O   UNL     1     -10.543  10.760  66.369  1.00  0.00    -0.246 OA 
BRANCH   5   7
HETATM    7  C   UNL     1      -9.423   8.628  66.590  1.00  0.00    -0.267 C  
BRANCH   7   8
HETATM    8  C   UNL     1     -10.683   8.159  67.314  1.00  0.00    -0.263 C  
BRANCH   8   9
HETATM    9  C   UNL     1     -10.537   6.703  67.752  1.00  0.00    -0.311 C  
BRANCH   9  10
HETATM   10  C   UNL     1      -9.253   6.464  68.491  1.00  0.00    -0.124 C  
HETATM   11  C   UNL     1      -9.133   5.867  69.687  1.00  0.00    -0.145 C  
BRANCH  11  12
HETATM   12  C   UNL     1     -10.258   5.319  70.526  1.00  0.00    -0.334 C  
BRANCH  12  13
HETATM   13  C   UNL     1     -10.333   6.036  71.879  1.00  0.00    -0.251 C  
HETATM   14  C   UNL     1      -9.202   5.679  72.852  1.00  0.00    -0.135 C  
HETATM   15  C   UNL     1      -9.253   6.813  73.864  1.00  0.00    -0.205 C  
HETATM   16  O   UNL     1      -7.927   5.705  72.214  1.00  0.00    -0.105 OA 
HETATM   17  C   UNL     1      -9.443   8.052  72.989  1.00  0.00    -0.275 C  
HETATM   18  H   UNL     1      -7.227   5.484  72.817  1.00  0.00     0.000 HD 
HETATM   19  C   UNL     1     -10.249   7.581  71.750  1.00  0.00    -0.216 C  
HETATM   20  O   UNL     1      -8.168   8.549  72.576  1.00  0.00    -0.293 OA 
HETATM   21  H   UNL     1      -8.286   9.319  72.033  1.00  0.00     0.000 HD 
BRANCH  19  22
HETATM   22  C   UNL     1     -11.596   8.269  71.649  1.00  0.00    -0.337 C  
HETATM   23  C   UNL     1     -11.801   9.591  71.807  1.00  0.00    -0.430 C  
BRANCH  23  24
HETATM   24  C   UNL     1     -13.118  10.293  71.583  1.00  0.00    -0.449 C  
HETATM   25  F   UNL     1     -14.108   9.646  72.257  1.00  0.00    -0.390 F  
HETATM   26  F   UNL     1     -13.444  10.231  70.263  1.00  0.00    -0.311 F  
BRANCH  24  27
HETATM   27  C   UNL     1     -13.070  11.763  72.031  1.00  0.00    -0.331 C  
BRANCH  27  28
HETATM   28  O   UNL     1     -13.454  12.637  70.959  1.00  0.00     0.192 OA 
BRANCH  28  29
HETATM   29  C   UNL     1     -12.515  13.562  70.592  1.00  0.00    -0.333 A  
HETATM   30  C   UNL     1     -11.976  13.397  69.315  1.00  0.00    -0.367 A  
HETATM   31  C   UNL     1     -11.011  14.285  68.833  1.00  0.00    -0.275 A  
HETATM   32  C   UNL     1     -10.592  15.353  69.624  1.00  0.00    -0.285 A  
HETATM   33  C   UNL     1     -11.143  15.536  70.892  1.00  0.00    -0.387 A  
HETATM   34  C   UNL     1     -12.104  14.644  71.376  1.00  0.00    -0.416 A  
ENDBRANCH  28  29
ENDBRANCH  27  28
ENDBRANCH  24  27
ENDBRANCH  23  24
ENDBRANCH  19  22
ENDBRANCH  12  13
ENDBRANCH  11  12
ENDBRANCH   9  10
ENDBRANCH   8   9
ENDBRANCH   7   8
ENDBRANCH   5   7
ENDBRANCH   4   5
ENDBRANCH   2   4
TORSDOF 13
ENDMDL
MODEL      271
REMARK 921   NORMALIZED FREE ENERGY PREDICTED BY IDOCK:   -3.53 KCAL/MOL
REMARK 922        TOTAL FREE ENERGY PREDICTED BY IDOCK:   -9.05 KCAL/MOL
REMARK 923 INTER-LIGAND FREE ENERGY PREDICTED BY IDOCK:   -6.90 KCAL/MOL
REMARK 924 INTRA-LIGAND FREE ENERGY PREDICTED BY IDOCK:   -2.15 KCAL/MOL
REMARK 927      BINDING AFFINITY PREDICTED BY RF-SCORE:    0.00 PKD
ROOT
HETATM    1  C   UNL     1      -6.246   5.957  66.788  1.00  0.00    -0.030 C  
HETATM    2  C   UNL     1      -7.453   5.138  66.345  1.00  0.00    -0.087 C  
HETATM    3  C   UNL     1      -8.323   4.768  67.539  1.00  0.00    -0.104 C  
ENDROOT
BRANCH   2   4
HETATM    4  O   UNL     1      -8.258   5.921  65.446  1.00  0.00    -0.126 OA 
BRANCH   4   5
HETATM    5  C   UNL     1      -8.547   5.331  64.253  1.00  0.00    -0.080 C  
HETATM    6  O   UNL     1      -9.011   4.208  64.111  1.00  0.00    -0.132 OA 
BRANCH   5   7
HETATM    7  C   UNL     1      -8.164   6.245  63.119  1.00  0.00     0.002 C  
BRANCH   7   8
HETATM    8  C   UNL     1      -7.573   7.548  63.651  1.00  0.00    -0.118 C  
BRANCH   8   9
HETATM    9  C   UNL     1      -8.264   8.749  63.010  1.00  0.00    -0.188 C  
BRANCH   9  10
HETATM   10  C   UNL     1      -7.879  10.040  63.672  1.00  0.00    -0.151 C  
HETATM   11  C   UNL     1      -8.691  10.828  64.393  1.00  0.00    -0.087 C  
BRANCH  11  12
HETATM   12  C   UNL     1     -10.149  10.578  64.682  1.00  0.00    -0.408 C  
BRANCH  12  13
HETATM   13  C   UNL     1     -10.401  10.483  66.190  1.00  0.00    -0.276 C  
HETATM   14  C   UNL     1     -10.627   9.056  66.708  1.00  0.00    -0.131 C  
HETATM   15  C   UNL     1     -10.395   9.197  68.205  1.00  0.00    -0.256 C  
HETATM   16  O   UNL     1      -9.660   8.146  66.188  1.00  0.00    -0.357 OA 
HETATM   17  C   UNL     1      -9.154  10.086  68.283  1.00  0.00    -0.122 C  
HETATM   18  H   UNL     1      -9.801   7.262  66.510  1.00  0.00     0.000 HD 
HETATM   19  C   UNL     1      -9.212  11.010  67.037  1.00  0.00    -0.164 C  
HETATM   20  O   UNL     1      -7.978   9.277  68.231  1.00  0.00    -0.101 OA 
HETATM   21  H   UNL     1      -7.207   9.830  68.279  1.00  0.00     0.000 HD 
BRANCH  19  22
HETATM   22  C   UNL     1      -9.320  12.474  67.416  1.00  0.00    -0.187 C  
HETATM   23  C   UNL     1      -8.413  13.420  67.107  1.00  0.00    -0.179 C  
BRANCH  23  24
HETATM   24  C   UNL     1      -8.579  14.896  67.374  1.00  0.00    -0.193 C  
HETATM   25  F   UNL     1      -7.373  15.450  67.678  1.00  0.00    -0.129 F  
HETATM   26  F   UNL     1      -9.372  15.071  68.466  1.00  0.00    -0.173 F  
BRANCH  24  27
HETATM   27  C   UNL     1      -9.192  15.633  66.171  1.00  0.00    -0.343 C  
BRANCH  27  28
HETATM   28  O   UNL     1      -8.602  16.931  66.014  1.00  0.00    -0.469 OA 
BRANCH  28  29
HETATM   29  C   UNL     1      -9.118  17.912  66.818  1.00  0.00    -0.268 A  
HETATM   30  C   UNL     1      -8.206  18.525  67.679  1.00  0.00    -0.267 A  
HETATM   31  C   UNL     1      -8.621  19.541  68.542  1.00  0.00    -0.379 A  
HETATM   32  C   UNL     1      -9.950  19.959  68.537  1.00  0.00    -0.507 A  
HETATM   33  C   UNL     1     -10.861  19.365  67.665  1.00  0.00    -0.470 A  
HETATM   34  C   UNL     1     -10.447  18.344  66.804  1.00  0.00    -0.415 A  
ENDBRANCH  28  29
ENDBRANCH  27  28
ENDBRANCH  24  27
ENDBRANCH  23  24
ENDBRANCH  19  22
ENDBRANCH  12  13
ENDBRANCH  11  12
ENDBRANCH   9  10
ENDBRANCH   8   9
ENDBRANCH   7   8
ENDBRANCH   5   7
ENDBRANCH   4   5
ENDBRANCH   2   4
TORSDOF 13
ENDMDL
MODEL      272
REMARK 921   NORMALIZED FREE ENERGY PREDICTED BY IDOCK:   -3.50 KCAL/MOL
REMARK 922        TOTAL FREE ENERGY PREDICTED BY IDOCK:   -8.99 KCAL/MOL
REMARK 923 INTER-LIGAND FREE ENERGY PREDICTED BY IDOCK:   -6.42 KCAL/MOL
REMARK 924 INTRA-LIGAND FREE ENERGY PREDICTED BY IDOCK:   -2.57 KCAL/MOL
REMARK 927      BINDING AFFINITY PREDICTED BY RF-SCORE:    0.00 PKD
ROOT
HETATM    1  C   UNL     1     -10.283  10.368  66.269  1.00  0.00    -0.286 C  
HETATM    2  C   UNL     1      -9.652  11.363  67.236  1.00  0.00    -0.174 C  
HETATM    3  C   UNL     1      -9.215  12.626  66.504  1.00  0.00    -0.200 C  
ENDROOT
BRANCH   2   4
HETATM    4  O   UNL     1     -10.622  11.748  68.226  1.00  0.00    -0.195 OA 
BRANCH   4   5
HETATM    5  C   UNL     1     -10.795  10.866  69.250  1.00  0.00    -0.241 C  
HETATM    6  O   UNL     1      -9.906  10.222  69.789  1.00  0.00    -0.224 OA 
BRANCH   5   7
HETATM    7  C   UNL     1     -12.257  10.757  69.596  1.00  0.00    -0.325 C  
BRANCH   7   8
HETATM    8  C   UNL     1     -12.441  10.490  71.088  1.00  0.00    -0.517 C  
BRANCH   8   9
HETATM    9  C   UNL     1     -12.563   8.991  71.351  1.00  0.00    -0.370 C  
BRANCH   9  10
HETATM   10  C   UNL     1     -11.801   8.570  72.574  1.00  0.00    -0.398 C  
HETATM   11  C   UNL     1     -11.274   7.356  72.794  1.00  0.00    -0.380 C  
BRANCH  11  12
HETATM   12  C   UNL     1     -11.340   6.174  71.862  1.00  0.00    -0.350 C  
BRANCH  12  13
HETATM   13  C   UNL     1      -9.951   5.827  71.316  1.00  0.00    -0.241 C  
HETATM   14  C   UNL     1      -8.873   5.637  72.392  1.00  0.00    -0.135 C  
HETATM   15  C   UNL     1      -7.780   4.885  71.648  1.00  0.00    -0.097 C  
HETATM   16  O   UNL     1      -9.334   4.815  73.462  1.00  0.00    -0.125 OA 
HETATM   17  C   UNL     1      -8.558   3.846  70.842  1.00  0.00    -0.072 C  
HETATM   18  H   UNL     1      -8.666   4.698  74.128  1.00  0.00     0.000 HD 
HETATM   19  C   UNL     1      -9.929   4.496  70.518  1.00  0.00    -0.278 C  
HETATM   20  O   UNL     1      -8.755   2.672  71.632  1.00  0.00    -0.069 OA 
HETATM   21  H   UNL     1      -9.238   2.026  71.130  1.00  0.00     0.000 HD 
BRANCH  19  22
HETATM   22  C   UNL     1     -10.144   4.663  69.026  1.00  0.00    -0.117 C  
HETATM   23  C   UNL     1      -9.661   5.678  68.285  1.00  0.00    -0.160 C  
BRANCH  23  24
HETATM   24  C   UNL     1      -9.769   5.779  66.783  1.00  0.00    -0.153 C  
HETATM   25  F   UNL     1     -10.547   6.845  66.446  1.00  0.00    -0.249 F  
HETATM   26  F   UNL     1     -10.398   4.673  66.301  1.00  0.00    -0.228 F  
BRANCH  24  27
HETATM   27  C   UNL     1      -8.392   5.919  66.115  1.00  0.00    -0.124 C  
BRANCH  27  28
HETATM   28  O   UNL     1      -8.473   6.752  64.949  1.00  0.00    -0.074 OA 
BRANCH  28  29
HETATM   29  C   UNL     1      -7.817   7.950  65.037  1.00  0.00    -0.120 A  
HETATM   30  C   UNL     1      -7.206   8.212  66.265  1.00  0.00    -0.078 A  
HETATM   31  C   UNL     1      -6.506   9.403  66.467  1.00  0.00    -0.067 A  
HETATM   32  C   UNL     1      -6.401  10.332  65.434  1.00  0.00    -0.124 A  
HETATM   33  C   UNL     1      -6.990  10.067  64.199  1.00  0.00    -0.124 A  
HETATM   34  C   UNL     1      -7.696   8.877  63.998  1.00  0.00    -0.128 A  
ENDBRANCH  28  29
ENDBRANCH  27  28
ENDBRANCH  24  27
ENDBRANCH  23  24
ENDBRANCH  19  22
ENDBRANCH  12  13
ENDBRANCH  11  12
ENDBRANCH   9  10
ENDBRANCH   8   9
ENDBRANCH   7   8
ENDBRANCH   5   7
ENDBRANCH   4   5
ENDBRANCH   2   4
TORSDOF 13
ENDMDL
MODEL      273
REMARK 921   NORMALIZED FREE ENERGY PREDICTED BY IDOCK:   -3.49 KCAL/MOL
REMARK 922        TOTAL FREE ENERGY PREDICTED BY IDOCK:   -8.99 KCAL/MOL
REMARK 923 INTER-LIGAND FREE ENERGY PREDICTED BY IDOCK:   -7.50 KCAL/MOL
REMARK 924 INTRA-LIGAND FREE ENERGY PREDICTED BY IDOCK:   -1.48 KCAL/MOL
REMARK 927      BINDING AFFINITY PREDICTED BY RF-SCORE:    0.00 PKD
ROOT
HETATM    1  C   UNL     1     -11.528  16.205  64.350  1.00  0.00    -0.197 C  
HETATM    2  C   UNL     1     -10.623  15.202  65.057  1.00  0.00    -0.413 C  
HETATM    3  C   UNL     1      -9.639  15.915  65.976  1.00  0.00    -0.385 C  
ENDROOT
BRANCH   2   4
HETATM    4  O   UNL     1     -11.424  14.327  65.871  1.00  0.00    -0.323 OA 
BRANCH   4   5
HETATM    5  C   UNL     1     -11.961  13.255  65.225  1.00  0.00    -0.388 C  
HETATM    6  O   UNL     1     -13.134  13.137  64.902  1.00  0.00    -0.744 OA 
BRANCH   5   7
HETATM    7  C   UNL     1     -10.907  12.201  65.009  1.00  0.00    -0.344 C  
BRANCH   7   8
HETATM    8  C   UNL     1      -9.743  12.394  65.978  1.00  0.00    -0.253 C  
BRANCH   8   9
HETATM    9  C   UNL     1      -9.873  11.443  67.165  1.00  0.00    -0.212 C  
BRANCH   9  10
HETATM   10  C   UNL     1      -8.536  10.971  67.657  1.00  0.00    -0.121 C  
HETATM   11  C   UNL     1      -7.980   9.776  67.402  1.00  0.00    -0.102 C  
BRANCH  11  12
HETATM   12  C   UNL     1      -8.584   8.671  66.576  1.00  0.00    -0.124 C  
BRANCH  12  13
HETATM   13  C   UNL     1      -8.469   7.322  67.295  1.00  0.00    -0.118 C  
HETATM   14  C   UNL     1      -7.405   6.380  66.714  1.00  0.00    -0.079 C  
HETATM   15  C   UNL     1      -7.192   5.376  67.837  1.00  0.00    -0.072 C  
HETATM   16  O   UNL     1      -6.172   7.057  66.478  1.00  0.00    -0.039 OA 
HETATM   17  C   UNL     1      -7.151   6.254  69.087  1.00  0.00    -0.077 C  
HETATM   18  H   UNL     1      -5.514   6.473  66.119  1.00  0.00     0.000 HD 
HETATM   19  C   UNL     1      -8.074   7.465  68.789  1.00  0.00    -0.128 C  
HETATM   20  O   UNL     1      -5.815   6.709  69.312  1.00  0.00    -0.017 OA 
HETATM   21  H   UNL     1      -5.790   7.254  70.089  1.00  0.00     0.000 HD 
BRANCH  19  22
HETATM   22  C   UNL     1      -9.254   7.531  69.739  1.00  0.00    -0.147 C  
HETATM   23  C   UNL     1      -9.873   8.664  70.123  1.00  0.00    -0.191 C  
BRANCH  23  24
HETATM   24  C   UNL     1     -11.123   8.721  70.968  1.00  0.00    -0.270 C  
HETATM   25  F   UNL     1     -12.054   9.510  70.363  1.00  0.00    -0.266 F  
HETATM   26  F   UNL     1     -10.834   9.309  72.161  1.00  0.00    -0.414 F  
BRANCH  24  27
HETATM   27  C   UNL     1     -11.717   7.325  71.213  1.00  0.00    -0.296 C  
BRANCH  27  28
HETATM   28  O   UNL     1     -11.355   6.837  72.513  1.00  0.00    -0.262 OA 
BRANCH  28  29
HETATM   29  C   UNL     1     -10.904   5.545  72.550  1.00  0.00    -0.252 A  
HETATM   30  C   UNL     1     -11.348   4.785  73.635  1.00  0.00    -0.235 A  
HETATM   31  C   UNL     1     -10.953   3.453  73.773  1.00  0.00    -0.307 A  
HETATM   32  C   UNL     1     -10.125   2.869  72.817  1.00  0.00    -0.228 A  
HETATM   33  C   UNL     1      -9.696   3.616  71.721  1.00  0.00    -0.233 A  
HETATM   34  C   UNL     1     -10.086   4.952  71.585  1.00  0.00    -0.266 A  
ENDBRANCH  28  29
ENDBRANCH  27  28
ENDBRANCH  24  27
ENDBRANCH  23  24
ENDBRANCH  19  22
ENDBRANCH  12  13
ENDBRANCH  11  12
ENDBRANCH   9  10
ENDBRANCH   8   9
ENDBRANCH   7   8
ENDBRANCH   5   7
ENDBRANCH   4   5
ENDBRANCH   2   4
TORSDOF 13
ENDMDL
MODEL      274
REMARK 921   NORMALIZED FREE ENERGY PREDICTED BY IDOCK:   -3.48 KCAL/MOL
REMARK 922        TOTAL FREE ENERGY PREDICTED BY IDOCK:   -8.96 KCAL/MOL
REMARK 923 INTER-LIGAND FREE ENERGY PREDICTED BY IDOCK:   -6.42 KCAL/MOL
REMARK 924 INTRA-LIGAND FREE ENERGY PREDICTED BY IDOCK:   -2.55 KCAL/MOL
REMARK 927      BINDING AFFINITY PREDICTED BY RF-SCORE:    0.00 PKD
ROOT
HETATM    1  C   UNL     1      -9.142  13.857  68.403  1.00  0.00    -0.184 C  
HETATM    2  C   UNL     1      -7.631  13.973  68.235  1.00  0.00    -0.135 C  
HETATM    3  C   UNL     1      -7.279  15.112  67.286  1.00  0.00    -0.197 C  
ENDROOT
BRANCH   2   4
HETATM    4  O   UNL     1      -7.031  14.268  69.509  1.00  0.00    -0.131 OA 
BRANCH   4   5
HETATM    5  C   UNL     1      -6.264  13.274  70.039  1.00  0.00    -0.079 C  
HETATM    6  O   UNL     1      -5.735  13.297  71.141  1.00  0.00    -0.234 OA 
BRANCH   5   7
HETATM    7  C   UNL     1      -6.115  12.151  69.046  1.00  0.00    -0.075 C  
BRANCH   7   8
HETATM    8  C   UNL     1      -6.327  10.799  69.723  1.00  0.00    -0.104 C  
BRANCH   8   9
HETATM    9  C   UNL     1      -7.763  10.319  69.521  1.00  0.00    -0.167 C  
BRANCH   9  10
HETATM   10  C   UNL     1      -8.141  10.273  68.069  1.00  0.00    -0.106 C  
HETATM   11  C   UNL     1      -8.052   9.201  67.266  1.00  0.00    -0.106 C  
BRANCH  11  12
HETATM   12  C   UNL     1      -7.556   7.834  67.657  1.00  0.00    -0.113 C  
BRANCH  12  13
HETATM   13  C   UNL     1      -8.580   6.753  67.291  1.00  0.00    -0.120 C  
HETATM   14  C   UNL     1      -8.660   6.434  65.793  1.00  0.00    -0.148 C  
HETATM   15  C   UNL     1      -9.365   5.086  65.770  1.00  0.00    -0.167 C  
HETATM   16  O   UNL     1      -7.365   6.273  65.216  1.00  0.00    -0.071 OA 
HETATM   17  C   UNL     1      -8.685   4.319  66.904  1.00  0.00    -0.113 C  
HETATM   18  H   UNL     1      -7.416   6.075  64.288  1.00  0.00     0.000 HD 
HETATM   19  C   UNL     1      -8.277   5.384  67.956  1.00  0.00    -0.099 C  
HETATM   20  O   UNL     1      -7.520   3.658  66.407  1.00  0.00    -0.075 OA 
HETATM   21  H   UNL     1      -7.098   3.181  67.112  1.00  0.00     0.000 HD 
BRANCH  19  22
HETATM   22  C   UNL     1      -8.974   5.171  69.285  1.00  0.00    -0.126 C  
HETATM   23  C   UNL     1      -9.569   6.138  70.008  1.00  0.00    -0.185 C  
BRANCH  23  24
HETATM   24  C   UNL     1     -10.369   5.908  71.267  1.00  0.00    -0.221 C  
HETATM   25  F   UNL     1      -9.651   6.310  72.352  1.00  0.00    -0.152 F  
HETATM   26  F   UNL     1     -10.591   4.574  71.422  1.00  0.00    -0.211 F  
BRANCH  24  27
HETATM   27  C   UNL     1     -11.714   6.653  71.239  1.00  0.00    -0.334 C  
BRANCH  27  28
HETATM   28  O   UNL     1     -11.753   7.674  72.246  1.00  0.00    -0.300 OA 
BRANCH  28  29
HETATM   29  C   UNL     1     -12.031   8.935  71.792  1.00  0.00    -0.359 A  
HETATM   30  C   UNL     1     -11.263   9.367  70.709  1.00  0.00    -0.367 A  
HETATM   31  C   UNL     1     -11.464  10.636  70.161  1.00  0.00    -0.411 A  
HETATM   32  C   UNL     1     -12.445  11.474  70.686  1.00  0.00    -0.405 A  
HETATM   33  C   UNL     1     -13.230  11.040  71.754  1.00  0.00    -0.505 A  
HETATM   34  C   UNL     1     -13.026   9.772  72.306  1.00  0.00    -0.420 A  
ENDBRANCH  28  29
ENDBRANCH  27  28
ENDBRANCH  24  27
ENDBRANCH  23  24
ENDBRANCH  19  22
ENDBRANCH  12  13
ENDBRANCH  11  12
ENDBRANCH   9  10
ENDBRANCH   8   9
ENDBRANCH   7   8
ENDBRANCH   5   7
ENDBRANCH   4   5
ENDBRANCH   2   4
TORSDOF 13
ENDMDL
MODEL      275
REMARK 921   NORMALIZED FREE ENERGY PREDICTED BY IDOCK:   -3.46 KCAL/MOL
REMARK 922        TOTAL FREE ENERGY PREDICTED BY IDOCK:   -8.93 KCAL/MOL
REMARK 923 INTER-LIGAND FREE ENERGY PREDICTED BY IDOCK:   -6.41 KCAL/MOL
REMARK 924 INTRA-LIGAND FREE ENERGY PREDICTED BY IDOCK:   -2.51 KCAL/MOL
REMARK 927      BINDING AFFINITY PREDICTED BY RF-SCORE:    0.00 PKD
ROOT
HETATM    1  C   UNL     1      -9.881   9.168  65.591  1.00  0.00    -0.164 C  
HETATM    2  C   UNL     1      -8.931   9.829  64.597  1.00  0.00    -0.230 C  
HETATM    3  C   UNL     1      -9.710  10.571  63.518  1.00  0.00    -0.374 C  
ENDROOT
BRANCH   2   4
HETATM    4  O   UNL     1      -8.116  10.794  65.285  1.00  0.00    -0.125 OA 
BRANCH   4   5
HETATM    5  C   UNL     1      -8.748  11.509  66.257  1.00  0.00    -0.159 C  
HETATM    6  O   UNL     1      -9.689  12.270  66.078  1.00  0.00    -0.242 OA 
BRANCH   5   7
HETATM    7  C   UNL     1      -8.087  11.268  67.588  1.00  0.00    -0.119 C  
BRANCH   7   8
HETATM    8  C   UNL     1      -9.131  11.169  68.699  1.00  0.00    -0.166 C  
BRANCH   8   9
HETATM    9  C   UNL     1      -8.726  10.108  69.720  1.00  0.00    -0.148 C  
BRANCH   9  10
HETATM   10  C   UNL     1      -7.911   9.011  69.098  1.00  0.00    -0.101 C  
HETATM   11  C   UNL     1      -8.387   7.847  68.629  1.00  0.00    -0.128 C  
BRANCH  11  12
HETATM   12  C   UNL     1      -9.827   7.406  68.634  1.00  0.00    -0.165 C  
BRANCH  12  13
HETATM   13  C   UNL     1      -9.934   5.879  68.555  1.00  0.00    -0.185 C  
HETATM   14  C   UNL     1     -10.085   5.324  67.132  1.00  0.00    -0.203 C  
HETATM   15  C   UNL     1      -9.715   3.858  67.298  1.00  0.00    -0.178 C  
HETATM   16  O   UNL     1      -9.156   5.922  66.230  1.00  0.00    -0.143 OA 
HETATM   17  C   UNL     1      -8.489   3.909  68.208  1.00  0.00    -0.092 C  
HETATM   18  H   UNL     1      -9.250   5.578  65.349  1.00  0.00     0.000 HD 
HETATM   19  C   UNL     1      -8.679   5.155  69.113  1.00  0.00    -0.103 C  
HETATM   20  O   UNL     1      -7.308   4.062  67.417  1.00  0.00    -0.067 OA 
HETATM   21  H   UNL     1      -6.546   4.094  67.983  1.00  0.00     0.000 HD 
BRANCH  19  22
HETATM   22  C   UNL     1      -8.777   4.786  70.580  1.00  0.00    -0.134 C  
HETATM   23  C   UNL     1      -9.754   4.036  71.124  1.00  0.00    -0.257 C  
BRANCH  23  24
HETATM   24  C   UNL     1      -9.785   3.565  72.558  1.00  0.00    -0.147 C  
HETATM   25  F   UNL     1      -8.515   3.365  73.007  1.00  0.00    -0.077 F  
HETATM   26  F   UNL     1     -10.412   2.359  72.624  1.00  0.00    -0.209 F  
BRANCH  24  27
HETATM   27  C   UNL     1     -10.501   4.567  73.478  1.00  0.00    -0.209 C  
BRANCH  27  28
HETATM   28  O   UNL     1     -11.691   5.072  72.855  1.00  0.00    -0.256 OA 
BRANCH  28  29
HETATM   29  C   UNL     1     -11.617   6.364  72.410  1.00  0.00    -0.269 A  
HETATM   30  C   UNL     1     -10.544   7.110  72.904  1.00  0.00    -0.317 A  
HETATM   31  C   UNL     1     -10.369   8.440  72.515  1.00  0.00    -0.371 A  
HETATM   32  C   UNL     1     -11.258   9.026  71.618  1.00  0.00    -0.431 A  
HETATM   33  C   UNL     1     -12.319   8.280  71.105  1.00  0.00    -0.224 A  
HETATM   34  C   UNL     1     -12.499   6.951  71.498  1.00  0.00    -0.420 A  
ENDBRANCH  28  29
ENDBRANCH  27  28
ENDBRANCH  24  27
ENDBRANCH  23  24
ENDBRANCH  19  22
ENDBRANCH  12  13
ENDBRANCH  11  12
ENDBRANCH   9  10
ENDBRANCH   8   9
ENDBRANCH   7   8
ENDBRANCH   5   7
ENDBRANCH   4   5
ENDBRANCH   2   4
TORSDOF 13
ENDMDL
MODEL      276
REMARK 921   NORMALIZED FREE ENERGY PREDICTED BY IDOCK:   -3.45 KCAL/MOL
REMARK 922        TOTAL FREE ENERGY PREDICTED BY IDOCK:   -8.91 KCAL/MOL
REMARK 923 INTER-LIGAND FREE ENERGY PREDICTED BY IDOCK:   -7.65 KCAL/MOL
REMARK 924 INTRA-LIGAND FREE ENERGY PREDICTED BY IDOCK:   -1.25 KCAL/MOL
REMARK 927      BINDING AFFINITY PREDICTED BY RF-SCORE:    0.00 PKD
ROOT
HETATM    1  C   UNL     1      -6.414   8.963  65.559  1.00  0.00    -0.067 C  
HETATM    2  C   UNL     1      -7.646   8.073  65.431  1.00  0.00    -0.083 C  
HETATM    3  C   UNL     1      -7.298   6.766  64.729  1.00  0.00    -0.088 C  
ENDROOT
BRANCH   2   4
HETATM    4  O   UNL     1      -8.136   7.745  66.743  1.00  0.00    -0.111 OA 
BRANCH   4   5
HETATM    5  C   UNL     1      -7.301   6.988  67.508  1.00  0.00    -0.092 C  
HETATM    6  O   UNL     1      -6.142   6.713  67.232  1.00  0.00    -0.026 OA 
BRANCH   5   7
HETATM    7  C   UNL     1      -8.027   6.491  68.729  1.00  0.00    -0.111 C  
BRANCH   7   8
HETATM    8  C   UNL     1      -8.370   7.650  69.664  1.00  0.00    -0.130 C  
BRANCH   8   9
HETATM    9  C   UNL     1      -8.806   7.124  71.029  1.00  0.00    -0.145 C  
BRANCH   9  10
HETATM   10  C   UNL     1      -9.967   6.180  70.924  1.00  0.00    -0.223 C  
HETATM   11  C   UNL     1     -11.191   6.378  71.439  1.00  0.00    -0.340 C  
BRANCH  11  12
HETATM   12  C   UNL     1     -11.644   7.581  72.224  1.00  0.00    -0.354 C  
BRANCH  12  13
HETATM   13  C   UNL     1     -12.505   8.508  71.359  1.00  0.00    -0.327 C  
HETATM   14  C   UNL     1     -13.945   8.687  71.857  1.00  0.00    -0.442 C  
HETATM   15  C   UNL     1     -14.402   9.943  71.131  1.00  0.00     0.776 C  
HETATM   16  O   UNL     1     -13.991   8.939  73.260  1.00  0.00    -1.203 OA 
HETATM   17  C   UNL     1     -13.196  10.874  71.253  1.00  0.00    -0.193 C  
HETATM   18  H   UNL     1     -14.883   9.050  73.568  1.00  0.00     0.000 HD 
HETATM   19  C   UNL     1     -11.947   9.954  71.281  1.00  0.00    -0.489 C  
HETATM   20  O   UNL     1     -13.280  11.613  72.473  1.00  0.00    -0.473 OA 
HETATM   21  H   UNL     1     -12.531  12.192  72.548  1.00  0.00     0.000 HD 
BRANCH  19  22
HETATM   22  C   UNL     1     -11.027  10.202  70.102  1.00  0.00    -0.376 C  
HETATM   23  C   UNL     1     -11.333   9.944  68.817  1.00  0.00    -0.049 C  
BRANCH  23  24
HETATM   24  C   UNL     1     -10.468  10.306  67.634  1.00  0.00    -0.239 C  
HETATM   25  F   UNL     1     -10.341   9.231  66.807  1.00  0.00    -0.281 F  
HETATM   26  F   UNL     1      -9.214  10.610  68.067  1.00  0.00    -0.139 F  
BRANCH  24  27
HETATM   27  C   UNL     1     -11.041  11.494  66.844  1.00  0.00    -0.307 C  
BRANCH  27  28
HETATM   28  O   UNL     1     -10.005  12.173  66.120  1.00  0.00    -0.223 OA 
BRANCH  28  29
HETATM   29  C   UNL     1     -10.237  13.497  65.865  1.00  0.00    -0.301 A  
HETATM   30  C   UNL     1      -9.760  14.387  66.830  1.00  0.00    -0.278 A  
HETATM   31  C   UNL     1      -9.939  15.763  66.672  1.00  0.00    -0.268 A  
HETATM   32  C   UNL     1     -10.584  16.256  65.540  1.00  0.00    -0.369 A  
HETATM   33  C   UNL     1     -11.044  15.374  64.564  1.00  0.00    -0.272 A  
HETATM   34  C   UNL     1     -10.871  13.996  64.723  1.00  0.00    -0.430 A  
ENDBRANCH  28  29
ENDBRANCH  27  28
ENDBRANCH  24  27
ENDBRANCH  23  24
ENDBRANCH  19  22
ENDBRANCH  12  13
ENDBRANCH  11  12
ENDBRANCH   9  10
ENDBRANCH   8   9
ENDBRANCH   7   8
ENDBRANCH   5   7
ENDBRANCH   4   5
ENDBRANCH   2   4
TORSDOF 13
ENDMDL
MODEL      277
REMARK 921   NORMALIZED FREE ENERGY PREDICTED BY IDOCK:   -3.44 KCAL/MOL
REMARK 922        TOTAL FREE ENERGY PREDICTED BY IDOCK:   -8.89 KCAL/MOL
REMARK 923 INTER-LIGAND FREE ENERGY PREDICTED BY IDOCK:   -7.02 KCAL/MOL
REMARK 924 INTRA-LIGAND FREE ENERGY PREDICTED BY IDOCK:   -1.87 KCAL/MOL
REMARK 927      BINDING AFFINITY PREDICTED BY RF-SCORE:    0.00 PKD
ROOT
HETATM    1  C   UNL     1     -10.971  11.812  68.778  1.00  0.00    -0.281 C  
HETATM    2  C   UNL     1     -11.920  12.738  68.026  1.00  0.00    -0.264 C  
HETATM    3  C   UNL     1     -12.189  14.004  68.829  1.00  0.00    -0.237 C  
ENDROOT
BRANCH   2   4
HETATM    4  O   UNL     1     -11.317  13.133  66.781  1.00  0.00    -0.293 OA 
BRANCH   4   5
HETATM    5  C   UNL     1     -11.861  12.575  65.663  1.00  0.00    -0.438 C  
HETATM    6  O   UNL     1     -13.033  12.663  65.326  1.00  0.00    -0.657 OA 
BRANCH   5   7
HETATM    7  C   UNL     1     -10.817  11.784  64.920  1.00  0.00    -0.353 C  
BRANCH   7   8
HETATM    8  C   UNL     1     -10.712  10.367  65.480  1.00  0.00     0.028 C  
BRANCH   8   9
HETATM    9  C   UNL     1      -9.277  10.065  65.905  1.00  0.00    -0.211 C  
BRANCH   9  10
HETATM   10  C   UNL     1      -8.610   9.091  64.979  1.00  0.00    -0.207 C  
HETATM   11  C   UNL     1      -8.200   7.853  65.300  1.00  0.00    -0.147 C  
BRANCH  11  12
HETATM   12  C   UNL     1      -8.326   7.196  66.649  1.00  0.00    -0.114 C  
BRANCH  12  13
HETATM   13  C   UNL     1      -9.215   5.949  66.572  1.00  0.00    -0.154 C  
HETATM   14  C   UNL     1      -8.796   4.935  65.498  1.00  0.00    -0.143 C  
HETATM   15  C   UNL     1      -9.515   3.666  65.932  1.00  0.00    -0.163 C  
HETATM   16  O   UNL     1      -7.392   4.688  65.525  1.00  0.00    -0.073 OA 
HETATM   17  C   UNL     1      -9.298   3.643  67.444  1.00  0.00    -0.203 C  
HETATM   18  H   UNL     1      -7.133   4.059  64.861  1.00  0.00     0.000 HD 
HETATM   19  C   UNL     1      -9.222   5.127  67.888  1.00  0.00    -0.128 C  
HETATM   20  O   UNL     1      -8.066   2.984  67.745  1.00  0.00    -0.077 OA 
HETATM   21  H   UNL     1      -7.932   2.970  68.685  1.00  0.00     0.000 HD 
BRANCH  19  22
HETATM   22  C   UNL     1     -10.339   5.497  68.845  1.00  0.00    -0.289 C  
HETATM   23  C   UNL     1     -10.294   6.512  69.728  1.00  0.00    -0.234 C  
BRANCH  23  24
HETATM   24  C   UNL     1     -11.450   6.957  70.591  1.00  0.00    -0.336 C  
HETATM   25  F   UNL     1     -12.628   6.621  69.997  1.00  0.00    -0.246 F  
HETATM   26  F   UNL     1     -11.441   8.314  70.692  1.00  0.00    -0.271 F  
BRANCH  24  27
HETATM   27  C   UNL     1     -11.391   6.337  71.997  1.00  0.00    -0.300 C  
BRANCH  27  28
HETATM   28  O   UNL     1     -10.883   7.281  72.950  1.00  0.00    -0.278 OA 
BRANCH  28  29
HETATM   29  C   UNL     1      -9.566   7.123  73.288  1.00  0.00    -0.195 A  
HETATM   30  C   UNL     1      -8.849   8.305  73.482  1.00  0.00    -0.255 A  
HETATM   31  C   UNL     1      -7.497   8.264  73.832  1.00  0.00    -0.205 A  
HETATM   32  C   UNL     1      -6.860   7.037  74.004  1.00  0.00    -0.081 A  
HETATM   33  C   UNL     1      -7.576   5.853  73.833  1.00  0.00    -0.092 A  
HETATM   34  C   UNL     1      -8.927   5.894  73.477  1.00  0.00    -0.128 A  
ENDBRANCH  28  29
ENDBRANCH  27  28
ENDBRANCH  24  27
ENDBRANCH  23  24
ENDBRANCH  19  22
ENDBRANCH  12  13
ENDBRANCH  11  12
ENDBRANCH   9  10
ENDBRANCH   8   9
ENDBRANCH   7   8
ENDBRANCH   5   7
ENDBRANCH   4   5
ENDBRANCH   2   4
TORSDOF 13
ENDMDL
MODEL      278
REMARK 921   NORMALIZED FREE ENERGY PREDICTED BY IDOCK:   -3.42 KCAL/MOL
REMARK 922        TOTAL FREE ENERGY PREDICTED BY IDOCK:   -8.86 KCAL/MOL
REMARK 923 INTER-LIGAND FREE ENERGY PREDICTED BY IDOCK:   -7.35 KCAL/MOL
REMARK 924 INTRA-LIGAND FREE ENERGY PREDICTED BY IDOCK:   -1.51 KCAL/MOL
REMARK 927      BINDING AFFINITY PREDICTED BY RF-SCORE:    0.00 PKD
ROOT
HETATM    1  C   UNL     1      -7.045  10.225  63.161  1.00  0.00    -0.110 C  
HETATM    2  C   UNL     1      -8.375  10.823  62.714  1.00  0.00    -0.148 C  
HETATM    3  C   UNL     1      -9.362   9.725  62.339  1.00  0.00    -0.223 C  
ENDROOT
BRANCH   2   4
HETATM    4  O   UNL     1      -8.951  11.573  63.798  1.00  0.00     0.060 OA 
BRANCH   4   5
HETATM    5  C   UNL     1     -10.024  10.994  64.406  1.00  0.00    -0.312 C  
HETATM    6  O   UNL     1     -11.195  11.268  64.188  1.00  0.00    -0.321 OA 
BRANCH   5   7
HETATM    7  C   UNL     1      -9.559   9.994  65.431  1.00  0.00    -0.342 C  
BRANCH   7   8
HETATM    8  C   UNL     1     -10.644   9.749  66.478  1.00  0.00    -0.150 C  
BRANCH   8   9
HETATM    9  C   UNL     1     -10.359   8.464  67.252  1.00  0.00    -0.369 C  
BRANCH   9  10
HETATM   10  C   UNL     1      -8.889   8.179  67.347  1.00  0.00    -0.131 C  
HETATM   11  C   UNL     1      -8.103   8.438  68.405  1.00  0.00    -0.123 C  
BRANCH  11  12
HETATM   12  C   UNL     1      -8.536   9.066  69.703  1.00  0.00    -0.137 C  
BRANCH  12  13
HETATM   13  C   UNL     1      -7.806  10.392  69.942  1.00  0.00    -0.050 C  
HETATM   14  C   UNL     1      -6.407  10.247  70.554  1.00  0.00    -0.112 C  
HETATM   15  C   UNL     1      -5.766  11.596  70.261  1.00  0.00    -0.152 C  
HETATM   16  O   UNL     1      -5.645   9.237  69.896  1.00  0.00    -0.032 OA 
HETATM   17  C   UNL     1      -6.185  11.873  68.818  1.00  0.00    -0.058 C  
HETATM   18  H   UNL     1      -4.778   9.147  70.275  1.00  0.00     0.000 HD 
HETATM   19  C   UNL     1      -7.568  11.195  68.635  1.00  0.00    -0.127 C  
HETATM   20  O   UNL     1      -5.238  11.289  67.921  1.00  0.00    -0.043 OA 
HETATM   21  H   UNL     1      -5.497  11.462  67.024  1.00  0.00     0.000 HD 
BRANCH  19  22
HETATM   22  C   UNL     1      -8.659  12.198  68.315  1.00  0.00    -0.175 C  
HETATM   23  C   UNL     1      -8.668  13.013  67.243  1.00  0.00    -0.209 C  
BRANCH  23  24
HETATM   24  C   UNL     1      -9.811  13.921  66.857  1.00  0.00    -0.268 C  
HETATM   25  F   UNL     1     -10.979  13.431  67.357  1.00  0.00    -0.258 F  
HETATM   26  F   UNL     1      -9.943  13.929  65.503  1.00  0.00    -0.298 F  
BRANCH  24  27
HETATM   27  C   UNL     1      -9.600  15.358  67.362  1.00  0.00    -0.210 C  
BRANCH  27  28
HETATM   28  O   UNL     1     -10.711  16.192  67.004  1.00  0.00    -0.313 OA 
BRANCH  28  29
HETATM   29  C   UNL     1     -10.505  17.538  67.151  1.00  0.00    -0.312 A  
HETATM   30  C   UNL     1     -10.598  18.290  65.978  1.00  0.00    -0.318 A  
HETATM   31  C   UNL     1     -10.409  19.674  66.009  1.00  0.00    -0.620 A  
HETATM   32  C   UNL     1     -10.140  20.313  67.217  1.00  0.00    -0.545 A  
HETATM   33  C   UNL     1     -10.067  19.569  68.395  1.00  0.00    -0.546 A  
HETATM   34  C   UNL     1     -10.251  18.184  68.363  1.00  0.00    -0.401 A  
ENDBRANCH  28  29
ENDBRANCH  27  28
ENDBRANCH  24  27
ENDBRANCH  23  24
ENDBRANCH  19  22
ENDBRANCH  12  13
ENDBRANCH  11  12
ENDBRANCH   9  10
ENDBRANCH   8   9
ENDBRANCH   7   8
ENDBRANCH   5   7
ENDBRANCH   4   5
ENDBRANCH   2   4
TORSDOF 13
ENDMDL
MODEL      279
REMARK 921   NORMALIZED FREE ENERGY PREDICTED BY IDOCK:   -3.41 KCAL/MOL
REMARK 922        TOTAL FREE ENERGY PREDICTED BY IDOCK:   -8.84 KCAL/MOL
REMARK 923 INTER-LIGAND FREE ENERGY PREDICTED BY IDOCK:   -7.18 KCAL/MOL
REMARK 924 INTRA-LIGAND FREE ENERGY PREDICTED BY IDOCK:   -1.66 KCAL/MOL
REMARK 927      BINDING AFFINITY PREDICTED BY RF-SCORE:    0.00 PKD
ROOT
HETATM    1  C   UNL     1      -5.659  16.833  67.394  1.00  0.00    -0.180 C  
HETATM    2  C   UNL     1      -6.630  18.009  67.382  1.00  0.00    -0.170 C  
HETATM    3  C   UNL     1      -6.667  18.665  66.008  1.00  0.00    -0.285 C  
ENDROOT
BRANCH   2   4
HETATM    4  O   UNL     1      -7.957  17.536  67.674  1.00  0.00    -0.198 OA 
BRANCH   4   5
HETATM    5  C   UNL     1      -8.535  16.777  66.702  1.00  0.00    -0.256 C  
HETATM    6  O   UNL     1      -9.278  17.194  65.824  1.00  0.00    -0.524 OA 
BRANCH   5   7
HETATM    7  C   UNL     1      -8.168  15.329  66.891  1.00  0.00    -0.263 C  
BRANCH   7   8
HETATM    8  C   UNL     1      -9.416  14.482  67.131  1.00  0.00    -0.236 C  
BRANCH   8   9
HETATM    9  C   UNL     1      -9.715  14.384  68.625  1.00  0.00    -0.216 C  
BRANCH   9  10
HETATM   10  C   UNL     1     -11.178  14.545  68.918  1.00  0.00    -0.283 C  
HETATM   11  C   UNL     1     -12.094  13.563  68.919  1.00  0.00    -0.315 C  
BRANCH  11  12
HETATM   12  C   UNL     1     -11.839  12.108  68.627  1.00  0.00    -0.358 C  
BRANCH  12  13
HETATM   13  C   UNL     1     -11.420  11.358  69.897  1.00  0.00    -0.353 C  
HETATM   14  C   UNL     1     -12.588  10.890  70.774  1.00  0.00    -0.377 C  
HETATM   15  C   UNL     1     -11.945   9.834  71.661  1.00  0.00    -0.454 C  
HETATM   16  O   UNL     1     -13.611  10.264  70.002  1.00  0.00    -0.377 OA 
HETATM   17  C   UNL     1     -11.069   9.047  70.686  1.00  0.00    -0.265 C  
HETATM   18  H   UNL     1     -14.334   9.973  70.546  1.00  0.00     0.000 HD 
HETATM   19  C   UNL     1     -10.624  10.060  69.599  1.00  0.00    -0.278 C  
HETATM   20  O   UNL     1     -11.836   8.001  70.088  1.00  0.00    -0.470 OA 
HETATM   21  H   UNL     1     -11.291   7.511  69.482  1.00  0.00     0.000 HD 
BRANCH  19  22
HETATM   22  C   UNL     1      -9.120  10.246  69.572  1.00  0.00    -0.187 C  
HETATM   23  C   UNL     1      -8.443  10.928  68.629  1.00  0.00    -0.152 C  
BRANCH  23  24
HETATM   24  C   UNL     1      -6.962  11.219  68.669  1.00  0.00    -0.084 C  
HETATM   25  F   UNL     1      -6.575  11.475  69.949  1.00  0.00    -0.123 F  
HETATM   26  F   UNL     1      -6.705  12.348  67.954  1.00  0.00    -0.068 F  
BRANCH  24  27
HETATM   27  C   UNL     1      -6.131  10.054  68.107  1.00  0.00    -0.049 C  
BRANCH  27  28
HETATM   28  O   UNL     1      -5.803  10.280  66.728  1.00  0.00    -0.049 OA 
BRANCH  28  29
HETATM   29  C   UNL     1      -6.514   9.537  65.826  1.00  0.00    -0.074 A  
HETATM   30  C   UNL     1      -7.525  10.221  65.148  1.00  0.00    -0.130 A  
HETATM   31  C   UNL     1      -8.313   9.562  64.201  1.00  0.00    -0.174 A  
HETATM   32  C   UNL     1      -8.083   8.218  63.918  1.00  0.00    -0.124 A  
HETATM   33  C   UNL     1      -7.061   7.535  64.577  1.00  0.00    -0.065 A  
HETATM   34  C   UNL     1      -6.276   8.192  65.528  1.00  0.00    -0.045 A  
ENDBRANCH  28  29
ENDBRANCH  27  28
ENDBRANCH  24  27
ENDBRANCH  23  24
ENDBRANCH  19  22
ENDBRANCH  12  13
ENDBRANCH  11  12
ENDBRANCH   9  10
ENDBRANCH   8   9
ENDBRANCH   7   8
ENDBRANCH   5   7
ENDBRANCH   4   5
ENDBRANCH   2   4
TORSDOF 13
ENDMDL
MODEL      280
REMARK 921   NORMALIZED FREE ENERGY PREDICTED BY IDOCK:   -3.39 KCAL/MOL
REMARK 922        TOTAL FREE ENERGY PREDICTED BY IDOCK:   -8.80 KCAL/MOL
REMARK 923 INTER-LIGAND FREE ENERGY PREDICTED BY IDOCK:   -7.89 KCAL/MOL
REMARK 924 INTRA-LIGAND FREE ENERGY PREDICTED BY IDOCK:   -0.91 KCAL/MOL
REMARK 927      BINDING AFFINITY PREDICTED BY RF-SCORE:    0.00 PKD
ROOT
HETATM    1  C   UNL     1      -7.065   6.842  72.404  1.00  0.00    -0.071 C  
HETATM    2  C   UNL     1      -7.429   5.375  72.203  1.00  0.00    -0.095 C  
HETATM    3  C   UNL     1      -7.092   4.560  73.446  1.00  0.00    -0.071 C  
ENDROOT
BRANCH   2   4
HETATM    4  O   UNL     1      -8.846   5.261  71.980  1.00  0.00    -0.129 OA 
BRANCH   4   5
HETATM    5  C   UNL     1      -9.208   4.622  70.832  1.00  0.00    -0.141 C  
HETATM    6  O   UNL     1      -9.868   3.595  70.771  1.00  0.00    -0.176 OA 
BRANCH   5   7
HETATM    7  C   UNL     1      -8.635   5.340  69.639  1.00  0.00    -0.101 C  
BRANCH   7   8
HETATM    8  C   UNL     1      -9.259   6.726  69.490  1.00  0.00    -0.147 C  
BRANCH   8   9
HETATM    9  C   UNL     1     -10.418   6.685  68.496  1.00  0.00    -0.246 C  
BRANCH   9  10
HETATM   10  C   UNL     1     -10.306   7.762  67.457  1.00  0.00    -0.333 C  
HETATM   11  C   UNL     1     -10.075   9.063  67.694  1.00  0.00    -0.271 C  
BRANCH  11  12
HETATM   12  C   UNL     1      -9.883   9.703  69.044  1.00  0.00    -0.183 C  
BRANCH  12  13
HETATM   13  C   UNL     1      -8.806  10.792  68.987  1.00  0.00    -0.135 C  
HETATM   14  C   UNL     1      -7.365  10.265  69.033  1.00  0.00    -0.092 C  
HETATM   15  C   UNL     1      -6.556  11.445  68.517  1.00  0.00    -0.062 C  
HETATM   16  O   UNL     1      -7.176   9.167  68.143  1.00  0.00    -0.077 OA 
HETATM   17  C   UNL     1      -7.383  11.944  67.333  1.00  0.00    -0.145 C  
HETATM   18  H   UNL     1      -6.283   8.842  68.172  1.00  0.00     0.000 HD 
HETATM   19  C   UNL     1      -8.862  11.631  67.682  1.00  0.00    -0.159 C  
HETATM   20  O   UNL     1      -7.006  11.236  66.150  1.00  0.00    -0.334 OA 
HETATM   21  H   UNL     1      -7.520  11.546  65.414  1.00  0.00     0.000 HD 
BRANCH  19  22
HETATM   22  C   UNL     1      -9.703  12.888  67.788  1.00  0.00    -0.214 C  
HETATM   23  C   UNL     1     -10.484  13.379  66.808  1.00  0.00    -0.275 C  
BRANCH  23  24
HETATM   24  C   UNL     1     -11.416  14.558  66.954  1.00  0.00    -0.364 C  
HETATM   25  F   UNL     1     -12.335  14.548  65.949  1.00  0.00    -0.377 F  
HETATM   26  F   UNL     1     -10.707  15.712  66.819  1.00  0.00    -0.296 F  
BRANCH  24  27
HETATM   27  C   UNL     1     -12.140  14.555  68.310  1.00  0.00    -0.199 C  
BRANCH  27  28
HETATM   28  O   UNL     1     -11.337  15.185  69.318  1.00  0.00    -0.265 OA 
BRANCH  28  29
HETATM   29  C   UNL     1     -11.798  15.056  70.601  1.00  0.00    -0.313 A  
HETATM   30  C   UNL     1     -12.533  13.898  70.861  1.00  0.00    -0.447 A  
HETATM   31  C   UNL     1     -13.050  13.660  72.137  1.00  0.00    -0.489 A  
HETATM   32  C   UNL     1     -12.820  14.574  73.162  1.00  0.00    -0.547 A  
HETATM   33  C   UNL     1     -12.069  15.722  72.914  1.00  0.00    -0.596 A  
HETATM   34  C   UNL     1     -11.556  15.963  71.636  1.00  0.00    -0.541 A  
ENDBRANCH  28  29
ENDBRANCH  27  28
ENDBRANCH  24  27
ENDBRANCH  23  24
ENDBRANCH  19  22
ENDBRANCH  12  13
ENDBRANCH  11  12
ENDBRANCH   9  10
ENDBRANCH   8   9
ENDBRANCH   7   8
ENDBRANCH   5   7
ENDBRANCH   4   5
ENDBRANCH   2   4
TORSDOF 13
ENDMDL
MODEL      281
REMARK 921   NORMALIZED FREE ENERGY PREDICTED BY IDOCK:   -3.37 KCAL/MOL
REMARK 922        TOTAL FREE ENERGY PREDICTED BY IDOCK:   -8.77 KCAL/MOL
REMARK 923 INTER-LIGAND FREE ENERGY PREDICTED BY IDOCK:   -7.97 KCAL/MOL
REMARK 924 INTRA-LIGAND FREE ENERGY PREDICTED BY IDOCK:   -0.80 KCAL/MOL
REMARK 927      BINDING AFFINITY PREDICTED BY RF-SCORE:    0.00 PKD
ROOT
HETATM    1  C   UNL     1      -7.232  14.508  70.327  1.00  0.00     0.337 C  
HETATM    2  C   UNL     1      -5.745  14.400  70.646  1.00  0.00    -0.173 C  
HETATM    3  C   UNL     1      -5.531  14.047  72.113  1.00  0.00    -0.213 C  
ENDROOT
BRANCH   2   4
HETATM    4  O   UNL     1      -5.162  13.349  69.856  1.00  0.00    -0.082 OA 
BRANCH   4   5
HETATM    5  C   UNL     1      -5.775  12.136  69.952  1.00  0.00    -0.124 C  
HETATM    6  O   UNL     1      -5.921  11.495  70.983  1.00  0.00    -0.379 OA 
BRANCH   5   7
HETATM    7  C   UNL     1      -6.208  11.667  68.588  1.00  0.00    -0.053 C  
BRANCH   7   8
HETATM    8  C   UNL     1      -7.638  11.135  68.628  1.00  0.00    -0.127 C  
BRANCH   8   9
HETATM    9  C   UNL     1      -8.250  11.140  67.229  1.00  0.00    -0.136 C  
BRANCH   9  10
HETATM   10  C   UNL     1      -9.731  10.900  67.262  1.00  0.00    -0.189 C  
HETATM   11  C   UNL     1     -10.564  10.970  66.211  1.00  0.00    -0.295 C  
BRANCH  11  12
HETATM   12  C   UNL     1     -10.182  11.304  64.793  1.00  0.00    -0.347 C  
BRANCH  12  13
HETATM   13  C   UNL     1     -10.604  12.733  64.433  1.00  0.00    -0.402 C  
HETATM   14  C   UNL     1     -12.029  12.855  63.876  1.00  0.00    -0.480 C  
HETATM   15  C   UNL     1     -12.332  14.336  64.040  1.00  0.00    -0.283 C  
HETATM   16  O   UNL     1     -12.966  12.116  64.657  1.00  0.00    -0.651 OA 
HETATM   17  C   UNL     1     -11.791  14.650  65.435  1.00  0.00    -0.304 C  
HETATM   18  H   UNL     1     -13.848  12.192  64.312  1.00  0.00     0.000 HD 
HETATM   19  C   UNL     1     -10.590  13.693  65.653  1.00  0.00    -0.294 C  
HETATM   20  O   UNL     1     -12.800  14.390  66.412  1.00  0.00    -0.434 OA 
HETATM   21  H   UNL     1     -12.464  14.585  67.279  1.00  0.00     0.000 HD 
BRANCH  19  22
HETATM   22  C   UNL     1      -9.286  14.445  65.836  1.00  0.00    -0.100 C  
HETATM   23  C   UNL     1      -8.890  15.036  66.980  1.00  0.00    -0.257 C  
BRANCH  23  24
HETATM   24  C   UNL     1      -7.540  15.675  67.199  1.00  0.00    -0.223 C  
HETATM   25  F   UNL     1      -6.559  14.739  67.073  1.00  0.00    -0.076 F  
HETATM   26  F   UNL     1      -7.465  16.144  68.474  1.00  0.00    -0.143 F  
BRANCH  24  27
HETATM   27  C   UNL     1      -7.281  16.825  66.213  1.00  0.00    -0.099 C  
BRANCH  27  28
HETATM   28  O   UNL     1      -7.165  18.076  66.906  1.00  0.00    -0.186 OA 
BRANCH  28  29
HETATM   29  C   UNL     1      -8.348  18.719  67.158  1.00  0.00    -0.271 A  
HETATM   30  C   UNL     1      -8.904  19.399  66.073  1.00  0.00    -0.173 A  
HETATM   31  C   UNL     1     -10.111  20.088  66.214  1.00  0.00    -0.603 A  
HETATM   32  C   UNL     1     -10.774  20.086  67.439  1.00  0.00    -0.359 A  
HETATM   33  C   UNL     1     -10.235  19.391  68.520  1.00  0.00    -0.492 A  
HETATM   34  C   UNL     1      -9.024  18.706  68.381  1.00  0.00    -0.356 A  
ENDBRANCH  28  29
ENDBRANCH  27  28
ENDBRANCH  24  27
ENDBRANCH  23  24
ENDBRANCH  19  22
ENDBRANCH  12  13
ENDBRANCH  11  12
ENDBRANCH   9  10
ENDBRANCH   8   9
ENDBRANCH   7   8
ENDBRANCH   5   7
ENDBRANCH   4   5
ENDBRANCH   2   4
TORSDOF 13
ENDMDL
MODEL      282
REMARK 921   NORMALIZED FREE ENERGY PREDICTED BY IDOCK:   -3.36 KCAL/MOL
REMARK 922        TOTAL FREE ENERGY PREDICTED BY IDOCK:   -8.76 KCAL/MOL
REMARK 923 INTER-LIGAND FREE ENERGY PREDICTED BY IDOCK:   -6.64 KCAL/MOL
REMARK 924 INTRA-LIGAND FREE ENERGY PREDICTED BY IDOCK:   -2.11 KCAL/MOL
REMARK 927      BINDING AFFINITY PREDICTED BY RF-SCORE:    0.00 PKD
ROOT
HETATM    1  C   UNL     1      -9.633  15.524  66.523  1.00  0.00    -0.295 C  
HETATM    2  C   UNL     1      -9.338  14.030  66.611  1.00  0.00    -0.277 C  
HETATM    3  C   UNL     1      -8.117  13.771  67.484  1.00  0.00    -0.192 C  
ENDROOT
BRANCH   2   4
HETATM    4  O   UNL     1     -10.456  13.358  67.218  1.00  0.00    -0.246 OA 
BRANCH   4   5
HETATM    5  C   UNL     1     -11.109  12.469  66.418  1.00  0.00    -0.290 C  
HETATM    6  O   UNL     1     -12.272  12.564  66.053  1.00  0.00    -0.605 OA 
BRANCH   5   7
HETATM    7  C   UNL     1     -10.203  11.313  66.084  1.00  0.00    -0.291 C  
BRANCH   7   8
HETATM    8  C   UNL     1     -10.057  10.377  67.282  1.00  0.00    -0.244 C  
BRANCH   8   9
HETATM    9  C   UNL     1     -10.948   9.149  67.112  1.00  0.00     0.074 C  
BRANCH   9  10
HETATM   10  C   UNL     1     -10.152   7.877  67.073  1.00  0.00    -0.347 C  
HETATM   11  C   UNL     1     -10.194   6.893  67.985  1.00  0.00    -0.209 C  
BRANCH  11  12
HETATM   12  C   UNL     1     -11.045   6.867  69.228  1.00  0.00    -0.229 C  
BRANCH  12  13
HETATM   13  C   UNL     1     -10.182   7.003  70.487  1.00  0.00    -0.209 C  
HETATM   14  C   UNL     1      -9.905   8.451  70.914  1.00  0.00    -0.184 C  
HETATM   15  C   UNL     1      -9.457   8.298  72.360  1.00  0.00    -0.357 C  
HETATM   16  O   UNL     1     -11.090   9.244  70.893  1.00  0.00    -0.257 OA 
HETATM   17  C   UNL     1     -10.444   7.278  72.924  1.00  0.00    -0.282 C  
HETATM   18  H   UNL     1     -10.919  10.140  71.158  1.00  0.00     0.000 HD 
HETATM   19  C   UNL     1     -10.831   6.356  71.739  1.00  0.00    -0.283 C  
HETATM   20  O   UNL     1     -11.607   7.951  73.412  1.00  0.00    -0.566 OA 
HETATM   21  H   UNL     1     -12.220   7.317  73.764  1.00  0.00     0.000 HD 
BRANCH  19  22
HETATM   22  C   UNL     1     -10.419   4.916  71.977  1.00  0.00    -0.245 C  
HETATM   23  C   UNL     1     -10.764   4.182  73.051  1.00  0.00    -0.256 C  
BRANCH  23  24
HETATM   24  C   UNL     1     -10.460   2.714  73.229  1.00  0.00    -0.154 C  
HETATM   25  F   UNL     1     -11.310   1.970  72.468  1.00  0.00    -0.110 F  
HETATM   26  F   UNL     1     -10.688   2.359  74.523  1.00  0.00    -0.184 F  
BRANCH  24  27
HETATM   27  C   UNL     1      -9.008   2.377  72.852  1.00  0.00    -0.070 C  
BRANCH  27  28
HETATM   28  O   UNL     1      -8.091   2.935  73.805  1.00  0.00    -0.069 OA 
BRANCH  28  29
HETATM   29  C   UNL     1      -7.249   3.896  73.316  1.00  0.00    -0.067 A  
HETATM   30  C   UNL     1      -7.012   4.977  74.168  1.00  0.00    -0.077 A  
HETATM   31  C   UNL     1      -6.166   6.016  73.773  1.00  0.00    -0.064 A  
HETATM   32  C   UNL     1      -5.542   5.971  72.529  1.00  0.00    -0.032 A  
HETATM   33  C   UNL     1      -5.758   4.884  71.682  1.00  0.00    -0.012 A  
HETATM   34  C   UNL     1      -6.609   3.847  72.074  1.00  0.00    -0.015 A  
ENDBRANCH  28  29
ENDBRANCH  27  28
ENDBRANCH  24  27
ENDBRANCH  23  24
ENDBRANCH  19  22
ENDBRANCH  12  13
ENDBRANCH  11  12
ENDBRANCH   9  10
ENDBRANCH   8   9
ENDBRANCH   7   8
ENDBRANCH   5   7
ENDBRANCH   4   5
ENDBRANCH   2   4
TORSDOF 13
ENDMDL
MODEL      283
REMARK 921   NORMALIZED FREE ENERGY PREDICTED BY IDOCK:   -3.36 KCAL/MOL
REMARK 922        TOTAL FREE ENERGY PREDICTED BY IDOCK:   -8.74 KCAL/MOL
REMARK 923 INTER-LIGAND FREE ENERGY PREDICTED BY IDOCK:   -6.53 KCAL/MOL
REMARK 924 INTRA-LIGAND FREE ENERGY PREDICTED BY IDOCK:   -2.21 KCAL/MOL
REMARK 927      BINDING AFFINITY PREDICTED BY RF-SCORE:    0.00 PKD
ROOT
HETATM    1  C   UNL     1     -10.036  20.359  66.186  1.00  0.00    -0.316 C  
HETATM    2  C   UNL     1     -10.105  18.836  66.235  1.00  0.00    -0.409 C  
HETATM    3  C   UNL     1     -10.977  18.299  65.106  1.00  0.00     0.889 C  
ENDROOT
BRANCH   2   4
HETATM    4  O   UNL     1      -8.785  18.292  66.061  1.00  0.00    -0.497 OA 
BRANCH   4   5
HETATM    5  C   UNL     1      -8.047  18.172  67.200  1.00  0.00    -0.221 C  
HETATM    6  O   UNL     1      -7.434  19.078  67.746  1.00  0.00    -0.241 OA 
BRANCH   5   7
HETATM    7  C   UNL     1      -8.049  16.741  67.668  1.00  0.00    -0.188 C  
BRANCH   7   8
HETATM    8  C   UNL     1      -8.720  15.836  66.637  1.00  0.00    -0.323 C  
BRANCH   8   9
HETATM    9  C   UNL     1      -9.524  14.739  67.330  1.00  0.00    -0.207 C  
BRANCH   9  10
HETATM   10  C   UNL     1     -10.864  15.230  67.792  1.00  0.00    -0.295 C  
HETATM   11  C   UNL     1     -11.186  15.574  69.049  1.00  0.00    -0.304 C  
BRANCH  11  12
HETATM   12  C   UNL     1     -10.272  15.537  70.245  1.00  0.00    -0.139 C  
BRANCH  12  13
HETATM   13  C   UNL     1     -11.022  15.062  71.495  1.00  0.00     0.032 C  
HETATM   14  C   UNL     1     -11.498  16.192  72.419  1.00  0.00    -0.094 C  
HETATM   15  C   UNL     1     -12.552  15.508  73.276  1.00  0.00    -0.617 C  
HETATM   16  O   UNL     1     -12.126  17.242  71.687  1.00  0.00     1.027 OA 
HETATM   17  C   UNL     1     -13.333  14.670  72.264  1.00  0.00    -0.392 C  
HETATM   18  H   UNL     1     -12.421  17.941  72.260  1.00  0.00     0.000 HD 
HETATM   19  C   UNL     1     -12.316  14.274  71.161  1.00  0.00    -0.440 C  
HETATM   20  O   UNL     1     -14.382  15.456  71.695  1.00  0.00    -0.510 OA 
HETATM   21  H   UNL     1     -14.868  14.935  71.067  1.00  0.00     0.000 HD 
BRANCH  19  22
HETATM   22  C   UNL     1     -12.124  12.773  71.073  1.00  0.00    -0.027 C  
HETATM   23  C   UNL     1     -11.745  12.107  69.966  1.00  0.00    -0.330 C  
BRANCH  23  24
HETATM   24  C   UNL     1     -11.432  10.631  69.910  1.00  0.00    -0.317 C  
HETATM   25  F   UNL     1     -12.521   9.913  70.301  1.00  0.00    -0.260 F  
HETATM   26  F   UNL     1     -10.441  10.346  70.797  1.00  0.00    -0.255 F  
BRANCH  24  27
HETATM   27  C   UNL     1     -11.005  10.186  68.501  1.00  0.00    -0.232 C  
BRANCH  27  28
HETATM   28  O   UNL     1     -10.355  11.258  67.803  1.00  0.00    -0.175 OA 
BRANCH  28  29
HETATM   29  C   UNL     1     -10.235  11.089  66.450  1.00  0.00    -0.236 A  
HETATM   30  C   UNL     1     -11.288  11.597  65.686  1.00  0.00    -0.233 A  
HETATM   31  C   UNL     1     -11.271  11.484  64.294  1.00  0.00    -0.358 A  
HETATM   32  C   UNL     1     -10.191  10.874  63.659  1.00  0.00    -0.395 A  
HETATM   33  C   UNL     1      -9.127  10.384  64.415  1.00  0.00    -0.267 A  
HETATM   34  C   UNL     1      -9.147  10.492  65.808  1.00  0.00    -0.204 A  
ENDBRANCH  28  29
ENDBRANCH  27  28
ENDBRANCH  24  27
ENDBRANCH  23  24
ENDBRANCH  19  22
ENDBRANCH  12  13
ENDBRANCH  11  12
ENDBRANCH   9  10
ENDBRANCH   8   9
ENDBRANCH   7   8
ENDBRANCH   5   7
ENDBRANCH   4   5
ENDBRANCH   2   4
TORSDOF 13
ENDMDL
MODEL      284
REMARK 921   NORMALIZED FREE ENERGY PREDICTED BY IDOCK:   -3.35 KCAL/MOL
REMARK 922        TOTAL FREE ENERGY PREDICTED BY IDOCK:   -8.74 KCAL/MOL
REMARK 923 INTER-LIGAND FREE ENERGY PREDICTED BY IDOCK:   -5.98 KCAL/MOL
REMARK 924 INTRA-LIGAND FREE ENERGY PREDICTED BY IDOCK:   -2.76 KCAL/MOL
REMARK 927      BINDING AFFINITY PREDICTED BY RF-SCORE:    0.00 PKD
ROOT
HETATM    1  C   UNL     1      -7.232  16.283  68.777  1.00  0.00    -0.179 C  
HETATM    2  C   UNL     1      -7.043  14.776  68.919  1.00  0.00    -0.118 C  
HETATM    3  C   UNL     1      -6.655  14.412  70.346  1.00  0.00    -0.029 C  
ENDROOT
BRANCH   2   4
HETATM    4  O   UNL     1      -8.283  14.110  68.622  1.00  0.00    -0.140 OA 
BRANCH   4   5
HETATM    5  C   UNL     1      -8.419  13.668  67.341  1.00  0.00    -0.201 C  
HETATM    6  O   UNL     1      -9.225  14.093  66.526  1.00  0.00    -0.268 OA 
BRANCH   5   7
HETATM    7  C   UNL     1      -7.460  12.536  67.081  1.00  0.00    -0.077 C  
BRANCH   7   8
HETATM    8  C   UNL     1      -8.011  11.224  67.635  1.00  0.00    -0.118 C  
BRANCH   8   9
HETATM    9  C   UNL     1      -8.511  10.333  66.501  1.00  0.00    -0.126 C  
BRANCH   9  10
HETATM   10  C   UNL     1      -8.298   8.876  66.794  1.00  0.00    -0.111 C  
HETATM   11  C   UNL     1      -9.191   8.047  67.357  1.00  0.00    -0.155 C  
BRANCH  11  12
HETATM   12  C   UNL     1     -10.581   8.410  67.809  1.00  0.00    -0.238 C  
BRANCH  12  13
HETATM   13  C   UNL     1     -10.610   8.706  69.313  1.00  0.00    -0.204 C  
HETATM   14  C   UNL     1     -11.068  10.125  69.673  1.00  0.00    -0.263 C  
HETATM   15  C   UNL     1     -11.433  10.000  71.145  1.00  0.00    -0.432 C  
HETATM   16  O   UNL     1     -12.239  10.501  68.951  1.00  0.00    -0.753 OA 
HETATM   17  C   UNL     1     -12.194   8.676  71.204  1.00  0.00    -0.238 C  
HETATM   18  H   UNL     1     -12.523  11.380  69.175  1.00  0.00     0.000 HD 
HETATM   19  C   UNL     1     -11.583   7.783  70.093  1.00  0.00     0.029 C  
HETATM   20  O   UNL     1     -13.579   8.904  70.935  1.00  0.00    -0.545 OA 
HETATM   21  H   UNL     1     -14.052   8.081  70.972  1.00  0.00     0.000 HD 
BRANCH  19  22
HETATM   22  C   UNL     1     -10.937   6.532  70.656  1.00  0.00    -0.340 C  
HETATM   23  C   UNL     1     -10.873   6.218  71.963  1.00  0.00    -0.286 C  
BRANCH  23  24
HETATM   24  C   UNL     1     -10.342   4.916  72.514  1.00  0.00    -0.201 C  
HETATM   25  F   UNL     1     -11.276   4.339  73.319  1.00  0.00    -0.289 F  
HETATM   26  F   UNL     1      -9.258   5.167  73.297  1.00  0.00    -0.129 F  
BRANCH  24  27
HETATM   27  C   UNL     1      -9.952   3.935  71.397  1.00  0.00    -0.127 C  
BRANCH  27  28
HETATM   28  O   UNL     1      -8.526   3.804  71.307  1.00  0.00    -0.070 OA 
BRANCH  28  29
HETATM   29  C   UNL     1      -7.943   4.453  70.252  1.00  0.00    -0.062 A  
HETATM   30  C   UNL     1      -7.146   5.549  70.587  1.00  0.00    -0.062 A  
HETATM   31  C   UNL     1      -6.499   6.285  69.592  1.00  0.00    -0.043 A  
HETATM   32  C   UNL     1      -6.636   5.917  68.255  1.00  0.00    -0.052 A  
HETATM   33  C   UNL     1      -7.414   4.811  67.915  1.00  0.00    -0.078 A  
HETATM   34  C   UNL     1      -8.066   4.078  68.911  1.00  0.00    -0.075 A  
ENDBRANCH  28  29
ENDBRANCH  27  28
ENDBRANCH  24  27
ENDBRANCH  23  24
ENDBRANCH  19  22
ENDBRANCH  12  13
ENDBRANCH  11  12
ENDBRANCH   9  10
ENDBRANCH   8   9
ENDBRANCH   7   8
ENDBRANCH   5   7
ENDBRANCH   4   5
ENDBRANCH   2   4
TORSDOF 13
ENDMDL
MODEL      285
REMARK 921   NORMALIZED FREE ENERGY PREDICTED BY IDOCK:   -3.29 KCAL/MOL
REMARK 922        TOTAL FREE ENERGY PREDICTED BY IDOCK:   -8.63 KCAL/MOL
REMARK 923 INTER-LIGAND FREE ENERGY PREDICTED BY IDOCK:   -7.71 KCAL/MOL
REMARK 924 INTRA-LIGAND FREE ENERGY PREDICTED BY IDOCK:   -0.91 KCAL/MOL
REMARK 927      BINDING AFFINITY PREDICTED BY RF-SCORE:    0.00 PKD
ROOT
HETATM    1  C   UNL     1     -10.335  19.853  66.866  1.00  0.00    -0.596 C  
HETATM    2  C   UNL     1      -9.449  18.655  66.541  1.00  0.00    -0.322 C  
HETATM    3  C   UNL     1     -10.262  17.539  65.897  1.00  0.00    -0.251 C  
ENDROOT
BRANCH   2   4
HETATM    4  O   UNL     1      -8.436  19.053  65.600  1.00  0.00    -0.339 OA 
BRANCH   4   5
HETATM    5  C   UNL     1      -7.306  19.585  66.145  1.00  0.00    -0.281 C  
HETATM    6  O   UNL     1      -6.817  20.666  65.847  1.00  0.00    -0.228 OA 
BRANCH   5   7
HETATM    7  C   UNL     1      -6.711  18.625  67.141  1.00  0.00    -0.206 C  
BRANCH   7   8
HETATM    8  C   UNL     1      -5.965  17.500  66.428  1.00  0.00    -0.250 C  
BRANCH   8   9
HETATM    9  C   UNL     1      -5.979  16.229  67.274  1.00  0.00    -0.175 C  
BRANCH   9  10
HETATM   10  C   UNL     1      -6.937  16.330  68.424  1.00  0.00    -0.135 C  
HETATM   11  C   UNL     1      -7.991  15.527  68.644  1.00  0.00    -0.146 C  
BRANCH  11  12
HETATM   12  C   UNL     1      -8.423  14.369  67.784  1.00  0.00    -0.175 C  
BRANCH  12  13
HETATM   13  C   UNL     1      -9.695  13.718  68.339  1.00  0.00    -0.219 C  
HETATM   14  C   UNL     1     -10.591  14.662  69.152  1.00  0.00    -0.242 C  
HETATM   15  C   UNL     1     -11.923  13.928  69.177  1.00  0.00    -0.404 C  
HETATM   16  O   UNL     1     -10.779  15.911  68.489  1.00  0.00    -0.249 OA 
HETATM   17  C   UNL     1     -12.071  13.425  67.742  1.00  0.00    -0.259 C  
HETATM   18  H   UNL     1     -11.335  16.495  68.993  1.00  0.00     0.000 HD 
HETATM   19  C   UNL     1     -10.629  13.171  67.227  1.00  0.00    -0.250 C  
HETATM   20  O   UNL     1     -12.700  14.428  66.942  1.00  0.00    -0.468 OA 
HETATM   21  H   UNL     1     -12.792  14.115  66.050  1.00  0.00     0.000 HD 
BRANCH  19  22
HETATM   22  C   UNL     1     -10.395  11.714  66.880  1.00  0.00    -0.253 C  
HETATM   23  C   UNL     1      -9.794  11.275  65.758  1.00  0.00    -0.273 C  
BRANCH  23  24
HETATM   24  C   UNL     1      -9.449   9.834  65.469  1.00  0.00    -0.262 C  
HETATM   25  F   UNL     1      -9.259   9.662  64.132  1.00  0.00    -0.263 F  
HETATM   26  F   UNL     1     -10.498   9.040  65.817  1.00  0.00    -0.199 F  
BRANCH  24  27
HETATM   27  C   UNL     1      -8.190   9.381  66.227  1.00  0.00    -0.111 C  
BRANCH  27  28
HETATM   28  O   UNL     1      -8.510   8.364  67.187  1.00  0.00    -0.120 OA 
BRANCH  28  29
HETATM   29  C   UNL     1      -8.851   7.147  66.661  1.00  0.00    -0.132 A  
HETATM   30  C   UNL     1      -8.016   6.676  65.646  1.00  0.00    -0.115 A  
HETATM   31  C   UNL     1      -8.267   5.444  65.039  1.00  0.00    -0.137 A  
HETATM   32  C   UNL     1      -9.348   4.670  65.455  1.00  0.00    -0.159 A  
HETATM   33  C   UNL     1     -10.173   5.126  66.482  1.00  0.00    -0.300 A  
HETATM   34  C   UNL     1      -9.926   6.361  67.087  1.00  0.00    -0.197 A  
ENDBRANCH  28  29
ENDBRANCH  27  28
ENDBRANCH  24  27
ENDBRANCH  23  24
ENDBRANCH  19  22
ENDBRANCH  12  13
ENDBRANCH  11  12
ENDBRANCH   9  10
ENDBRANCH   8   9
ENDBRANCH   7   8
ENDBRANCH   5   7
ENDBRANCH   4   5
ENDBRANCH   2   4
TORSDOF 13
ENDMDL
MODEL      286
REMARK 921   NORMALIZED FREE ENERGY PREDICTED BY IDOCK:   -3.26 KCAL/MOL
REMARK 922        TOTAL FREE ENERGY PREDICTED BY IDOCK:   -8.57 KCAL/MOL
REMARK 923 INTER-LIGAND FREE ENERGY PREDICTED BY IDOCK:   -6.66 KCAL/MOL
REMARK 924 INTRA-LIGAND FREE ENERGY PREDICTED BY IDOCK:   -1.91 KCAL/MOL
REMARK 927      BINDING AFFINITY PREDICTED BY RF-SCORE:    0.00 PKD
ROOT
HETATM    1  C   UNL     1     -10.927  16.773  67.988  1.00  0.00    -0.296 C  
HETATM    2  C   UNL     1      -9.816  16.135  67.161  1.00  0.00    -0.241 C  
HETATM    3  C   UNL     1     -10.086  16.307  65.671  1.00  0.00    -0.340 C  
ENDROOT
BRANCH   2   4
HETATM    4  O   UNL     1      -8.568  16.786  67.455  1.00  0.00    -0.189 OA 
BRANCH   4   5
HETATM    5  C   UNL     1      -7.453  16.148  66.999  1.00  0.00    -0.229 C  
HETATM    6  O   UNL     1      -6.589  16.648  66.293  1.00  0.00    -0.170 OA 
BRANCH   5   7
HETATM    7  C   UNL     1      -7.460  14.712  67.451  1.00  0.00    -0.212 C  
BRANCH   7   8
HETATM    8  C   UNL     1      -7.006  14.600  68.904  1.00  0.00    -0.112 C  
BRANCH   8   9
HETATM    9  C   UNL     1      -5.841  13.620  69.027  1.00  0.00    -0.077 C  
BRANCH   9  10
HETATM   10  C   UNL     1      -6.075  12.599  70.101  1.00  0.00    -0.093 C  
HETATM   11  C   UNL     1      -6.724  11.434  69.952  1.00  0.00    -0.032 C  
BRANCH  11  12
HETATM   12  C   UNL     1      -7.347  10.917  68.681  1.00  0.00    -0.101 C  
BRANCH  12  13
HETATM   13  C   UNL     1      -8.863  11.142  68.683  1.00  0.00    -0.155 C  
HETATM   14  C   UNL     1      -9.419  11.740  67.384  1.00  0.00    -0.173 C  
HETATM   15  C   UNL     1     -10.906  11.435  67.478  1.00  0.00    -0.291 C  
HETATM   16  O   UNL     1      -8.898  11.079  66.233  1.00  0.00    -0.168 OA 
HETATM   17  C   UNL     1     -10.934   9.995  67.989  1.00  0.00    -0.240 C  
HETATM   18  H   UNL     1      -9.242  11.450  65.428  1.00  0.00     0.000 HD 
HETATM   19  C   UNL     1      -9.670   9.830  68.872  1.00  0.00    -0.172 C  
HETATM   20  O   UNL     1     -10.873   9.091  66.884  1.00  0.00    -0.211 OA 
HETATM   21  H   UNL     1     -10.891   8.196  67.201  1.00  0.00     0.000 HD 
BRANCH  19  22
HETATM   22  C   UNL     1     -10.017   9.517  70.314  1.00  0.00    -0.310 C  
HETATM   23  C   UNL     1      -9.896   8.306  70.892  1.00  0.00    -0.215 C  
BRANCH  23  24
HETATM   24  C   UNL     1     -10.122   8.022  72.357  1.00  0.00    -0.266 C  
HETATM   25  F   UNL     1     -11.371   8.426  72.720  1.00  0.00    -0.429 F  
HETATM   26  F   UNL     1      -9.248   8.755  73.099  1.00  0.00    -0.248 F  
BRANCH  24  27
HETATM   27  C   UNL     1      -9.952   6.530  72.687  1.00  0.00    -0.171 C  
BRANCH  27  28
HETATM   28  O   UNL     1     -10.841   5.728  71.897  1.00  0.00    -0.238 OA 
BRANCH  28  29
HETATM   29  C   UNL     1     -10.236   4.799  71.094  1.00  0.00    -0.158 A  
HETATM   30  C   UNL     1      -9.740   3.670  71.749  1.00  0.00    -0.233 A  
HETATM   31  C   UNL     1      -9.105   2.656  71.029  1.00  0.00    -0.181 A  
HETATM   32  C   UNL     1      -8.978   2.760  69.646  1.00  0.00    -0.169 A  
HETATM   33  C   UNL     1      -9.490   3.874  68.983  1.00  0.00    -0.240 A  
HETATM   34  C   UNL     1     -10.120   4.893  69.704  1.00  0.00    -0.300 A  
ENDBRANCH  28  29
ENDBRANCH  27  28
ENDBRANCH  24  27
ENDBRANCH  23  24
ENDBRANCH  19  22
ENDBRANCH  12  13
ENDBRANCH  11  12
ENDBRANCH   9  10
ENDBRANCH   8   9
ENDBRANCH   7   8
ENDBRANCH   5   7
ENDBRANCH   4   5
ENDBRANCH   2   4
TORSDOF 13
ENDMDL
MODEL      287
REMARK 921   NORMALIZED FREE ENERGY PREDICTED BY IDOCK:   -3.26 KCAL/MOL
REMARK 922        TOTAL FREE ENERGY PREDICTED BY IDOCK:   -8.57 KCAL/MOL
REMARK 923 INTER-LIGAND FREE ENERGY PREDICTED BY IDOCK:   -6.20 KCAL/MOL
REMARK 924 INTRA-LIGAND FREE ENERGY PREDICTED BY IDOCK:   -2.38 KCAL/MOL
REMARK 927      BINDING AFFINITY PREDICTED BY RF-SCORE:    0.00 PKD
ROOT
HETATM    1  C   UNL     1      -7.008   4.189  69.129  1.00  0.00    -0.047 C  
HETATM    2  C   UNL     1      -6.340   3.206  68.172  1.00  0.00    -0.033 C  
HETATM    3  C   UNL     1      -5.672   2.073  68.941  1.00  0.00    -0.022 C  
ENDROOT
BRANCH   2   4
HETATM    4  O   UNL     1      -7.337   2.621  67.315  1.00  0.00    -0.056 OA 
BRANCH   4   5
HETATM    5  C   UNL     1      -7.873   3.459  66.384  1.00  0.00    -0.084 C  
HETATM    6  O   UNL     1      -7.236   4.145  65.597  1.00  0.00    -0.069 OA 
BRANCH   5   7
HETATM    7  C   UNL     1      -9.375   3.461  66.495  1.00  0.00    -0.173 C  
BRANCH   7   8
HETATM    8  C   UNL     1      -9.970   4.649  65.743  1.00  0.00    -0.246 C  
BRANCH   8   9
HETATM    9  C   UNL     1     -10.784   5.528  66.690  1.00  0.00    -0.332 C  
BRANCH   9  10
HETATM   10  C   UNL     1      -9.911   6.440  67.501  1.00  0.00    -0.146 C  
HETATM   11  C   UNL     1      -9.871   6.507  68.841  1.00  0.00    -0.142 C  
BRANCH  11  12
HETATM   12  C   UNL     1     -10.693   5.685  69.798  1.00  0.00    -0.401 C  
BRANCH  12  13
HETATM   13  C   UNL     1     -11.123   6.520  71.010  1.00  0.00    -0.339 C  
HETATM   14  C   UNL     1     -10.803   5.881  72.368  1.00  0.00    -0.244 C  
HETATM   15  C   UNL     1     -10.900   7.058  73.328  1.00  0.00    -0.345 C  
HETATM   16  O   UNL     1      -9.471   5.374  72.413  1.00  0.00    -0.143 OA 
HETATM   17  C   UNL     1     -10.185   8.180  72.576  1.00  0.00    -0.313 C  
HETATM   18  H   UNL     1      -9.273   4.980  73.255  1.00  0.00     0.000 HD 
HETATM   19  C   UNL     1     -10.426   7.905  71.068  1.00  0.00    -0.223 C  
HETATM   20  O   UNL     1      -8.785   8.134  72.859  1.00  0.00    -0.183 OA 
HETATM   21  H   UNL     1      -8.341   8.832  72.392  1.00  0.00     0.000 HD 
BRANCH  19  22
HETATM   22  C   UNL     1     -11.205   9.021  70.401  1.00  0.00    -0.275 C  
HETATM   23  C   UNL     1     -10.725  10.253  70.145  1.00  0.00    -0.334 C  
BRANCH  23  24
HETATM   24  C   UNL     1     -11.456  11.322  69.370  1.00  0.00    -0.301 C  
HETATM   25  F   UNL     1     -11.427  12.495  70.061  1.00  0.00    -0.314 F  
HETATM   26  F   UNL     1     -12.767  10.975  69.251  1.00  0.00    -0.298 F  
BRANCH  24  27
HETATM   27  C   UNL     1     -10.852  11.535  67.973  1.00  0.00    -0.213 C  
BRANCH  27  28
HETATM   28  O   UNL     1      -9.495  11.993  68.068  1.00  0.00    -0.186 OA 
BRANCH  28  29
HETATM   29  C   UNL     1      -8.595  11.326  67.282  1.00  0.00    -0.143 A  
HETATM   30  C   UNL     1      -7.321  11.894  67.213  1.00  0.00    -0.146 A  
HETATM   31  C   UNL     1      -6.321  11.297  66.442  1.00  0.00    -0.091 A  
HETATM   32  C   UNL     1      -6.587  10.118  65.749  1.00  0.00    -0.109 A  
HETATM   33  C   UNL     1      -7.850   9.534  65.832  1.00  0.00    -0.100 A  
HETATM   34  C   UNL     1      -8.854  10.135  66.598  1.00  0.00    -0.145 A  
ENDBRANCH  28  29
ENDBRANCH  27  28
ENDBRANCH  24  27
ENDBRANCH  23  24
ENDBRANCH  19  22
ENDBRANCH  12  13
ENDBRANCH  11  12
ENDBRANCH   9  10
ENDBRANCH   8   9
ENDBRANCH   7   8
ENDBRANCH   5   7
ENDBRANCH   4   5
ENDBRANCH   2   4
TORSDOF 13
ENDMDL
MODEL      288
REMARK 921   NORMALIZED FREE ENERGY PREDICTED BY IDOCK:   -3.25 KCAL/MOL
REMARK 922        TOTAL FREE ENERGY PREDICTED BY IDOCK:   -8.56 KCAL/MOL
REMARK 923 INTER-LIGAND FREE ENERGY PREDICTED BY IDOCK:   -8.73 KCAL/MOL
REMARK 924 INTRA-LIGAND FREE ENERGY PREDICTED BY IDOCK:    0.18 KCAL/MOL
REMARK 927      BINDING AFFINITY PREDICTED BY RF-SCORE:    0.00 PKD
ROOT
HETATM    1  C   UNL     1     -11.741   8.434  70.903  1.00  0.00    -0.269 C  
HETATM    2  C   UNL     1     -10.633   7.463  71.300  1.00  0.00    -0.216 C  
HETATM    3  C   UNL     1     -10.854   6.100  70.656  1.00  0.00    -0.355 C  
ENDROOT
BRANCH   2   4
HETATM    4  O   UNL     1      -9.368   7.965  70.833  1.00  0.00    -0.151 OA 
BRANCH   4   5
HETATM    5  C   UNL     1      -8.952   7.475  69.632  1.00  0.00    -0.141 C  
HETATM    6  O   UNL     1      -7.851   6.992  69.407  1.00  0.00    -0.109 OA 
BRANCH   5   7
HETATM    7  C   UNL     1     -10.029   7.662  68.597  1.00  0.00    -0.181 C  
BRANCH   7   8
HETATM    8  C   UNL     1      -9.772   8.919  67.769  1.00  0.00    -0.196 C  
BRANCH   8   9
HETATM    9  C   UNL     1      -9.205  10.031  68.648  1.00  0.00    -0.152 C  
BRANCH   9  10
HETATM   10  C   UNL     1     -10.216  11.107  68.917  1.00  0.00    -0.209 C  
HETATM   11  C   UNL     1     -11.147  11.545  68.055  1.00  0.00    -0.313 C  
BRANCH  11  12
HETATM   12  C   UNL     1     -11.363  11.050  66.650  1.00  0.00    -0.001 C  
BRANCH  12  13
HETATM   13  C   UNL     1     -10.665  11.960  65.633  1.00  0.00    -0.325 C  
HETATM   14  C   UNL     1     -11.030  11.678  64.170  1.00  0.00    -0.376 C  
HETATM   15  C   UNL     1     -10.591  12.949  63.459  1.00  0.00    -0.028 C  
HETATM   16  O   UNL     1     -12.438  11.529  63.996  1.00  0.00    -0.200 OA 
HETATM   17  C   UNL     1     -11.073  14.056  64.396  1.00  0.00    -0.286 C  
HETATM   18  H   UNL     1     -12.663  11.354  63.089  1.00  0.00     0.000 HD 
HETATM   19  C   UNL     1     -11.011  13.461  65.827  1.00  0.00    -0.288 C  
HETATM   20  O   UNL     1     -12.421  14.405  64.076  1.00  0.00    -0.784 OA 
HETATM   21  H   UNL     1     -12.720  15.094  64.658  1.00  0.00     0.000 HD 
BRANCH  19  22
HETATM   22  C   UNL     1     -10.039  14.212  66.717  1.00  0.00    -0.262 C  
HETATM   23  C   UNL     1     -10.391  15.013  67.740  1.00  0.00    -0.245 C  
BRANCH  23  24
HETATM   24  C   UNL     1      -9.424  15.660  68.702  1.00  0.00    -0.204 C  
HETATM   25  F   UNL     1      -8.502  16.387  68.013  1.00  0.00    -0.172 F  
HETATM   26  F   UNL     1      -8.736  14.694  69.369  1.00  0.00    -0.130 F  
BRANCH  24  27
HETATM   27  C   UNL     1     -10.141  16.571  69.713  1.00  0.00    -0.015 C  
BRANCH  27  28
HETATM   28  O   UNL     1     -11.553  16.318  69.716  1.00  0.00    -0.272 OA 
BRANCH  28  29
HETATM   29  C   UNL     1     -12.023  15.625  70.799  1.00  0.00    -0.398 A  
HETATM   30  C   UNL     1     -12.682  14.429  70.507  1.00  0.00    -0.401 A  
HETATM   31  C   UNL     1     -13.200  13.638  71.535  1.00  0.00    -0.409 A  
HETATM   32  C   UNL     1     -13.048  14.034  72.862  1.00  0.00    -0.481 A  
HETATM   33  C   UNL     1     -12.372  15.216  73.161  1.00  0.00    -0.541 A  
HETATM   34  C   UNL     1     -11.858  16.011  72.132  1.00  0.00    -0.623 A  
ENDBRANCH  28  29
ENDBRANCH  27  28
ENDBRANCH  24  27
ENDBRANCH  23  24
ENDBRANCH  19  22
ENDBRANCH  12  13
ENDBRANCH  11  12
ENDBRANCH   9  10
ENDBRANCH   8   9
ENDBRANCH   7   8
ENDBRANCH   5   7
ENDBRANCH   4   5
ENDBRANCH   2   4
TORSDOF 13
ENDMDL
MODEL      289
REMARK 921   NORMALIZED FREE ENERGY PREDICTED BY IDOCK:   -3.24 KCAL/MOL
REMARK 922        TOTAL FREE ENERGY PREDICTED BY IDOCK:   -8.53 KCAL/MOL
REMARK 923 INTER-LIGAND FREE ENERGY PREDICTED BY IDOCK:   -6.67 KCAL/MOL
REMARK 924 INTRA-LIGAND FREE ENERGY PREDICTED BY IDOCK:   -1.87 KCAL/MOL
REMARK 927      BINDING AFFINITY PREDICTED BY RF-SCORE:    0.00 PKD
ROOT
HETATM    1  C   UNL     1      -7.565   4.399  67.145  1.00  0.00    -0.085 C  
HETATM    2  C   UNL     1      -8.129   5.433  66.176  1.00  0.00    -0.106 C  
HETATM    3  C   UNL     1      -9.646   5.322  66.090  1.00  0.00    -0.176 C  
ENDROOT
BRANCH   2   4
HETATM    4  O   UNL     1      -7.816   6.754  66.652  1.00  0.00    -0.103 OA 
BRANCH   4   5
HETATM    5  C   UNL     1      -6.540   7.173  66.420  1.00  0.00    -0.052 C  
HETATM    6  O   UNL     1      -5.856   6.860  65.457  1.00  0.00    -0.033 OA 
BRANCH   5   7
HETATM    7  C   UNL     1      -6.069   8.044  67.555  1.00  0.00    -0.051 C  
BRANCH   7   8
HETATM    8  C   UNL     1      -6.895   7.787  68.813  1.00  0.00    -0.059 C  
BRANCH   8   9
HETATM    9  C   UNL     1      -6.919   9.030  69.700  1.00  0.00    -0.054 C  
BRANCH   9  10
HETATM   10  C   UNL     1      -7.422  10.236  68.963  1.00  0.00    -0.097 C  
HETATM   11  C   UNL     1      -8.634  10.366  68.399  1.00  0.00    -0.128 C  
BRANCH  11  12
HETATM   12  C   UNL     1      -9.728   9.331  68.390  1.00  0.00    -0.168 C  
BRANCH  12  13
HETATM   13  C   UNL     1     -11.080   9.959  68.745  1.00  0.00    -0.179 C  
HETATM   14  C   UNL     1     -11.476   9.827  70.222  1.00  0.00    -0.255 C  
HETATM   15  C   UNL     1     -12.562  10.880  70.377  1.00  0.00    -0.376 C  
HETATM   16  O   UNL     1     -10.395  10.165  71.089  1.00  0.00    -0.134 OA 
HETATM   17  C   UNL     1     -11.999  12.078  69.613  1.00  0.00    -0.293 C  
HETATM   18  H   UNL     1     -10.641  10.084  72.004  1.00  0.00     0.000 HD 
HETATM   19  C   UNL     1     -11.128  11.486  68.474  1.00  0.00    -0.287 C  
HETATM   20  O   UNL     1     -11.185  12.865  70.485  1.00  0.00    -0.065 OA 
HETATM   21  H   UNL     1     -10.835  13.610  70.010  1.00  0.00     0.000 HD 
BRANCH  19  22
HETATM   22  C   UNL     1     -11.654  11.857  67.101  1.00  0.00    -0.363 C  
HETATM   23  C   UNL     1     -11.517  13.066  66.522  1.00  0.00    -0.385 C  
BRANCH  23  24
HETATM   24  C   UNL     1     -11.929  13.398  65.109  1.00  0.00    -0.378 C  
HETATM   25  F   UNL     1     -11.842  14.742  64.906  1.00  0.00    -0.356 F  
HETATM   26  F   UNL     1     -13.236  13.064  64.930  1.00  0.00    -0.408 F  
BRANCH  24  27
HETATM   27  C   UNL     1     -11.064  12.667  64.069  1.00  0.00    -0.405 C  
BRANCH  27  28
HETATM   28  O   UNL     1     -10.871  11.294  64.442  1.00  0.00    -0.341 OA 
BRANCH  28  29
HETATM   29  C   UNL     1      -9.677  10.746  64.059  1.00  0.00    -0.313 A  
HETATM   30  C   UNL     1      -9.148  11.233  62.862  1.00  0.00    -0.299 A  
HETATM   31  C   UNL     1      -7.932  10.746  62.376  1.00  0.00    -0.215 A  
HETATM   32  C   UNL     1      -7.232   9.780  63.096  1.00  0.00    -0.119 A  
HETATM   33  C   UNL     1      -7.744   9.306  64.302  1.00  0.00    -0.119 A  
HETATM   34  C   UNL     1      -8.964   9.788  64.786  1.00  0.00    -0.266 A  
ENDBRANCH  28  29
ENDBRANCH  27  28
ENDBRANCH  24  27
ENDBRANCH  23  24
ENDBRANCH  19  22
ENDBRANCH  12  13
ENDBRANCH  11  12
ENDBRANCH   9  10
ENDBRANCH   8   9
ENDBRANCH   7   8
ENDBRANCH   5   7
ENDBRANCH   4   5
ENDBRANCH   2   4
TORSDOF 13
ENDMDL
MODEL      290
REMARK 921   NORMALIZED FREE ENERGY PREDICTED BY IDOCK:   -3.23 KCAL/MOL
REMARK 922        TOTAL FREE ENERGY PREDICTED BY IDOCK:   -8.51 KCAL/MOL
REMARK 923 INTER-LIGAND FREE ENERGY PREDICTED BY IDOCK:   -6.57 KCAL/MOL
REMARK 924 INTRA-LIGAND FREE ENERGY PREDICTED BY IDOCK:   -1.94 KCAL/MOL
REMARK 927      BINDING AFFINITY PREDICTED BY RF-SCORE:    0.00 PKD
ROOT
HETATM    1  C   UNL     1     -11.756  12.811  68.918  1.00  0.00    -0.370 C  
HETATM    2  C   UNL     1     -11.238  13.578  67.706  1.00  0.00    -0.282 C  
HETATM    3  C   UNL     1     -11.605  15.054  67.803  1.00  0.00    -0.336 C  
ENDROOT
BRANCH   2   4
HETATM    4  O   UNL     1      -9.803  13.490  67.663  1.00  0.00    -0.219 OA 
BRANCH   4   5
HETATM    5  C   UNL     1      -9.300  12.247  67.417  1.00  0.00    -0.183 C  
HETATM    6  O   UNL     1      -9.541  11.568  66.429  1.00  0.00    -0.198 OA 
BRANCH   5   7
HETATM    7  C   UNL     1      -8.436  11.803  68.567  1.00  0.00    -0.125 C  
BRANCH   7   8
HETATM    8  C   UNL     1      -8.307  10.281  68.589  1.00  0.00    -0.122 C  
BRANCH   8   9
HETATM    9  C   UNL     1      -7.629   9.821  69.878  1.00  0.00    -0.154 C  
BRANCH   9  10
HETATM   10  C   UNL     1      -7.801   8.348  70.109  1.00  0.00    -0.102 C  
HETATM   11  C   UNL     1      -8.360   7.780  71.189  1.00  0.00    -0.112 C  
BRANCH  11  12
HETATM   12  C   UNL     1      -8.925   8.504  72.384  1.00  0.00    -0.284 C  
BRANCH  12  13
HETATM   13  C   UNL     1     -10.342   8.015  72.701  1.00  0.00    -0.398 C  
HETATM   14  C   UNL     1     -11.458   8.982  72.282  1.00  0.00    -0.152 C  
HETATM   15  C   UNL     1     -12.694   8.095  72.283  1.00  0.00    -0.292 C  
HETATM   16  O   UNL     1     -11.260   9.474  70.958  1.00  0.00    -0.300 OA 
HETATM   17  C   UNL     1     -12.203   6.812  71.615  1.00  0.00    -0.365 C  
HETATM   18  H   UNL     1     -11.951  10.073  70.699  1.00  0.00     0.000 HD 
HETATM   19  C   UNL     1     -10.700   6.687  71.981  1.00  0.00    -0.247 C  
HETATM   20  O   UNL     1     -12.348   6.921  70.198  1.00  0.00    -0.628 OA 
HETATM   21  H   UNL     1     -12.043   6.122  69.783  1.00  0.00     0.000 HD 
BRANCH  19  22
HETATM   22  C   UNL     1     -10.411   5.441  72.795  1.00  0.00    -0.255 C  
HETATM   23  C   UNL     1     -11.015   4.250  72.624  1.00  0.00    -0.070 C  
BRANCH  23  24
HETATM   24  C   UNL     1     -10.641   2.980  73.349  1.00  0.00    -0.174 C  
HETATM   25  F   UNL     1     -11.767   2.307  73.714  1.00  0.00    -0.296 F  
HETATM   26  F   UNL     1      -9.987   3.293  74.500  1.00  0.00    -0.135 F  
BRANCH  24  27
HETATM   27  C   UNL     1      -9.755   2.066  72.487  1.00  0.00    -0.106 C  
BRANCH  27  28
HETATM   28  O   UNL     1      -8.595   2.771  72.021  1.00  0.00    -0.065 OA 
BRANCH  28  29
HETATM   29  C   UNL     1      -8.419   2.779  70.664  1.00  0.00    -0.053 A  
HETATM   30  C   UNL     1      -9.184   1.851  69.954  1.00  0.00    -0.172 A  
HETATM   31  C   UNL     1      -9.088   1.772  68.563  1.00  0.00    -0.192 A  
HETATM   32  C   UNL     1      -8.236   2.632  67.874  1.00  0.00    -0.081 A  
HETATM   33  C   UNL     1      -7.486   3.575  68.575  1.00  0.00    -0.053 A  
HETATM   34  C   UNL     1      -7.577   3.650  69.968  1.00  0.00    -0.048 A  
ENDBRANCH  28  29
ENDBRANCH  27  28
ENDBRANCH  24  27
ENDBRANCH  23  24
ENDBRANCH  19  22
ENDBRANCH  12  13
ENDBRANCH  11  12
ENDBRANCH   9  10
ENDBRANCH   8   9
ENDBRANCH   7   8
ENDBRANCH   5   7
ENDBRANCH   4   5
ENDBRANCH   2   4
TORSDOF 13
ENDMDL
MODEL      291
REMARK 921   NORMALIZED FREE ENERGY PREDICTED BY IDOCK:   -3.21 KCAL/MOL
REMARK 922        TOTAL FREE ENERGY PREDICTED BY IDOCK:   -8.49 KCAL/MOL
REMARK 923 INTER-LIGAND FREE ENERGY PREDICTED BY IDOCK:   -6.26 KCAL/MOL
REMARK 924 INTRA-LIGAND FREE ENERGY PREDICTED BY IDOCK:   -2.24 KCAL/MOL
REMARK 927      BINDING AFFINITY PREDICTED BY RF-SCORE:    0.00 PKD
ROOT
HETATM    1  C   UNL     1     -10.610  10.683  66.052  1.00  0.00    -0.195 C  
HETATM    2  C   UNL     1     -11.191  11.980  66.606  1.00  0.00    -0.327 C  
HETATM    3  C   UNL     1     -11.985  12.717  65.535  1.00  0.00    -0.509 C  
ENDROOT
BRANCH   2   4
HETATM    4  O   UNL     1     -12.092  11.677  67.685  1.00  0.00    -0.615 OA 
BRANCH   4   5
HETATM    5  C   UNL     1     -11.510  11.187  68.815  1.00  0.00    -0.299 C  
HETATM    6  O   UNL     1     -10.379  11.448  69.200  1.00  0.00    -0.186 OA 
BRANCH   5   7
HETATM    7  C   UNL     1     -12.445  10.229  69.504  1.00  0.00     0.245 C  
BRANCH   7   8
HETATM    8  C   UNL     1     -12.054  10.052  70.970  1.00  0.00    -0.469 C  
BRANCH   8   9
HETATM    9  C   UNL     1     -11.870   8.572  71.299  1.00  0.00    -0.335 C  
BRANCH   9  10
HETATM   10  C   UNL     1     -11.247   8.369  72.649  1.00  0.00    -0.339 C  
HETATM   11  C   UNL     1     -10.965   7.186  73.216  1.00  0.00    -0.325 C  
BRANCH  11  12
HETATM   12  C   UNL     1     -11.217   5.828  72.615  1.00  0.00    -0.348 C  
BRANCH  12  13
HETATM   13  C   UNL     1      -9.937   5.257  71.994  1.00  0.00    -0.238 C  
HETATM   14  C   UNL     1      -9.202   4.237  72.874  1.00  0.00    -0.112 C  
HETATM   15  C   UNL     1      -8.291   3.527  71.884  1.00  0.00    -0.079 C  
HETATM   16  O   UNL     1     -10.098   3.276  73.429  1.00  0.00    -0.110 OA 
HETATM   17  C   UNL     1      -9.197   3.309  70.673  1.00  0.00    -0.137 C  
HETATM   18  H   UNL     1      -9.642   2.644  73.974  1.00  0.00     0.000 HD 
HETATM   19  C   UNL     1     -10.197   4.495  70.667  1.00  0.00    -0.158 C  
HETATM   20  O   UNL     1      -9.908   2.078  70.819  1.00  0.00    -0.081 OA 
HETATM   21  H   UNL     1     -10.471   1.941  70.066  1.00  0.00     0.000 HD 
BRANCH  19  22
HETATM   22  C   UNL     1     -10.062   5.350  69.423  1.00  0.00    -0.304 C  
HETATM   23  C   UNL     1      -9.775   6.666  69.418  1.00  0.00    -0.153 C  
BRANCH  23  24
HETATM   24  C   UNL     1      -9.518   7.490  68.180  1.00  0.00    -0.143 C  
HETATM   25  F   UNL     1      -8.856   8.632  68.514  1.00  0.00    -0.137 F  
HETATM   26  F   UNL     1     -10.705   7.875  67.639  1.00  0.00    -0.295 F  
BRANCH  24  27
HETATM   27  C   UNL     1      -8.703   6.714  67.132  1.00  0.00    -0.111 C  
BRANCH  27  28
HETATM   28  O   UNL     1      -8.871   7.289  65.828  1.00  0.00    -0.144 OA 
BRANCH  28  29
HETATM   29  C   UNL     1      -8.467   6.502  64.783  1.00  0.00     0.062 A  
HETATM   30  C   UNL     1      -8.937   5.187  64.804  1.00  0.00    -0.060 A  
HETATM   31  C   UNL     1      -8.591   4.295  63.787  1.00  0.00    -0.117 A  
HETATM   32  C   UNL     1      -7.783   4.720  62.735  1.00  0.00    -0.063 A  
HETATM   33  C   UNL     1      -7.327   6.037  62.697  1.00  0.00    -0.056 A  
HETATM   34  C   UNL     1      -7.669   6.929  63.718  1.00  0.00    -0.118 A  
ENDBRANCH  28  29
ENDBRANCH  27  28
ENDBRANCH  24  27
ENDBRANCH  23  24
ENDBRANCH  19  22
ENDBRANCH  12  13
ENDBRANCH  11  12
ENDBRANCH   9  10
ENDBRANCH   8   9
ENDBRANCH   7   8
ENDBRANCH   5   7
ENDBRANCH   4   5
ENDBRANCH   2   4
TORSDOF 13
ENDMDL
MODEL      292
REMARK 921   NORMALIZED FREE ENERGY PREDICTED BY IDOCK:   -3.21 KCAL/MOL
REMARK 922        TOTAL FREE ENERGY PREDICTED BY IDOCK:   -8.48 KCAL/MOL
REMARK 923 INTER-LIGAND FREE ENERGY PREDICTED BY IDOCK:   -7.42 KCAL/MOL
REMARK 924 INTRA-LIGAND FREE ENERGY PREDICTED BY IDOCK:   -1.06 KCAL/MOL
REMARK 927      BINDING AFFINITY PREDICTED BY RF-SCORE:    0.00 PKD
ROOT
HETATM    1  C   UNL     1      -7.286  14.610  70.726  1.00  0.00     0.947 C  
HETATM    2  C   UNL     1      -5.782  14.616  70.980  1.00  0.00    -0.131 C  
HETATM    3  C   UNL     1      -5.472  14.154  72.399  1.00  0.00    -0.190 C  
ENDROOT
BRANCH   2   4
HETATM    4  O   UNL     1      -5.140  13.700  70.075  1.00  0.00    -0.088 OA 
BRANCH   4   5
HETATM    5  C   UNL     1      -5.515  12.396  70.198  1.00  0.00    -0.127 C  
HETATM    6  O   UNL     1      -5.510  11.752  71.238  1.00  0.00    -0.335 OA 
BRANCH   5   7
HETATM    7  C   UNL     1      -5.893  11.838  68.852  1.00  0.00    -0.052 C  
BRANCH   7   8
HETATM    8  C   UNL     1      -7.180  11.022  68.946  1.00  0.00    -0.103 C  
BRANCH   8   9
HETATM    9  C   UNL     1      -7.641  10.587  67.557  1.00  0.00    -0.093 C  
BRANCH   9  10
HETATM   10  C   UNL     1      -9.099  10.237  67.532  1.00  0.00    -0.146 C  
HETATM   11  C   UNL     1      -9.914  10.332  66.469  1.00  0.00    -0.280 C  
BRANCH  11  12
HETATM   12  C   UNL     1      -9.531  10.810  65.093  1.00  0.00    -0.271 C  
BRANCH  12  13
HETATM   13  C   UNL     1     -10.170  12.169  64.786  1.00  0.00    -0.310 C  
HETATM   14  C   UNL     1     -10.929  12.229  63.454  1.00  0.00    -0.405 C  
HETATM   15  C   UNL     1     -11.803  13.464  63.617  1.00  0.00    -0.451 C  
HETATM   16  O   UNL     1     -11.779  11.098  63.279  1.00  0.00    -0.695 OA 
HETATM   17  C   UNL     1     -12.331  13.331  65.044  1.00  0.00    -0.448 C  
HETATM   18  H   UNL     1     -12.249  11.135  62.454  1.00  0.00     0.000 HD 
HETATM   19  C   UNL     1     -11.223  12.595  65.843  1.00  0.00    -0.350 C  
HETATM   20  O   UNL     1     -13.527  12.549  65.044  1.00  0.00    -0.436 OA 
HETATM   21  H   UNL     1     -13.856  12.467  65.932  1.00  0.00     0.000 HD 
BRANCH  19  22
HETATM   22  C   UNL     1     -10.667  13.447  66.967  1.00  0.00    -0.271 C  
HETATM   23  C   UNL     1     -11.296  14.500  67.521  1.00  0.00    -0.355 C  
BRANCH  23  24
HETATM   24  C   UNL     1     -10.799  15.271  68.721  1.00  0.00    -0.254 C  
HETATM   25  F   UNL     1     -10.449  14.406  69.713  1.00  0.00    -0.172 F  
HETATM   26  F   UNL     1     -11.808  16.038  69.214  1.00  0.00    -0.344 F  
BRANCH  24  27
HETATM   27  C   UNL     1      -9.597  16.164  68.373  1.00  0.00    -0.209 C  
BRANCH  27  28
HETATM   28  O   UNL     1      -9.951  17.552  68.461  1.00  0.00    -0.304 OA 
BRANCH  28  29
HETATM   29  C   UNL     1      -9.063  18.421  67.886  1.00  0.00    -0.283 A  
HETATM   30  C   UNL     1      -8.901  18.288  66.505  1.00  0.00    -0.284 A  
HETATM   31  C   UNL     1      -8.023  19.124  65.813  1.00  0.00     0.019 A  
HETATM   32  C   UNL     1      -7.313  20.109  66.497  1.00  0.00    -0.308 A  
HETATM   33  C   UNL     1      -7.487  20.260  67.872  1.00  0.00    -0.291 A  
HETATM   34  C   UNL     1      -8.361  19.420  68.567  1.00  0.00    -0.399 A  
ENDBRANCH  28  29
ENDBRANCH  27  28
ENDBRANCH  24  27
ENDBRANCH  23  24
ENDBRANCH  19  22
ENDBRANCH  12  13
ENDBRANCH  11  12
ENDBRANCH   9  10
ENDBRANCH   8   9
ENDBRANCH   7   8
ENDBRANCH   5   7
ENDBRANCH   4   5
ENDBRANCH   2   4
TORSDOF 13
ENDMDL
MODEL      293
REMARK 921   NORMALIZED FREE ENERGY PREDICTED BY IDOCK:   -3.20 KCAL/MOL
REMARK 922        TOTAL FREE ENERGY PREDICTED BY IDOCK:   -8.46 KCAL/MOL
REMARK 923 INTER-LIGAND FREE ENERGY PREDICTED BY IDOCK:   -7.82 KCAL/MOL
REMARK 924 INTRA-LIGAND FREE ENERGY PREDICTED BY IDOCK:   -0.64 KCAL/MOL
REMARK 927      BINDING AFFINITY PREDICTED BY RF-SCORE:    0.00 PKD
ROOT
HETATM    1  C   UNL     1     -10.561  18.347  65.825  1.00  0.00    -0.236 C  
HETATM    2  C   UNL     1      -9.303  18.964  66.428  1.00  0.00    -0.328 C  
HETATM    3  C   UNL     1      -9.645  19.794  67.658  1.00  0.00    -0.470 C  
ENDROOT
BRANCH   2   4
HETATM    4  O   UNL     1      -8.410  17.916  66.845  1.00  0.00    -0.227 OA 
BRANCH   4   5
HETATM    5  C   UNL     1      -9.008  16.748  67.210  1.00  0.00    -0.212 C  
HETATM    6  O   UNL     1      -9.329  16.442  68.349  1.00  0.00    -0.205 OA 
BRANCH   5   7
HETATM    7  C   UNL     1      -9.173  15.855  66.008  1.00  0.00    -0.372 C  
BRANCH   7   8
HETATM    8  C   UNL     1      -9.657  14.468  66.428  1.00  0.00    -0.324 C  
BRANCH   8   9
HETATM    9  C   UNL     1     -11.159  14.486  66.699  1.00  0.00    -0.333 C  
BRANCH   9  10
HETATM   10  C   UNL     1     -11.819  13.200  66.293  1.00  0.00    -0.455 C  
HETATM   11  C   UNL     1     -11.901  12.087  67.039  1.00  0.00    -0.251 C  
BRANCH  11  12
HETATM   12  C   UNL     1     -11.348  11.903  68.428  1.00  0.00    -0.331 C  
BRANCH  12  13
HETATM   13  C   UNL     1     -10.690  10.527  68.579  1.00  0.00    -0.259 C  
HETATM   14  C   UNL     1      -9.306  10.408  67.927  1.00  0.00    -0.138 C  
HETATM   15  C   UNL     1      -8.722   9.172  68.594  1.00  0.00    -0.129 C  
HETATM   16  O   UNL     1      -8.476  11.523  68.244  1.00  0.00    -0.146 OA 
HETATM   17  C   UNL     1      -9.105   9.354  70.062  1.00  0.00    -0.220 C  
HETATM   18  H   UNL     1      -7.619  11.449  67.840  1.00  0.00     0.000 HD 
HETATM   19  C   UNL     1     -10.448  10.131  70.060  1.00  0.00    -0.325 C  
HETATM   20  O   UNL     1      -8.103  10.122  70.729  1.00  0.00    -0.332 OA 
HETATM   21  H   UNL     1      -8.341  10.235  71.642  1.00  0.00     0.000 HD 
BRANCH  19  22
HETATM   22  C   UNL     1     -11.574   9.328  70.681  1.00  0.00    -0.305 C  
HETATM   23  C   UNL     1     -11.492   8.033  71.040  1.00  0.00    -0.300 C  
BRANCH  23  24
HETATM   24  C   UNL     1     -12.570   7.270  71.771  1.00  0.00    -0.341 C  
HETATM   25  F   UNL     1     -13.704   7.235  71.018  1.00  0.00    -0.422 F  
HETATM   26  F   UNL     1     -12.888   7.926  72.920  1.00  0.00    -0.023 F  
BRANCH  24  27
HETATM   27  C   UNL     1     -12.133   5.834  72.104  1.00  0.00     0.059 C  
BRANCH  27  28
HETATM   28  O   UNL     1     -10.702   5.725  72.112  1.00  0.00    -0.214 OA 
BRANCH  28  29
HETATM   29  C   UNL     1     -10.199   4.660  72.810  1.00  0.00    -0.180 A  
HETATM   30  C   UNL     1      -8.853   4.372  72.578  1.00  0.00    -0.122 A  
HETATM   31  C   UNL     1      -8.233   3.309  73.238  1.00  0.00    -0.074 A  
HETATM   32  C   UNL     1      -8.955   2.538  74.146  1.00  0.00    -0.080 A  
HETATM   33  C   UNL     1     -10.294   2.834  74.398  1.00  0.00    -0.207 A  
HETATM   34  C   UNL     1     -10.916   3.894  73.733  1.00  0.00    -0.321 A  
ENDBRANCH  28  29
ENDBRANCH  27  28
ENDBRANCH  24  27
ENDBRANCH  23  24
ENDBRANCH  19  22
ENDBRANCH  12  13
ENDBRANCH  11  12
ENDBRANCH   9  10
ENDBRANCH   8   9
ENDBRANCH   7   8
ENDBRANCH   5   7
ENDBRANCH   4   5
ENDBRANCH   2   4
TORSDOF 13
ENDMDL
MODEL      294
REMARK 921   NORMALIZED FREE ENERGY PREDICTED BY IDOCK:   -3.17 KCAL/MOL
REMARK 922        TOTAL FREE ENERGY PREDICTED BY IDOCK:   -8.41 KCAL/MOL
REMARK 923 INTER-LIGAND FREE ENERGY PREDICTED BY IDOCK:   -7.22 KCAL/MOL
REMARK 924 INTRA-LIGAND FREE ENERGY PREDICTED BY IDOCK:   -1.18 KCAL/MOL
REMARK 927      BINDING AFFINITY PREDICTED BY RF-SCORE:    0.00 PKD
ROOT
HETATM    1  C   UNL     1     -10.633   5.368  66.166  1.00  0.00    -0.197 C  
HETATM    2  C   UNL     1     -10.586   6.367  67.318  1.00  0.00    -0.314 C  
HETATM    3  C   UNL     1     -10.936   5.689  68.636  1.00  0.00    -0.076 C  
ENDROOT
BRANCH   2   4
HETATM    4  O   UNL     1      -9.253   6.893  67.440  1.00  0.00    -0.123 OA 
BRANCH   4   5
HETATM    5  C   UNL     1      -8.459   6.736  66.344  1.00  0.00    -0.126 C  
HETATM    6  O   UNL     1      -8.585   7.334  65.285  1.00  0.00    -0.097 OA 
BRANCH   5   7
HETATM    7  C   UNL     1      -7.423   5.674  66.605  1.00  0.00    -0.087 C  
BRANCH   7   8
HETATM    8  C   UNL     1      -6.761   5.888  67.964  1.00  0.00    -0.061 C  
BRANCH   8   9
HETATM    9  C   UNL     1      -7.333   4.919  68.996  1.00  0.00    -0.054 C  
BRANCH   9  10
HETATM   10  C   UNL     1      -6.664   5.061  70.332  1.00  0.00    -0.040 C  
HETATM   11  C   UNL     1      -6.851   6.065  71.204  1.00  0.00    -0.066 C  
BRANCH  11  12
HETATM   12  C   UNL     1      -7.764   7.248  71.017  1.00  0.00    -0.089 C  
BRANCH  12  13
HETATM   13  C   UNL     1      -9.235   6.823  71.091  1.00  0.00    -0.159 C  
HETATM   14  C   UNL     1      -9.535   5.746  72.142  1.00  0.00    -0.149 C  
HETATM   15  C   UNL     1     -11.042   5.849  72.314  1.00  0.00    -0.330 C  
HETATM   16  O   UNL     1      -8.919   6.043  73.393  1.00  0.00    -0.130 OA 
HETATM   17  C   UNL     1     -11.286   7.357  72.355  1.00  0.00    -0.293 C  
HETATM   18  H   UNL     1      -9.105   5.376  74.044  1.00  0.00     0.000 HD 
HETATM   19  C   UNL     1     -10.186   7.992  71.464  1.00  0.00    -0.243 C  
HETATM   20  O   UNL     1     -11.153   7.831  73.696  1.00  0.00    -0.430 OA 
HETATM   21  H   UNL     1     -11.305   8.768  73.721  1.00  0.00     0.000 HD 
BRANCH  19  22
HETATM   22  C   UNL     1     -10.768   8.724  70.270  1.00  0.00    -0.249 C  
HETATM   23  C   UNL     1     -10.251   9.839  69.721  1.00  0.00    -0.271 C  
BRANCH  23  24
HETATM   24  C   UNL     1     -10.757  10.496  68.460  1.00  0.00    -0.224 C  
HETATM   25  F   UNL     1     -12.054  10.876  68.625  1.00  0.00    -0.383 F  
HETATM   26  F   UNL     1     -10.746   9.590  67.444  1.00  0.00    -0.305 F  
BRANCH  24  27
HETATM   27  C   UNL     1      -9.911  11.718  68.068  1.00  0.00    -0.188 C  
BRANCH  27  28
HETATM   28  O   UNL     1      -9.761  11.799  66.643  1.00  0.00    -0.194 OA 
BRANCH  28  29
HETATM   29  C   UNL     1     -10.597  12.681  66.014  1.00  0.00    -0.270 A  
HETATM   30  C   UNL     1     -10.066  13.952  65.781  1.00  0.00    -0.336 A  
HETATM   31  C   UNL     1     -10.829  14.932  65.143  1.00  0.00    -0.428 A  
HETATM   32  C   UNL     1     -12.124  14.640  64.722  1.00  0.00    -0.428 A  
HETATM   33  C   UNL     1     -12.653  13.367  64.933  1.00  0.00    -0.416 A  
HETATM   34  C   UNL     1     -11.892  12.388  65.576  1.00  0.00    -0.469 A  
ENDBRANCH  28  29
ENDBRANCH  27  28
ENDBRANCH  24  27
ENDBRANCH  23  24
ENDBRANCH  19  22
ENDBRANCH  12  13
ENDBRANCH  11  12
ENDBRANCH   9  10
ENDBRANCH   8   9
ENDBRANCH   7   8
ENDBRANCH   5   7
ENDBRANCH   4   5
ENDBRANCH   2   4
TORSDOF 13
ENDMDL
MODEL      295
REMARK 921   NORMALIZED FREE ENERGY PREDICTED BY IDOCK:   -3.14 KCAL/MOL
REMARK 922        TOTAL FREE ENERGY PREDICTED BY IDOCK:   -8.35 KCAL/MOL
REMARK 923 INTER-LIGAND FREE ENERGY PREDICTED BY IDOCK:   -6.69 KCAL/MOL
REMARK 924 INTRA-LIGAND FREE ENERGY PREDICTED BY IDOCK:   -1.67 KCAL/MOL
REMARK 927      BINDING AFFINITY PREDICTED BY RF-SCORE:    0.00 PKD
ROOT
HETATM    1  C   UNL     1      -9.957   1.571  71.323  1.00  0.00    -0.139 C  
HETATM    2  C   UNL     1     -10.072   2.581  72.460  1.00  0.00    -0.162 C  
HETATM    3  C   UNL     1     -10.392   1.881  73.775  1.00  0.00    -0.176 C  
ENDROOT
BRANCH   2   4
HETATM    4  O   UNL     1      -8.815   3.261  72.624  1.00  0.00    -0.083 OA 
BRANCH   4   5
HETATM    5  C   UNL     1      -8.881   4.622  72.626  1.00  0.00    -0.114 C  
HETATM    6  O   UNL     1      -9.870   5.284  72.347  1.00  0.00    -0.157 OA 
BRANCH   5   7
HETATM    7  C   UNL     1      -7.536   5.203  72.976  1.00  0.00    -0.097 C  
BRANCH   7   8
HETATM    8  C   UNL     1      -7.215   6.398  72.081  1.00  0.00    -0.087 C  
BRANCH   8   9
HETATM    9  C   UNL     1      -7.803   7.679  72.668  1.00  0.00    -0.123 C  
BRANCH   9  10
HETATM   10  C   UNL     1      -7.806   8.804  71.674  1.00  0.00    -0.124 C  
HETATM   11  C   UNL     1      -8.574   8.881  70.575  1.00  0.00    -0.208 C  
BRANCH  11  12
HETATM   12  C   UNL     1      -9.581   7.858  70.119  1.00  0.00    -0.175 C  
BRANCH  12  13
HETATM   13  C   UNL     1      -9.107   7.153  68.843  1.00  0.00    -0.131 C  
HETATM   14  C   UNL     1      -9.324   5.633  68.838  1.00  0.00    -0.120 C  
HETATM   15  C   UNL     1      -9.208   5.279  67.363  1.00  0.00    -0.116 C  
HETATM   16  O   UNL     1     -10.634   5.285  69.282  1.00  0.00    -0.225 OA 
HETATM   17  C   UNL     1     -10.003   6.388  66.675  1.00  0.00    -0.149 C  
HETATM   18  H   UNL     1     -10.768   4.345  69.278  1.00  0.00     0.000 HD 
HETATM   19  C   UNL     1      -9.845   7.645  67.569  1.00  0.00    -0.214 C  
HETATM   20  O   UNL     1     -11.381   6.018  66.601  1.00  0.00    -0.700 OA 
HETATM   21  H   UNL     1     -11.875   6.707  66.173  1.00  0.00     0.000 HD 
BRANCH  19  22
HETATM   22  C   UNL     1      -9.143   8.778  66.845  1.00  0.00    -0.169 C  
HETATM   23  C   UNL     1      -9.582   9.358  65.712  1.00  0.00    -0.340 C  
BRANCH  23  24
HETATM   24  C   UNL     1      -8.953  10.566  65.060  1.00  0.00    -0.201 C  
HETATM   25  F   UNL     1      -9.564  10.820  63.870  1.00  0.00    -0.220 F  
HETATM   26  F   UNL     1      -7.649  10.296  64.776  1.00  0.00    -0.136 F  
BRANCH  24  27
HETATM   27  C   UNL     1      -9.037  11.813  65.955  1.00  0.00    -0.155 C  
BRANCH  27  28
HETATM   28  O   UNL     1     -10.311  12.457  65.814  1.00  0.00    -0.252 OA 
BRANCH  28  29
HETATM   29  C   UNL     1     -10.405  13.701  66.379  1.00  0.00    -0.286 A  
HETATM   30  C   UNL     1      -9.971  14.759  65.578  1.00  0.00    -0.390 A  
HETATM   31  C   UNL     1     -10.025  16.072  66.051  1.00  0.00    -0.365 A  
HETATM   32  C   UNL     1     -10.527  16.333  67.324  1.00  0.00    -0.300 A  
HETATM   33  C   UNL     1     -10.982  15.283  68.120  1.00  0.00    -0.292 A  
HETATM   34  C   UNL     1     -10.923  13.968  67.649  1.00  0.00    -0.281 A  
ENDBRANCH  28  29
ENDBRANCH  27  28
ENDBRANCH  24  27
ENDBRANCH  23  24
ENDBRANCH  19  22
ENDBRANCH  12  13
ENDBRANCH  11  12
ENDBRANCH   9  10
ENDBRANCH   8   9
ENDBRANCH   7   8
ENDBRANCH   5   7
ENDBRANCH   4   5
ENDBRANCH   2   4
TORSDOF 13
ENDMDL
MODEL      296
REMARK 921   NORMALIZED FREE ENERGY PREDICTED BY IDOCK:   -3.13 KCAL/MOL
REMARK 922        TOTAL FREE ENERGY PREDICTED BY IDOCK:   -8.35 KCAL/MOL
REMARK 923 INTER-LIGAND FREE ENERGY PREDICTED BY IDOCK:   -7.18 KCAL/MOL
REMARK 924 INTRA-LIGAND FREE ENERGY PREDICTED BY IDOCK:   -1.18 KCAL/MOL
REMARK 927      BINDING AFFINITY PREDICTED BY RF-SCORE:    0.00 PKD
ROOT
HETATM    1  C   UNL     1      -8.060  13.607  68.117  1.00  0.00    -0.156 C  
HETATM    2  C   UNL     1      -9.546  13.927  68.000  1.00  0.00    -0.219 C  
HETATM    3  C   UNL     1      -9.941  14.141  66.545  1.00  0.00    -0.289 C  
ENDROOT
BRANCH   2   4
HETATM    4  O   UNL     1     -10.314  12.818  68.500  1.00  0.00    -0.235 OA 
BRANCH   4   5
HETATM    5  C   UNL     1     -11.120  12.205  67.588  1.00  0.00    -0.268 C  
HETATM    6  O   UNL     1     -12.015  12.747  66.955  1.00  0.00    -0.386 OA 
BRANCH   5   7
HETATM    7  C   UNL     1     -10.783  10.740  67.504  1.00  0.00    -0.312 C  
BRANCH   7   8
HETATM    8  C   UNL     1      -9.308  10.544  67.160  1.00  0.00    -0.173 C  
BRANCH   8   9
HETATM    9  C   UNL     1      -9.151   9.509  66.048  1.00  0.00    -0.220 C  
BRANCH   9  10
HETATM   10  C   UNL     1      -8.200   8.413  66.430  1.00  0.00    -0.109 C  
HETATM   11  C   UNL     1      -8.541   7.204  66.904  1.00  0.00    -0.124 C  
BRANCH  11  12
HETATM   12  C   UNL     1      -9.942   6.706  67.149  1.00  0.00    -0.209 C  
BRANCH  12  13
HETATM   13  C   UNL     1      -9.931   5.246  67.615  1.00  0.00    -0.202 C  
HETATM   14  C   UNL     1      -9.885   4.216  66.478  1.00  0.00    -0.192 C  
HETATM   15  C   UNL     1      -9.433   2.948  67.187  1.00  0.00    -0.089 C  
HETATM   16  O   UNL     1      -8.906   4.555  65.498  1.00  0.00    -0.122 OA 
HETATM   17  C   UNL     1      -8.322   3.443  68.111  1.00  0.00    -0.083 C  
HETATM   18  H   UNL     1      -8.877   3.916  64.794  1.00  0.00     0.000 HD 
HETATM   19  C   UNL     1      -8.698   4.899  68.492  1.00  0.00    -0.106 C  
HETATM   20  O   UNL     1      -7.075   3.433  67.413  1.00  0.00    -0.056 OA 
HETATM   21  H   UNL     1      -6.384   3.740  67.988  1.00  0.00     0.000 HD 
BRANCH  19  22
HETATM   22  C   UNL     1      -8.932   5.059  69.981  1.00  0.00    -0.146 C  
HETATM   23  C   UNL     1      -9.129   6.233  70.610  1.00  0.00    -0.153 C  
BRANCH  23  24
HETATM   24  C   UNL     1      -9.485   6.382  72.070  1.00  0.00    -0.151 C  
HETATM   25  F   UNL     1      -8.969   7.545  72.555  1.00  0.00    -0.137 F  
HETATM   26  F   UNL     1      -8.906   5.376  72.780  1.00  0.00    -0.122 F  
BRANCH  24  27
HETATM   27  C   UNL     1     -11.005   6.362  72.297  1.00  0.00    -0.254 C  
BRANCH  27  28
HETATM   28  O   UNL     1     -11.695   6.942  71.180  1.00  0.00    -0.298 OA 
BRANCH  28  29
HETATM   29  C   UNL     1     -12.168   8.212  71.378  1.00  0.00    -0.297 A  
HETATM   30  C   UNL     1     -11.404   9.233  70.809  1.00  0.00    -0.349 A  
HETATM   31  C   UNL     1     -11.793  10.567  70.944  1.00  0.00    -0.455 A  
HETATM   32  C   UNL     1     -12.958  10.885  71.638  1.00  0.00    -0.569 A  
HETATM   33  C   UNL     1     -13.737   9.869  72.191  1.00  0.00    -0.296 A  
HETATM   34  C   UNL     1     -13.344   8.533  72.060  1.00  0.00    -0.397 A  
ENDBRANCH  28  29
ENDBRANCH  27  28
ENDBRANCH  24  27
ENDBRANCH  23  24
ENDBRANCH  19  22
ENDBRANCH  12  13
ENDBRANCH  11  12
ENDBRANCH   9  10
ENDBRANCH   8   9
ENDBRANCH   7   8
ENDBRANCH   5   7
ENDBRANCH   4   5
ENDBRANCH   2   4
TORSDOF 13
ENDMDL
MODEL      297
REMARK 921   NORMALIZED FREE ENERGY PREDICTED BY IDOCK:   -3.13 KCAL/MOL
REMARK 922        TOTAL FREE ENERGY PREDICTED BY IDOCK:   -8.34 KCAL/MOL
REMARK 923 INTER-LIGAND FREE ENERGY PREDICTED BY IDOCK:   -6.69 KCAL/MOL
REMARK 924 INTRA-LIGAND FREE ENERGY PREDICTED BY IDOCK:   -1.65 KCAL/MOL
REMARK 927      BINDING AFFINITY PREDICTED BY RF-SCORE:    0.00 PKD
ROOT
HETATM    1  C   UNL     1      -6.954   7.235  72.257  1.00  0.00    -0.063 C  
HETATM    2  C   UNL     1      -8.342   6.843  71.762  1.00  0.00    -0.108 C  
HETATM    3  C   UNL     1      -9.289   6.615  72.934  1.00  0.00    -0.147 C  
ENDROOT
BRANCH   2   4
HETATM    4  O   UNL     1      -8.885   7.912  70.967  1.00  0.00    -0.137 OA 
BRANCH   4   5
HETATM    5  C   UNL     1      -9.734   7.529  69.973  1.00  0.00    -0.172 C  
HETATM    6  O   UNL     1     -10.888   7.913  69.839  1.00  0.00    -0.247 OA 
BRANCH   5   7
HETATM    7  C   UNL     1      -9.064   6.518  69.081  1.00  0.00    -0.136 C  
BRANCH   7   8
HETATM    8  C   UNL     1      -8.337   7.209  67.930  1.00  0.00    -0.118 C  
BRANCH   8   9
HETATM    9  C   UNL     1      -9.219   7.244  66.685  1.00  0.00    -0.193 C  
BRANCH   9  10
HETATM   10  C   UNL     1      -8.447   6.920  65.439  1.00  0.00    -0.091 C  
HETATM   11  C   UNL     1      -7.479   7.674  64.894  1.00  0.00    -0.092 C  
BRANCH  11  12
HETATM   12  C   UNL     1      -6.976   8.993  65.418  1.00  0.00    -0.080 C  
BRANCH  12  13
HETATM   13  C   UNL     1      -7.520  10.159  64.585  1.00  0.00    -0.132 C  
HETATM   14  C   UNL     1      -7.103  10.134  63.108  1.00  0.00    -0.130 C  
HETATM   15  C   UNL     1      -8.103  11.078  62.457  1.00  0.00    -0.143 C  
HETATM   16  O   UNL     1      -7.268   8.839  62.534  1.00  0.00    -0.097 OA 
HETATM   17  C   UNL     1      -9.428  10.686  63.111  1.00  0.00    -0.332 C  
HETATM   18  H   UNL     1      -7.010   8.825  61.620  1.00  0.00     0.000 HD 
HETATM   19  C   UNL     1      -9.071  10.199  64.540  1.00  0.00    -0.280 C  
HETATM   20  O   UNL     1     -10.033   9.622  62.375  1.00  0.00    -0.437 OA 
HETATM   21  H   UNL     1     -10.856   9.379  62.781  1.00  0.00     0.000 HD 
BRANCH  19  22
HETATM   22  C   UNL     1      -9.701  11.066  65.613  1.00  0.00    -0.276 C  
HETATM   23  C   UNL     1      -9.984  10.660  66.866  1.00  0.00    -0.245 C  
BRANCH  23  24
HETATM   24  C   UNL     1     -10.494  11.555  67.969  1.00  0.00    -0.189 C  
HETATM   25  F   UNL     1     -10.266  10.973  69.179  1.00  0.00    -0.205 F  
HETATM   26  F   UNL     1     -11.843  11.690  67.853  1.00  0.00    -0.366 F  
BRANCH  24  27
HETATM   27  C   UNL     1      -9.833  12.943  67.937  1.00  0.00    -0.227 C  
BRANCH  27  28
HETATM   28  O   UNL     1     -10.825  13.979  67.928  1.00  0.00    -0.240 OA 
BRANCH  28  29
HETATM   29  C   UNL     1     -11.028  14.587  66.718  1.00  0.00    -0.316 A  
HETATM   30  C   UNL     1     -10.451  15.851  66.576  1.00  0.00    -0.305 A  
HETATM   31  C   UNL     1     -10.591  16.563  65.383  1.00  0.00    -0.293 A  
HETATM   32  C   UNL     1     -11.297  16.006  64.319  1.00  0.00    -0.146 A  
HETATM   33  C   UNL     1     -11.857  14.735  64.447  1.00  0.00    -0.393 A  
HETATM   34  C   UNL     1     -11.723  14.025  65.643  1.00  0.00    -0.356 A  
ENDBRANCH  28  29
ENDBRANCH  27  28
ENDBRANCH  24  27
ENDBRANCH  23  24
ENDBRANCH  19  22
ENDBRANCH  12  13
ENDBRANCH  11  12
ENDBRANCH   9  10
ENDBRANCH   8   9
ENDBRANCH   7   8
ENDBRANCH   5   7
ENDBRANCH   4   5
ENDBRANCH   2   4
TORSDOF 13
ENDMDL
MODEL      298
REMARK 921   NORMALIZED FREE ENERGY PREDICTED BY IDOCK:   -3.12 KCAL/MOL
REMARK 922        TOTAL FREE ENERGY PREDICTED BY IDOCK:   -8.33 KCAL/MOL
REMARK 923 INTER-LIGAND FREE ENERGY PREDICTED BY IDOCK:   -6.32 KCAL/MOL
REMARK 924 INTRA-LIGAND FREE ENERGY PREDICTED BY IDOCK:   -2.01 KCAL/MOL
REMARK 927      BINDING AFFINITY PREDICTED BY RF-SCORE:    0.00 PKD
ROOT
HETATM    1  C   UNL     1      -8.373   3.363  62.920  1.00  0.00    -0.077 C  
HETATM    2  C   UNL     1      -8.374   2.878  64.366  1.00  0.00    -0.086 C  
HETATM    3  C   UNL     1      -7.292   1.827  64.585  1.00  0.00    -0.057 C  
ENDROOT
BRANCH   2   4
HETATM    4  O   UNL     1      -8.088   3.984  65.240  1.00  0.00    -0.099 OA 
BRANCH   4   5
HETATM    5  C   UNL     1      -8.326   3.762  66.563  1.00  0.00    -0.104 C  
HETATM    6  O   UNL     1      -9.432   3.676  67.079  1.00  0.00    -0.190 OA 
BRANCH   5   7
HETATM    7  C   UNL     1      -7.025   3.686  67.317  1.00  0.00    -0.055 C  
BRANCH   7   8
HETATM    8  C   UNL     1      -6.505   5.085  67.640  1.00  0.00    -0.045 C  
BRANCH   8   9
HETATM    9  C   UNL     1      -7.161   5.619  68.911  1.00  0.00    -0.077 C  
BRANCH   9  10
HETATM   10  C   UNL     1      -6.666   6.990  69.267  1.00  0.00    -0.049 C  
HETATM   11  C   UNL     1      -7.189   8.151  68.842  1.00  0.00    -0.078 C  
BRANCH  11  12
HETATM   12  C   UNL     1      -8.374   8.312  67.926  1.00  0.00    -0.128 C  
BRANCH  12  13
HETATM   13  C   UNL     1      -8.751   9.789  67.770  1.00  0.00    -0.129 C  
HETATM   14  C   UNL     1      -7.852  10.577  66.808  1.00  0.00    -0.121 C  
HETATM   15  C   UNL     1      -8.686  11.812  66.499  1.00  0.00    -0.173 C  
HETATM   16  O   UNL     1      -7.633   9.868  65.590  1.00  0.00    -0.108 OA 
HETATM   17  C   UNL     1     -10.089  11.242  66.291  1.00  0.00    -0.230 C  
HETATM   18  H   UNL     1      -7.077  10.357  64.994  1.00  0.00     0.000 HD 
HETATM   19  C   UNL     1     -10.182   9.993  67.206  1.00  0.00    -0.275 C  
HETATM   20  O   UNL     1     -10.253  10.855  64.925  1.00  0.00    -0.281 OA 
HETATM   21  H   UNL     1     -11.125  10.501  64.796  1.00  0.00     0.000 HD 
BRANCH  19  22
HETATM   22  C   UNL     1     -11.254  10.141  68.268  1.00  0.00    -0.246 C  
HETATM   23  C   UNL     1     -11.056  10.654  69.497  1.00  0.00    -0.328 C  
BRANCH  23  24
HETATM   24  C   UNL     1     -12.145  10.917  70.509  1.00  0.00    -0.371 C  
HETATM   25  F   UNL     1     -13.360  10.635  69.964  1.00  0.00    -0.219 F  
HETATM   26  F   UNL     1     -12.159  12.241  70.822  1.00  0.00    -0.435 F  
BRANCH  24  27
HETATM   27  C   UNL     1     -11.953  10.088  71.790  1.00  0.00    -0.174 C  
BRANCH  27  28
HETATM   28  O   UNL     1     -12.600   8.812  71.673  1.00  0.00    -0.316 OA 
BRANCH  28  29
HETATM   29  C   UNL     1     -11.771   7.725  71.749  1.00  0.00    -0.284 A  
HETATM   30  C   UNL     1     -10.918   7.696  72.854  1.00  0.00    -0.456 A  
HETATM   31  C   UNL     1     -10.031   6.632  73.034  1.00  0.00    -0.191 A  
HETATM   32  C   UNL     1     -10.003   5.585  72.116  1.00  0.00    -0.219 A  
HETATM   33  C   UNL     1     -10.867   5.599  71.022  1.00  0.00    -0.289 A  
HETATM   34  C   UNL     1     -11.751   6.666  70.838  1.00  0.00    -0.431 A  
ENDBRANCH  28  29
ENDBRANCH  27  28
ENDBRANCH  24  27
ENDBRANCH  23  24
ENDBRANCH  19  22
ENDBRANCH  12  13
ENDBRANCH  11  12
ENDBRANCH   9  10
ENDBRANCH   8   9
ENDBRANCH   7   8
ENDBRANCH   5   7
ENDBRANCH   4   5
ENDBRANCH   2   4
TORSDOF 13
ENDMDL
MODEL      299
REMARK 921   NORMALIZED FREE ENERGY PREDICTED BY IDOCK:   -3.09 KCAL/MOL
REMARK 922        TOTAL FREE ENERGY PREDICTED BY IDOCK:   -8.27 KCAL/MOL
REMARK 923 INTER-LIGAND FREE ENERGY PREDICTED BY IDOCK:   -6.89 KCAL/MOL
REMARK 924 INTRA-LIGAND FREE ENERGY PREDICTED BY IDOCK:   -1.38 KCAL/MOL
REMARK 927      BINDING AFFINITY PREDICTED BY RF-SCORE:    0.00 PKD
ROOT
HETATM    1  C   UNL     1      -5.592  18.761  65.588  1.00  0.00    -0.206 C  
HETATM    2  C   UNL     1      -6.747  19.045  66.543  1.00  0.00    -0.194 C  
HETATM    3  C   UNL     1      -8.057  19.191  65.779  1.00  0.00     0.077 C  
ENDROOT
BRANCH   2   4
HETATM    4  O   UNL     1      -6.895  17.942  67.454  1.00  0.00    -0.176 OA 
BRANCH   4   5
HETATM    5  C   UNL     1      -7.932  18.043  68.332  1.00  0.00    -0.300 C  
HETATM    6  O   UNL     1      -8.384  19.088  68.778  1.00  0.00    -0.355 OA 
BRANCH   5   7
HETATM    7  C   UNL     1      -8.416  16.670  68.720  1.00  0.00    -0.255 C  
BRANCH   7   8
HETATM    8  C   UNL     1      -9.800  16.400  68.133  1.00  0.00    -0.238 C  
BRANCH   8   9
HETATM    9  C   UNL     1      -9.687  15.574  66.854  1.00  0.00    -0.243 C  
BRANCH   9  10
HETATM   10  C   UNL     1      -8.941  14.291  67.078  1.00  0.00    -0.251 C  
HETATM   11  C   UNL     1      -9.493  13.090  67.312  1.00  0.00    -0.224 C  
BRANCH  11  12
HETATM   12  C   UNL     1     -10.966  12.788  67.399  1.00  0.00    -0.285 C  
BRANCH  12  13
HETATM   13  C   UNL     1     -11.441  12.010  66.166  1.00  0.00    -0.401 C  
HETATM   14  C   UNL     1     -12.123  12.871  65.094  1.00  0.00    -0.445 C  
HETATM   15  C   UNL     1     -12.069  11.983  63.860  1.00  0.00    -0.557 C  
HETATM   16  O   UNL     1     -11.383  14.061  64.823  1.00  0.00    -0.337 OA 
HETATM   17  C   UNL     1     -10.654  11.408  63.906  1.00  0.00    -0.392 C  
HETATM   18  H   UNL     1     -11.806  14.593  64.159  1.00  0.00     0.000 HD 
HETATM   19  C   UNL     1     -10.281  11.310  65.409  1.00  0.00    -0.323 C  
HETATM   20  O   UNL     1      -9.752  12.295  63.241  1.00  0.00    -0.617 OA 
HETATM   21  H   UNL     1      -8.873  11.937  63.269  1.00  0.00     0.000 HD 
BRANCH  19  22
HETATM   22  C   UNL     1     -10.031   9.879  65.843  1.00  0.00    -0.347 C  
HETATM   23  C   UNL     1     -10.508   9.321  66.972  1.00  0.00    -0.303 C  
BRANCH  23  24
HETATM   24  C   UNL     1     -10.364   7.864  67.343  1.00  0.00    -0.279 C  
HETATM   25  F   UNL     1     -11.504   7.425  67.943  1.00  0.00     0.043 F  
HETATM   26  F   UNL     1      -9.367   7.729  68.259  1.00  0.00    -0.142 F  
BRANCH  24  27
HETATM   27  C   UNL     1     -10.059   6.986  66.118  1.00  0.00     0.335 C  
BRANCH  27  28
HETATM   28  O   UNL     1      -8.973   6.089  66.391  1.00  0.00    -0.136 OA 
BRANCH  28  29
HETATM   29  C   UNL     1      -7.874   6.238  65.589  1.00  0.00    -0.098 A  
HETATM   30  C   UNL     1      -8.124   6.215  64.216  1.00  0.00    -0.093 A  
HETATM   31  C   UNL     1      -7.077   6.361  63.303  1.00  0.00    -0.050 A  
HETATM   32  C   UNL     1      -5.775   6.546  63.762  1.00  0.00    -0.030 A  
HETATM   33  C   UNL     1      -5.521   6.592  65.132  1.00  0.00    -0.022 A  
HETATM   34  C   UNL     1      -6.568   6.440  66.046  1.00  0.00    -0.048 A  
ENDBRANCH  28  29
ENDBRANCH  27  28
ENDBRANCH  24  27
ENDBRANCH  23  24
ENDBRANCH  19  22
ENDBRANCH  12  13
ENDBRANCH  11  12
ENDBRANCH   9  10
ENDBRANCH   8   9
ENDBRANCH   7   8
ENDBRANCH   5   7
ENDBRANCH   4   5
ENDBRANCH   2   4
TORSDOF 13
ENDMDL
MODEL      300
REMARK 921   NORMALIZED FREE ENERGY PREDICTED BY IDOCK:   -3.04 KCAL/MOL
REMARK 922        TOTAL FREE ENERGY PREDICTED BY IDOCK:   -8.19 KCAL/MOL
REMARK 923 INTER-LIGAND FREE ENERGY PREDICTED BY IDOCK:   -6.19 KCAL/MOL
REMARK 924 INTRA-LIGAND FREE ENERGY PREDICTED BY IDOCK:   -2.00 KCAL/MOL
REMARK 927      BINDING AFFINITY PREDICTED BY RF-SCORE:    0.00 PKD
ROOT
HETATM    1  C   UNL     1      -6.574   5.191  68.941  1.00  0.00    -0.048 C  
HETATM    2  C   UNL     1      -5.726   4.123  68.257  1.00  0.00    -0.021 C  
HETATM    3  C   UNL     1      -5.931   2.766  68.918  1.00  0.00    -0.024 C  
ENDROOT
BRANCH   2   4
HETATM    4  O   UNL     1      -6.130   4.002  66.882  1.00  0.00    -0.026 OA 
BRANCH   4   5
HETATM    5  C   UNL     1      -6.513   5.162  66.279  1.00  0.00    -0.044 C  
HETATM    6  O   UNL     1      -5.784   6.117  66.052  1.00  0.00    -0.019 OA 
BRANCH   5   7
HETATM    7  C   UNL     1      -7.987   5.124  65.975  1.00  0.00    -0.107 C  
BRANCH   7   8
HETATM    8  C   UNL     1      -8.557   6.538  65.882  1.00  0.00    -0.153 C  
BRANCH   8   9
HETATM    9  C   UNL     1      -8.983   7.034  67.262  1.00  0.00    -0.119 C  
BRANCH   9  10
HETATM   10  C   UNL     1     -10.413   7.490  67.280  1.00  0.00    -0.391 C  
HETATM   11  C   UNL     1     -10.841   8.729  67.569  1.00  0.00    -0.092 C  
BRANCH  11  12
HETATM   12  C   UNL     1      -9.977   9.907  67.933  1.00  0.00    -0.190 C  
BRANCH  12  13
HETATM   13  C   UNL     1     -10.345  10.450  69.318  1.00  0.00    -0.250 C  
HETATM   14  C   UNL     1     -11.473  11.490  69.315  1.00  0.00    -0.305 C  
HETATM   15  C   UNL     1     -11.926  11.505  70.767  1.00  0.00    -0.317 C  
HETATM   16  O   UNL     1     -12.572  11.075  68.506  1.00  0.00    -0.519 OA 
HETATM   17  C   UNL     1     -11.956  10.022  71.137  1.00  0.00    -0.392 C  
HETATM   18  H   UNL     1     -13.271  11.719  68.505  1.00  0.00     0.000 HD 
HETATM   19  C   UNL     1     -10.849   9.347  70.287  1.00  0.00    -0.303 C  
HETATM   20  O   UNL     1     -13.230   9.468  70.801  1.00  0.00    -0.568 OA 
HETATM   21  H   UNL     1     -13.248   8.546  71.032  1.00  0.00     0.000 HD 
BRANCH  19  22
HETATM   22  C   UNL     1      -9.762   8.732  71.147  1.00  0.00    -0.315 C  
HETATM   23  C   UNL     1      -9.846   8.541  72.477  1.00  0.00    -0.324 C  
BRANCH  23  24
HETATM   24  C   UNL     1      -8.818   7.817  73.313  1.00  0.00    -0.221 C  
HETATM   25  F   UNL     1      -8.352   8.642  74.290  1.00  0.00    -0.273 F  
HETATM   26  F   UNL     1      -7.749   7.496  72.534  1.00  0.00    -0.084 F  
BRANCH  24  27
HETATM   27  C   UNL     1      -9.391   6.540  73.951  1.00  0.00    -0.166 C  
BRANCH  27  28
HETATM   28  O   UNL     1     -10.119   5.769  72.984  1.00  0.00    -0.171 OA 
BRANCH  28  29
HETATM   29  C   UNL     1      -9.466   4.668  72.500  1.00  0.00    -0.136 A  
HETATM   30  C   UNL     1      -8.335   4.275  73.220  1.00  0.00    -0.090 A  
HETATM   31  C   UNL     1      -7.593   3.162  72.819  1.00  0.00    -0.051 A  
HETATM   32  C   UNL     1      -7.987   2.428  71.703  1.00  0.00    -0.048 A  
HETATM   33  C   UNL     1      -9.126   2.803  70.992  1.00  0.00    -0.181 A  
HETATM   34  C   UNL     1      -9.867   3.920  71.390  1.00  0.00    -0.243 A  
ENDBRANCH  28  29
ENDBRANCH  27  28
ENDBRANCH  24  27
ENDBRANCH  23  24
ENDBRANCH  19  22
ENDBRANCH  12  13
ENDBRANCH  11  12
ENDBRANCH   9  10
ENDBRANCH   8   9
ENDBRANCH   7   8
ENDBRANCH   5   7
ENDBRANCH   4   5
ENDBRANCH   2   4
TORSDOF 13
ENDMDL
MODEL      301
REMARK 921   NORMALIZED FREE ENERGY PREDICTED BY IDOCK:   -3.00 KCAL/MOL
REMARK 922        TOTAL FREE ENERGY PREDICTED BY IDOCK:   -8.12 KCAL/MOL
REMARK 923 INTER-LIGAND FREE ENERGY PREDICTED BY IDOCK:   -6.49 KCAL/MOL
REMARK 924 INTRA-LIGAND FREE ENERGY PREDICTED BY IDOCK:   -1.63 KCAL/MOL
REMARK 927      BINDING AFFINITY PREDICTED BY RF-SCORE:    0.00 PKD
ROOT
HETATM    1  C   UNL     1     -10.625  10.512  66.416  1.00  0.00    -0.218 C  
HETATM    2  C   UNL     1     -11.188  11.811  66.983  1.00  0.00    -0.322 C  
HETATM    3  C   UNL     1     -12.011  12.547  65.933  1.00  0.00    -0.472 C  
ENDROOT
BRANCH   2   4
HETATM    4  O   UNL     1     -12.060  11.511  68.087  1.00  0.00    -0.604 OA 
BRANCH   4   5
HETATM    5  C   UNL     1     -11.450  11.004  69.195  1.00  0.00    -0.301 C  
HETATM    6  O   UNL     1     -10.304  11.244  69.546  1.00  0.00    -0.088 OA 
BRANCH   5   7
HETATM    7  C   UNL     1     -12.378  10.054  69.906  1.00  0.00     0.106 C  
BRANCH   7   8
HETATM    8  C   UNL     1     -11.880   9.771  71.322  1.00  0.00    -0.481 C  
BRANCH   8   9
HETATM    9  C   UNL     1     -11.685   8.271  71.529  1.00  0.00    -0.337 C  
BRANCH   9  10
HETATM   10  C   UNL     1     -10.945   7.970  72.799  1.00  0.00    -0.449 C  
HETATM   11  C   UNL     1     -10.590   6.751  73.234  1.00  0.00    -0.335 C  
BRANCH  11  12
HETATM   12  C   UNL     1     -10.862   5.443  72.538  1.00  0.00    -0.304 C  
BRANCH  12  13
HETATM   13  C   UNL     1      -9.625   4.960  71.773  1.00  0.00    -0.210 C  
HETATM   14  C   UNL     1      -8.650   4.118  72.606  1.00  0.00    -0.104 C  
HETATM   15  C   UNL     1      -7.810   3.422  71.546  1.00  0.00    -0.057 C  
HETATM   16  O   UNL     1      -9.329   3.121  73.367  1.00  0.00    -0.088 OA 
HETATM   17  C   UNL     1      -8.847   2.988  70.511  1.00  0.00    -0.085 C  
HETATM   18  H   UNL     1      -8.724   2.600  73.883  1.00  0.00     0.000 HD 
HETATM   19  C   UNL     1      -9.977   4.050  70.566  1.00  0.00    -0.125 C  
HETATM   20  O   UNL     1      -9.371   1.706  70.862  1.00  0.00    -0.092 OA 
HETATM   21  H   UNL     1     -10.015   1.436  70.218  1.00  0.00     0.000 HD 
BRANCH  19  22
HETATM   22  C   UNL     1     -10.130   4.791  69.253  1.00  0.00    -0.217 C  
HETATM   23  C   UNL     1     -10.343   6.116  69.134  1.00  0.00    -0.271 C  
BRANCH  23  24
HETATM   24  C   UNL     1     -10.371   6.873  67.829  1.00  0.00    -0.203 C  
HETATM   25  F   UNL     1     -10.238   8.207  68.065  1.00  0.00    -0.202 F  
HETATM   26  F   UNL     1     -11.584   6.704  67.235  1.00  0.00    -0.377 F  
BRANCH  24  27
HETATM   27  C   UNL     1      -9.261   6.409  66.871  1.00  0.00    -0.135 C  
BRANCH  27  28
HETATM   28  O   UNL     1      -8.063   6.093  67.593  1.00  0.00    -0.111 OA 
BRANCH  28  29
HETATM   29  C   UNL     1      -7.463   7.150  68.225  1.00  0.00    -0.102 A  
HETATM   30  C   UNL     1      -7.312   8.304  67.454  1.00  0.00    -0.092 A  
HETATM   31  C   UNL     1      -6.715   9.444  67.997  1.00  0.00    -0.063 A  
HETATM   32  C   UNL     1      -6.281   9.439  69.320  1.00  0.00    -0.041 A  
HETATM   33  C   UNL     1      -6.449   8.297  70.102  1.00  0.00    -0.035 A  
HETATM   34  C   UNL     1      -7.040   7.153  69.557  1.00  0.00    -0.071 A  
ENDBRANCH  28  29
ENDBRANCH  27  28
ENDBRANCH  24  27
ENDBRANCH  23  24
ENDBRANCH  19  22
ENDBRANCH  12  13
ENDBRANCH  11  12
ENDBRANCH   9  10
ENDBRANCH   8   9
ENDBRANCH   7   8
ENDBRANCH   5   7
ENDBRANCH   4   5
ENDBRANCH   2   4
TORSDOF 13
ENDMDL
MODEL      302
REMARK 921   NORMALIZED FREE ENERGY PREDICTED BY IDOCK:   -3.00 KCAL/MOL
REMARK 922        TOTAL FREE ENERGY PREDICTED BY IDOCK:   -8.12 KCAL/MOL
REMARK 923 INTER-LIGAND FREE ENERGY PREDICTED BY IDOCK:   -5.08 KCAL/MOL
REMARK 924 INTRA-LIGAND FREE ENERGY PREDICTED BY IDOCK:   -3.04 KCAL/MOL
REMARK 927      BINDING AFFINITY PREDICTED BY RF-SCORE:    0.00 PKD
ROOT
HETATM    1  C   UNL     1      -8.447  14.604  68.634  1.00  0.00    -0.164 C  
HETATM    2  C   UNL     1      -6.947  14.352  68.528  1.00  0.00    -0.100 C  
HETATM    3  C   UNL     1      -6.275  15.433  67.691  1.00  0.00    -0.167 C  
ENDROOT
BRANCH   2   4
HETATM    4  O   UNL     1      -6.362  14.392  69.841  1.00  0.00    -0.135 OA 
BRANCH   4   5
HETATM    5  C   UNL     1      -5.808  13.224  70.272  1.00  0.00    -0.158 C  
HETATM    6  O   UNL     1      -5.606  12.923  71.440  1.00  0.00    -0.360 OA 
BRANCH   5   7
HETATM    7  C   UNL     1      -5.428  12.367  69.093  1.00  0.00    -0.069 C  
BRANCH   7   8
HETATM    8  C   UNL     1      -5.904  10.930  69.293  1.00  0.00    -0.042 C  
BRANCH   8   9
HETATM    9  C   UNL     1      -7.230  10.701  68.573  1.00  0.00    -0.086 C  
BRANCH   9  10
HETATM   10  C   UNL     1      -7.112  10.918  67.093  1.00  0.00    -0.103 C  
HETATM   11  C   UNL     1      -6.768   9.990  66.186  1.00  0.00    -0.100 C  
BRANCH  11  12
HETATM   12  C   UNL     1      -6.431   8.549  66.469  1.00  0.00    -0.059 C  
BRANCH  12  13
HETATM   13  C   UNL     1      -7.576   7.624  66.041  1.00  0.00    -0.088 C  
HETATM   14  C   UNL     1      -7.612   7.309  64.539  1.00  0.00    -0.107 C  
HETATM   15  C   UNL     1      -8.500   6.076  64.472  1.00  0.00     0.024 C  
HETATM   16  O   UNL     1      -6.322   6.960  64.042  1.00  0.00    -0.038 OA 
HETATM   17  C   UNL     1      -8.007   5.228  65.644  1.00  0.00    -0.106 C  
HETATM   18  H   UNL     1      -6.344   6.765  63.112  1.00  0.00     0.000 HD 
HETATM   19  C   UNL     1      -7.514   6.230  66.720  1.00  0.00    -0.087 C  
HETATM   20  O   UNL     1      -6.921   4.403  65.217  1.00  0.00    -0.056 OA 
HETATM   21  H   UNL     1      -6.615   3.875  65.945  1.00  0.00     0.000 HD 
BRANCH  19  22
HETATM   22  C   UNL     1      -8.312   6.129  68.005  1.00  0.00    -0.117 C  
HETATM   23  C   UNL     1      -8.684   7.175  68.767  1.00  0.00    -0.124 C  
BRANCH  23  24
HETATM   24  C   UNL     1      -9.584   7.086  69.976  1.00  0.00    -0.164 C  
HETATM   25  F   UNL     1      -8.890   7.432  71.095  1.00  0.00    -0.136 F  
HETATM   26  F   UNL     1      -9.980   5.796  70.150  1.00  0.00    -0.198 F  
BRANCH  24  27
HETATM   27  C   UNL     1     -10.821   7.990  69.841  1.00  0.00    -0.217 C  
BRANCH  27  28
HETATM   28  O   UNL     1     -10.501   9.346  70.182  1.00  0.00    -0.207 OA 
BRANCH  28  29
HETATM   29  C   UNL     1     -10.872  10.286  69.259  1.00  0.00    -0.238 A  
HETATM   30  C   UNL     1     -10.622   9.951  67.927  1.00  0.00    -0.303 A  
HETATM   31  C   UNL     1     -10.963  10.834  66.900  1.00  0.00    -0.255 A  
HETATM   32  C   UNL     1     -11.569  12.052  67.201  1.00  0.00    -0.387 A  
HETATM   33  C   UNL     1     -11.840  12.383  68.528  1.00  0.00    -0.352 A  
HETATM   34  C   UNL     1     -11.494  11.502  69.557  1.00  0.00    -0.378 A  
ENDBRANCH  28  29
ENDBRANCH  27  28
ENDBRANCH  24  27
ENDBRANCH  23  24
ENDBRANCH  19  22
ENDBRANCH  12  13
ENDBRANCH  11  12
ENDBRANCH   9  10
ENDBRANCH   8   9
ENDBRANCH   7   8
ENDBRANCH   5   7
ENDBRANCH   4   5
ENDBRANCH   2   4
TORSDOF 13
ENDMDL
MODEL      303
REMARK 921   NORMALIZED FREE ENERGY PREDICTED BY IDOCK:   -3.00 KCAL/MOL
REMARK 922        TOTAL FREE ENERGY PREDICTED BY IDOCK:   -8.12 KCAL/MOL
REMARK 923 INTER-LIGAND FREE ENERGY PREDICTED BY IDOCK:   -5.21 KCAL/MOL
REMARK 924 INTRA-LIGAND FREE ENERGY PREDICTED BY IDOCK:   -2.91 KCAL/MOL
REMARK 927      BINDING AFFINITY PREDICTED BY RF-SCORE:    0.00 PKD
ROOT
HETATM    1  C   UNL     1     -10.031   4.283  63.757  1.00  0.00    -0.017 C  
HETATM    2  C   UNL     1      -9.182   4.025  64.998  1.00  0.00    -0.151 C  
HETATM    3  C   UNL     1      -7.887   3.313  64.628  1.00  0.00    -0.078 C  
ENDROOT
BRANCH   2   4
HETATM    4  O   UNL     1      -8.829   5.280  65.605  1.00  0.00    -0.144 OA 
BRANCH   4   5
HETATM    5  C   UNL     1      -8.930   5.323  66.963  1.00  0.00    -0.112 C  
HETATM    6  O   UNL     1      -9.927   5.653  67.589  1.00  0.00    -0.130 OA 
BRANCH   5   7
HETATM    7  C   UNL     1      -7.613   4.952  67.590  1.00  0.00    -0.083 C  
BRANCH   7   8
HETATM    8  C   UNL     1      -6.549   6.001  67.273  1.00  0.00    -0.052 C  
BRANCH   8   9
HETATM    9  C   UNL     1      -6.565   7.112  68.320  1.00  0.00    -0.049 C  
BRANCH   9  10
HETATM   10  C   UNL     1      -6.154   8.435  67.742  1.00  0.00    -0.048 C  
HETATM   11  C   UNL     1      -6.977   9.351  67.207  1.00  0.00    -0.085 C  
BRANCH  11  12
HETATM   12  C   UNL     1      -8.473   9.236  67.079  1.00  0.00    -0.124 C  
BRANCH  12  13
HETATM   13  C   UNL     1      -9.181  10.005  68.201  1.00  0.00    -0.130 C  
HETATM   14  C   UNL     1      -9.130  11.532  68.056  1.00  0.00    -0.174 C  
HETATM   15  C   UNL     1     -10.241  11.998  68.985  1.00  0.00     0.015 C  
HETATM   16  O   UNL     1      -9.451  11.947  66.730  1.00  0.00    -0.191 OA 
HETATM   17  C   UNL     1     -11.376  11.019  68.689  1.00  0.00    -0.281 C  
HETATM   18  H   UNL     1      -9.420  12.893  66.641  1.00  0.00     0.000 HD 
HETATM   19  C   UNL     1     -10.696   9.682  68.293  1.00  0.00    -0.262 C  
HETATM   20  O   UNL     1     -12.159  11.505  67.597  1.00  0.00    -0.623 OA 
HETATM   21  H   UNL     1     -12.865  10.897  67.413  1.00  0.00     0.000 HD 
BRANCH  19  22
HETATM   22  C   UNL     1     -11.035   8.561  69.255  1.00  0.00     0.023 C  
HETATM   23  C   UNL     1     -11.504   8.732  70.506  1.00  0.00    -0.222 C  
BRANCH  23  24
HETATM   24  C   UNL     1     -11.958   7.619  71.418  1.00  0.00    -0.310 C  
HETATM   25  F   UNL     1     -12.984   6.936  70.839  1.00  0.00    -0.412 F  
HETATM   26  F   UNL     1     -12.450   8.152  72.570  1.00  0.00    -0.347 F  
BRANCH  24  27
HETATM   27  C   UNL     1     -10.817   6.644  71.750  1.00  0.00    -0.233 C  
BRANCH  27  28
HETATM   28  O   UNL     1     -10.857   5.499  70.886  1.00  0.00    -0.246 OA 
BRANCH  28  29
HETATM   29  C   UNL     1      -9.727   4.727  70.882  1.00  0.00    -0.190 A  
HETATM   30  C   UNL     1      -8.593   5.318  71.444  1.00  0.00    -0.132 A  
HETATM   31  C   UNL     1      -7.384   4.621  71.497  1.00  0.00    -0.068 A  
HETATM   32  C   UNL     1      -7.308   3.321  71.001  1.00  0.00    -0.033 A  
HETATM   33  C   UNL     1      -8.442   2.718  70.459  1.00  0.00    -0.093 A  
HETATM   34  C   UNL     1      -9.650   3.417  70.400  1.00  0.00    -0.227 A  
ENDBRANCH  28  29
ENDBRANCH  27  28
ENDBRANCH  24  27
ENDBRANCH  23  24
ENDBRANCH  19  22
ENDBRANCH  12  13
ENDBRANCH  11  12
ENDBRANCH   9  10
ENDBRANCH   8   9
ENDBRANCH   7   8
ENDBRANCH   5   7
ENDBRANCH   4   5
ENDBRANCH   2   4
TORSDOF 13
ENDMDL
MODEL      304
REMARK 921   NORMALIZED FREE ENERGY PREDICTED BY IDOCK:   -2.98 KCAL/MOL
REMARK 922        TOTAL FREE ENERGY PREDICTED BY IDOCK:   -8.08 KCAL/MOL
REMARK 923 INTER-LIGAND FREE ENERGY PREDICTED BY IDOCK:   -9.23 KCAL/MOL
REMARK 924 INTRA-LIGAND FREE ENERGY PREDICTED BY IDOCK:    1.15 KCAL/MOL
REMARK 927      BINDING AFFINITY PREDICTED BY RF-SCORE:    0.00 PKD
ROOT
HETATM    1  C   UNL     1     -12.168   9.222  71.614  1.00  0.00    -0.445 C  
HETATM    2  C   UNL     1     -11.045   8.194  71.706  1.00  0.00    -0.270 C  
HETATM    3  C   UNL     1     -11.398   6.936  70.922  1.00  0.00    -0.348 C  
ENDROOT
BRANCH   2   4
HETATM    4  O   UNL     1      -9.846   8.742  71.131  1.00  0.00    -0.200 OA 
BRANCH   4   5
HETATM    5  C   UNL     1      -9.595   8.379  69.842  1.00  0.00    -0.171 C  
HETATM    6  O   UNL     1      -8.543   7.913  69.429  1.00  0.00    -0.135 OA 
BRANCH   5   7
HETATM    7  C   UNL     1     -10.791   8.681  68.978  1.00  0.00    -0.043 C  
BRANCH   7   8
HETATM    8  C   UNL     1     -10.517   9.884  68.078  1.00  0.00    -0.266 C  
BRANCH   8   9
HETATM    9  C   UNL     1      -9.526  10.835  68.744  1.00  0.00    -0.187 C  
BRANCH   9  10
HETATM   10  C   UNL     1     -10.140  12.172  69.038  1.00  0.00     0.094 C  
HETATM   11  C   UNL     1     -11.184  12.718  68.394  1.00  0.00    -0.313 C  
BRANCH  11  12
HETATM   12  C   UNL     1     -11.946  12.103  67.250  1.00  0.00    -0.158 C  
BRANCH  12  13
HETATM   13  C   UNL     1     -11.209  12.315  65.923  1.00  0.00    -0.381 C  
HETATM   14  C   UNL     1     -12.035  11.974  64.675  1.00  0.00    -0.249 C  
HETATM   15  C   UNL     1     -11.276  12.680  63.562  1.00  0.00    -0.489 C  
HETATM   16  O   UNL     1     -13.348  12.525  64.744  1.00  0.00    -0.773 OA 
HETATM   17  C   UNL     1     -10.940  14.038  64.178  1.00  0.00     0.013 C  
HETATM   18  H   UNL     1     -13.859  12.314  63.971  1.00  0.00     0.000 HD 
HETATM   19  C   UNL     1     -10.776  13.789  65.700  1.00  0.00    -0.288 C  
HETATM   20  O   UNL     1     -12.016  14.950  63.950  1.00  0.00    -0.847 OA 
HETATM   21  H   UNL     1     -11.807  15.794  64.332  1.00  0.00     0.000 HD 
BRANCH  19  22
HETATM   22  C   UNL     1      -9.374  14.104  66.184  1.00  0.00    -0.166 C  
HETATM   23  C   UNL     1      -9.021  15.217  66.853  1.00  0.00    -0.274 C  
BRANCH  23  24
HETATM   24  C   UNL     1      -7.655  15.474  67.443  1.00  0.00    -0.201 C  
HETATM   25  F   UNL     1      -6.832  14.421  67.179  1.00  0.00    -0.186 F  
HETATM   26  F   UNL     1      -7.757  15.555  68.798  1.00  0.00    -0.127 F  
BRANCH  24  27
HETATM   27  C   UNL     1      -7.025  16.765  66.896  1.00  0.00    -0.222 C  
BRANCH  27  28
HETATM   28  O   UNL     1      -7.895  17.393  65.943  1.00  0.00    -0.514 OA 
BRANCH  28  29
HETATM   29  C   UNL     1      -8.743  18.337  66.455  1.00  0.00    -0.241 A  
HETATM   30  C   UNL     1      -8.146  19.303  67.269  1.00  0.00    -0.291 A  
HETATM   31  C   UNL     1      -8.915  20.317  67.843  1.00  0.00    -0.274 A  
HETATM   32  C   UNL     1     -10.284  20.379  67.593  1.00  0.00    -0.410 A  
HETATM   33  C   UNL     1     -10.882  19.431  66.764  1.00  0.00    -0.490 A  
HETATM   34  C   UNL     1     -10.114  18.412  66.194  1.00  0.00    -0.376 A  
ENDBRANCH  28  29
ENDBRANCH  27  28
ENDBRANCH  24  27
ENDBRANCH  23  24
ENDBRANCH  19  22
ENDBRANCH  12  13
ENDBRANCH  11  12
ENDBRANCH   9  10
ENDBRANCH   8   9
ENDBRANCH   7   8
ENDBRANCH   5   7
ENDBRANCH   4   5
ENDBRANCH   2   4
TORSDOF 13
ENDMDL
MODEL      305
REMARK 921   NORMALIZED FREE ENERGY PREDICTED BY IDOCK:   -2.94 KCAL/MOL
REMARK 922        TOTAL FREE ENERGY PREDICTED BY IDOCK:   -8.01 KCAL/MOL
REMARK 923 INTER-LIGAND FREE ENERGY PREDICTED BY IDOCK:   -6.13 KCAL/MOL
REMARK 924 INTRA-LIGAND FREE ENERGY PREDICTED BY IDOCK:   -1.88 KCAL/MOL
REMARK 927      BINDING AFFINITY PREDICTED BY RF-SCORE:    0.00 PKD
ROOT
HETATM    1  C   UNL     1      -9.922  20.143  67.222  1.00  0.00    -0.583 C  
HETATM    2  C   UNL     1      -9.625  18.674  67.503  1.00  0.00    -0.294 C  
HETATM    3  C   UNL     1     -10.246  17.783  66.434  1.00  0.00    -0.365 C  
ENDROOT
BRANCH   2   4
HETATM    4  O   UNL     1      -8.203  18.460  67.473  1.00  0.00    -0.245 OA 
BRANCH   4   5
HETATM    5  C   UNL     1      -7.528  18.851  68.591  1.00  0.00    -0.321 C  
HETATM    6  O   UNL     1      -7.483  19.992  69.029  1.00  0.00    -0.224 OA 
BRANCH   5   7
HETATM    7  C   UNL     1      -6.798  17.678  69.190  1.00  0.00    -0.229 C  
BRANCH   7   8
HETATM    8  C   UNL     1      -5.926  16.991  68.141  1.00  0.00    -0.124 C  
BRANCH   8   9
HETATM    9  C   UNL     1      -6.209  15.491  68.111  1.00  0.00    -0.139 C  
BRANCH   9  10
HETATM   10  C   UNL     1      -7.266  15.137  67.106  1.00  0.00    -0.098 C  
HETATM   11  C   UNL     1      -8.544  14.832  67.381  1.00  0.00    -0.210 C  
BRANCH  11  12
HETATM   12  C   UNL     1      -9.172  14.780  68.749  1.00  0.00    -0.196 C  
BRANCH  12  13
HETATM   13  C   UNL     1     -10.020  13.514  68.916  1.00  0.00     0.009 C  
HETATM   14  C   UNL     1     -11.507  13.775  69.191  1.00  0.00    -0.298 C  
HETATM   15  C   UNL     1     -12.153  12.438  68.864  1.00  0.00    -0.171 C  
HETATM   16  O   UNL     1     -12.042  14.760  68.310  1.00  0.00    -0.537 OA 
HETATM   17  C   UNL     1     -11.450  12.019  67.573  1.00  0.00    -0.333 C  
HETATM   18  H   UNL     1     -12.963  14.921  68.480  1.00  0.00     0.000 HD 
HETATM   19  C   UNL     1     -10.020  12.615  67.652  1.00  0.00    -0.216 C  
HETATM   20  O   UNL     1     -12.141  12.568  66.448  1.00  0.00    -0.576 OA 
HETATM   21  H   UNL     1     -11.704  12.307  65.646  1.00  0.00     0.000 HD 
BRANCH  19  22
HETATM   22  C   UNL     1      -8.952  11.538  67.655  1.00  0.00    -0.160 C  
HETATM   23  C   UNL     1      -9.006  10.395  66.946  1.00  0.00    -0.151 C  
BRANCH  23  24
HETATM   24  C   UNL     1      -7.889   9.383  66.852  1.00  0.00    -0.105 C  
HETATM   25  F   UNL     1      -7.216   9.546  65.679  1.00  0.00    -0.086 F  
HETATM   26  F   UNL     1      -8.418   8.130  66.824  1.00  0.00    -0.114 F  
BRANCH  24  27
HETATM   27  C   UNL     1      -6.905   9.501  68.027  1.00  0.00    -0.074 C  
BRANCH  27  28
HETATM   28  O   UNL     1      -6.236   8.253  68.258  1.00  0.00    -0.048 OA 
BRANCH  28  29
HETATM   29  C   UNL     1      -6.099   7.895  69.573  1.00  0.00    -0.033 A  
HETATM   30  C   UNL     1      -6.883   8.616  70.476  1.00  0.00    -0.042 A  
HETATM   31  C   UNL     1      -6.826   8.335  71.843  1.00  0.00    -0.084 A  
HETATM   32  C   UNL     1      -5.996   7.319  72.310  1.00  0.00    -0.040 A  
HETATM   33  C   UNL     1      -5.227   6.581  71.411  1.00  0.00    -0.026 A  
HETATM   34  C   UNL     1      -5.278   6.867  70.044  1.00  0.00    -0.015 A  
ENDBRANCH  28  29
ENDBRANCH  27  28
ENDBRANCH  24  27
ENDBRANCH  23  24
ENDBRANCH  19  22
ENDBRANCH  12  13
ENDBRANCH  11  12
ENDBRANCH   9  10
ENDBRANCH   8   9
ENDBRANCH   7   8
ENDBRANCH   5   7
ENDBRANCH   4   5
ENDBRANCH   2   4
TORSDOF 13
ENDMDL
MODEL      306
REMARK 921   NORMALIZED FREE ENERGY PREDICTED BY IDOCK:   -2.89 KCAL/MOL
REMARK 922        TOTAL FREE ENERGY PREDICTED BY IDOCK:   -7.93 KCAL/MOL
REMARK 923 INTER-LIGAND FREE ENERGY PREDICTED BY IDOCK:   -7.24 KCAL/MOL
REMARK 924 INTRA-LIGAND FREE ENERGY PREDICTED BY IDOCK:   -0.69 KCAL/MOL
REMARK 927      BINDING AFFINITY PREDICTED BY RF-SCORE:    0.00 PKD
ROOT
HETATM    1  C   UNL     1     -10.716  18.053  65.829  1.00  0.00    -0.091 C  
HETATM    2  C   UNL     1      -9.551  18.977  66.169  1.00  0.00    -0.259 C  
HETATM    3  C   UNL     1      -9.896  19.866  67.357  1.00  0.00    -0.541 C  
ENDROOT
BRANCH   2   4
HETATM    4  O   UNL     1      -8.406  18.187  66.535  1.00  0.00    -0.255 OA 
BRANCH   4   5
HETATM    5  C   UNL     1      -8.683  16.996  67.134  1.00  0.00    -0.210 C  
HETATM    6  O   UNL     1      -8.781  16.814  68.339  1.00  0.00    -0.218 OA 
BRANCH   5   7
HETATM    7  C   UNL     1      -8.803  15.911  66.096  1.00  0.00    -0.363 C  
BRANCH   7   8
HETATM    8  C   UNL     1      -9.273  14.604  66.732  1.00  0.00    -0.285 C  
BRANCH   8   9
HETATM    9  C   UNL     1     -10.766  14.670  67.045  1.00  0.00    -0.290 C  
BRANCH   9  10
HETATM   10  C   UNL     1     -11.472  13.395  66.687  1.00  0.00    -0.376 C  
HETATM   11  C   UNL     1     -11.460  12.260  67.404  1.00  0.00    -0.422 C  
BRANCH  11  12
HETATM   12  C   UNL     1     -10.738  12.037  68.707  1.00  0.00    -0.252 C  
BRANCH  12  13
HETATM   13  C   UNL     1      -9.774  10.850  68.604  1.00  0.00    -0.188 C  
HETATM   14  C   UNL     1      -8.380  11.208  68.072  1.00  0.00    -0.134 C  
HETATM   15  C   UNL     1      -7.538  10.013  68.493  1.00  0.00    -0.087 C  
HETATM   16  O   UNL     1      -7.855  12.373  68.706  1.00  0.00    -0.267 OA 
HETATM   17  C   UNL     1      -8.006   9.746  69.924  1.00  0.00    -0.175 C  
HETATM   18  H   UNL     1      -6.991  12.594  68.376  1.00  0.00     0.000 HD 
HETATM   19  C   UNL     1      -9.495  10.176  69.974  1.00  0.00    -0.086 C  
HETATM   20  O   UNL     1      -7.242  10.537  70.836  1.00  0.00    -0.316 OA 
HETATM   21  H   UNL     1      -7.533  10.370  71.725  1.00  0.00     0.000 HD 
BRANCH  19  22
HETATM   22  C   UNL     1     -10.416   9.014  70.293  1.00  0.00    -0.248 C  
HETATM   23  C   UNL     1     -10.088   7.714  70.172  1.00  0.00    -0.199 C  
BRANCH  23  24
HETATM   24  C   UNL     1     -10.958   6.559  70.606  1.00  0.00    -0.287 C  
HETATM   25  F   UNL     1     -12.148   6.603  69.946  1.00  0.00    -0.401 F  
HETATM   26  F   UNL     1     -11.246   6.685  71.930  1.00  0.00    -0.255 F  
BRANCH  24  27
HETATM   27  C   UNL     1     -10.282   5.202  70.354  1.00  0.00    -0.264 C  
BRANCH  27  28
HETATM   28  O   UNL     1     -10.116   4.969  68.948  1.00  0.00    -0.178 OA 
BRANCH  28  29
HETATM   29  C   UNL     1      -9.130   4.080  68.613  1.00  0.00    -0.133 A  
HETATM   30  C   UNL     1      -9.190   3.578  67.311  1.00  0.00    -0.221 A  
HETATM   31  C   UNL     1      -8.234   2.666  66.860  1.00  0.00    -0.083 A  
HETATM   32  C   UNL     1      -7.203   2.263  67.706  1.00  0.00    -0.048 A  
HETATM   33  C   UNL     1      -7.125   2.777  68.999  1.00  0.00    -0.044 A  
HETATM   34  C   UNL     1      -8.086   3.685  69.454  1.00  0.00    -0.063 A  
ENDBRANCH  28  29
ENDBRANCH  27  28
ENDBRANCH  24  27
ENDBRANCH  23  24
ENDBRANCH  19  22
ENDBRANCH  12  13
ENDBRANCH  11  12
ENDBRANCH   9  10
ENDBRANCH   8   9
ENDBRANCH   7   8
ENDBRANCH   5   7
ENDBRANCH   4   5
ENDBRANCH   2   4
TORSDOF 13
ENDMDL
MODEL      307
REMARK 921   NORMALIZED FREE ENERGY PREDICTED BY IDOCK:   -2.86 KCAL/MOL
REMARK 922        TOTAL FREE ENERGY PREDICTED BY IDOCK:   -7.87 KCAL/MOL
REMARK 923 INTER-LIGAND FREE ENERGY PREDICTED BY IDOCK:   -6.35 KCAL/MOL
REMARK 924 INTRA-LIGAND FREE ENERGY PREDICTED BY IDOCK:   -1.52 KCAL/MOL
REMARK 927      BINDING AFFINITY PREDICTED BY RF-SCORE:    0.00 PKD
ROOT
HETATM    1  C   UNL     1     -11.145  10.330  67.005  1.00  0.00    -0.104 C  
HETATM    2  C   UNL     1     -10.363  11.590  67.357  1.00  0.00    -0.207 C  
HETATM    3  C   UNL     1     -10.554  12.660  66.289  1.00  0.00    -0.274 C  
ENDROOT
BRANCH   2   4
HETATM    4  O   UNL     1     -10.851  12.125  68.600  1.00  0.00    -0.219 OA 
BRANCH   4   5
HETATM    5  C   UNL     1     -10.996  11.221  69.610  1.00  0.00    -0.151 C  
HETATM    6  O   UNL     1     -10.282  10.246  69.795  1.00  0.00    -0.236 OA 
BRANCH   5   7
HETATM    7  C   UNL     1     -12.201  11.567  70.444  1.00  0.00    -0.442 C  
BRANCH   7   8
HETATM    8  C   UNL     1     -12.380  10.560  71.578  1.00  0.00    -0.443 C  
BRANCH   8   9
HETATM    9  C   UNL     1     -12.827   9.208  71.027  1.00  0.00    -0.158 C  
BRANCH   9  10
HETATM   10  C   UNL     1     -12.183   8.064  71.753  1.00  0.00    -0.352 C  
HETATM   11  C   UNL     1     -11.713   6.939  71.191  1.00  0.00    -0.381 C  
BRANCH  11  12
HETATM   12  C   UNL     1     -11.739   6.598  69.724  1.00  0.00    -0.279 C  
BRANCH  12  13
HETATM   13  C   UNL     1     -10.365   6.111  69.249  1.00  0.00    -0.276 C  
HETATM   14  C   UNL     1     -10.398   5.259  67.974  1.00  0.00    -0.118 C  
HETATM   15  C   UNL     1      -8.954   5.306  67.497  1.00  0.00    -0.108 C  
HETATM   16  O   UNL     1     -11.223   5.844  66.968  1.00  0.00    -0.529 OA 
HETATM   17  C   UNL     1      -8.572   6.774  67.689  1.00  0.00    -0.121 C  
HETATM   18  H   UNL     1     -11.242   5.316  66.179  1.00  0.00     0.000 HD 
HETATM   19  C   UNL     1      -9.397   7.274  68.904  1.00  0.00    -0.144 C  
HETATM   20  O   UNL     1      -8.927   7.520  66.523  1.00  0.00    -0.148 OA 
HETATM   21  H   UNL     1      -8.689   8.432  66.643  1.00  0.00     0.000 HD 
BRANCH  19  22
HETATM   22  C   UNL     1      -8.512   7.709  70.056  1.00  0.00    -0.136 C  
HETATM   23  C   UNL     1      -8.678   7.337  71.339  1.00  0.00    -0.126 C  
BRANCH  23  24
HETATM   24  C   UNL     1      -7.727   7.667  72.464  1.00  0.00    -0.096 C  
HETATM   25  F   UNL     1      -8.424   8.130  73.538  1.00  0.00    -0.226 F  
HETATM   26  F   UNL     1      -6.901   8.676  72.075  1.00  0.00    -0.080 F  
BRANCH  24  27
HETATM   27  C   UNL     1      -6.888   6.449  72.884  1.00  0.00    -0.073 C  
BRANCH  27  28
HETATM   28  O   UNL     1      -7.665   5.546  73.684  1.00  0.00    -0.101 OA 
BRANCH  28  29
HETATM   29  C   UNL     1      -8.323   4.566  72.990  1.00  0.00    -0.099 A  
HETATM   30  C   UNL     1      -9.643   4.337  73.381  1.00  0.00    -0.141 A  
HETATM   31  C   UNL     1     -10.412   3.362  72.741  1.00  0.00    -0.211 A  
HETATM   32  C   UNL     1      -9.866   2.623  71.694  1.00  0.00    -0.213 A  
HETATM   33  C   UNL     1      -8.555   2.862  71.285  1.00  0.00    -0.103 A  
HETATM   34  C   UNL     1      -7.783   3.833  71.929  1.00  0.00    -0.058 A  
ENDBRANCH  28  29
ENDBRANCH  27  28
ENDBRANCH  24  27
ENDBRANCH  23  24
ENDBRANCH  19  22
ENDBRANCH  12  13
ENDBRANCH  11  12
ENDBRANCH   9  10
ENDBRANCH   8   9
ENDBRANCH   7   8
ENDBRANCH   5   7
ENDBRANCH   4   5
ENDBRANCH   2   4
TORSDOF 13
ENDMDL
MODEL      308
REMARK 921   NORMALIZED FREE ENERGY PREDICTED BY IDOCK:   -2.86 KCAL/MOL
REMARK 922        TOTAL FREE ENERGY PREDICTED BY IDOCK:   -7.87 KCAL/MOL
REMARK 923 INTER-LIGAND FREE ENERGY PREDICTED BY IDOCK:   -6.90 KCAL/MOL
REMARK 924 INTRA-LIGAND FREE ENERGY PREDICTED BY IDOCK:   -0.97 KCAL/MOL
REMARK 927      BINDING AFFINITY PREDICTED BY RF-SCORE:    0.00 PKD
ROOT
HETATM    1  C   UNL     1     -10.337  19.853  66.867  1.00  0.00    -0.596 C  
HETATM    2  C   UNL     1      -9.461  18.644  66.557  1.00  0.00    -0.322 C  
HETATM    3  C   UNL     1     -10.283  17.530  65.922  1.00  0.00    -0.251 C  
ENDROOT
BRANCH   2   4
HETATM    4  O   UNL     1      -8.441  19.021  65.616  1.00  0.00    -0.339 OA 
BRANCH   4   5
HETATM    5  C   UNL     1      -7.309  19.550  66.161  1.00  0.00    -0.281 C  
HETATM    6  O   UNL     1      -6.802  20.617  65.844  1.00  0.00    -0.228 OA 
BRANCH   5   7
HETATM    7  C   UNL     1      -6.736  18.603  67.182  1.00  0.00    -0.206 C  
BRANCH   7   8
HETATM    8  C   UNL     1      -6.010  17.446  66.499  1.00  0.00    -0.245 C  
BRANCH   8   9
HETATM    9  C   UNL     1      -6.049  16.198  67.377  1.00  0.00    -0.187 C  
BRANCH   9  10
HETATM   10  C   UNL     1      -7.004  16.347  68.525  1.00  0.00    -0.154 C  
HETATM   11  C   UNL     1      -8.071  15.570  68.767  1.00  0.00    -0.170 C  
BRANCH  11  12
HETATM   12  C   UNL     1      -8.526  14.397  67.938  1.00  0.00    -0.165 C  
BRANCH  12  13
HETATM   13  C   UNL     1      -9.809  13.785  68.510  1.00  0.00    -0.204 C  
HETATM   14  C   UNL     1     -11.069  14.637  68.300  1.00  0.00    -0.271 C  
HETATM   15  C   UNL     1     -12.195  13.640  68.529  1.00  0.00    -0.183 C  
HETATM   16  O   UNL     1     -11.162  15.120  66.962  1.00  0.00    -0.335 OA 
HETATM   17  C   UNL     1     -11.714  12.395  67.785  1.00  0.00    -0.350 C  
HETATM   18  H   UNL     1     -11.942  15.647  66.832  1.00  0.00     0.000 HD 
HETATM   19  C   UNL     1     -10.165  12.417  67.870  1.00  0.00    -0.213 C  
HETATM   20  O   UNL     1     -12.124  12.463  66.418  1.00  0.00    -0.607 OA 
HETATM   21  H   UNL     1     -11.826  11.689  65.955  1.00  0.00     0.000 HD 
BRANCH  19  22
HETATM   22  C   UNL     1      -9.617  11.219  68.620  1.00  0.00    -0.195 C  
HETATM   23  C   UNL     1      -8.579  10.463  68.214  1.00  0.00    -0.128 C  
BRANCH  23  24
HETATM   24  C   UNL     1      -7.954   9.349  69.019  1.00  0.00    -0.091 C  
HETATM   25  F   UNL     1      -7.248   8.525  68.198  1.00  0.00    -0.079 F  
HETATM   26  F   UNL     1      -8.936   8.591  69.578  1.00  0.00    -0.141 F  
BRANCH  24  27
HETATM   27  C   UNL     1      -7.029   9.887  70.124  1.00  0.00    -0.138 C  
BRANCH  27  28
HETATM   28  O   UNL     1      -7.548   9.569  71.423  1.00  0.00    -0.311 OA 
BRANCH  28  29
HETATM   29  C   UNL     1      -7.490   8.246  71.770  1.00  0.00    -0.096 A  
HETATM   30  C   UNL     1      -6.273   7.610  71.512  1.00  0.00    -0.035 A  
HETATM   31  C   UNL     1      -6.100   6.261  71.828  1.00  0.00    -0.041 A  
HETATM   32  C   UNL     1      -7.139   5.545  72.418  1.00  0.00    -0.084 A  
HETATM   33  C   UNL     1      -8.349   6.179  72.697  1.00  0.00    -0.121 A  
HETATM   34  C   UNL     1      -8.525   7.528  72.375  1.00  0.00    -0.134 A  
ENDBRANCH  28  29
ENDBRANCH  27  28
ENDBRANCH  24  27
ENDBRANCH  23  24
ENDBRANCH  19  22
ENDBRANCH  12  13
ENDBRANCH  11  12
ENDBRANCH   9  10
ENDBRANCH   8   9
ENDBRANCH   7   8
ENDBRANCH   5   7
ENDBRANCH   4   5
ENDBRANCH   2   4
TORSDOF 13
ENDMDL
MODEL      309
REMARK 921   NORMALIZED FREE ENERGY PREDICTED BY IDOCK:   -2.85 KCAL/MOL
REMARK 922        TOTAL FREE ENERGY PREDICTED BY IDOCK:   -7.86 KCAL/MOL
REMARK 923 INTER-LIGAND FREE ENERGY PREDICTED BY IDOCK:   -6.86 KCAL/MOL
REMARK 924 INTRA-LIGAND FREE ENERGY PREDICTED BY IDOCK:   -0.99 KCAL/MOL
REMARK 927      BINDING AFFINITY PREDICTED BY RF-SCORE:    0.00 PKD
ROOT
HETATM    1  C   UNL     1     -12.094  12.894  64.287  1.00  0.00    -0.487 C  
HETATM    2  C   UNL     1     -11.367  11.563  64.119  1.00  0.00    -0.267 C  
HETATM    3  C   UNL     1     -10.251  11.684  63.089  1.00  0.00    -0.396 C  
ENDROOT
BRANCH   2   4
HETATM    4  O   UNL     1     -10.765  11.187  65.370  1.00  0.00    -0.258 OA 
BRANCH   4   5
HETATM    5  C   UNL     1      -9.712  11.954  65.767  1.00  0.00    -0.237 C  
HETATM    6  O   UNL     1      -9.603  13.158  65.584  1.00  0.00    -0.145 OA 
BRANCH   5   7
HETATM    7  C   UNL     1      -8.666  11.094  66.427  1.00  0.00    -0.177 C  
BRANCH   7   8
HETATM    8  C   UNL     1      -7.563  11.957  67.036  1.00  0.00    -0.134 C  
BRANCH   8   9
HETATM    9  C   UNL     1      -7.272  11.518  68.470  1.00  0.00    -0.096 C  
BRANCH   9  10
HETATM   10  C   UNL     1      -6.645  12.616  69.278  1.00  0.00    -0.092 C  
HETATM   11  C   UNL     1      -6.869  13.931  69.127  1.00  0.00    -0.108 C  
BRANCH  11  12
HETATM   12  C   UNL     1      -7.789  14.568  68.119  1.00  0.00    -0.135 C  
BRANCH  12  13
HETATM   13  C   UNL     1      -9.120  14.966  68.766  1.00  0.00    -0.189 C  
HETATM   14  C   UNL     1      -9.573  16.400  68.460  1.00  0.00    -0.229 C  
HETATM   15  C   UNL     1     -11.052  16.372  68.813  1.00  0.00    -0.337 C  
HETATM   16  O   UNL     1      -9.448  16.709  67.073  1.00  0.00    -0.222 OA 
HETATM   17  C   UNL     1     -11.526  15.044  68.222  1.00  0.00    -0.332 C  
HETATM   18  H   UNL     1      -9.729  17.597  66.884  1.00  0.00     0.000 HD 
HETATM   19  C   UNL     1     -10.309  14.085  68.298  1.00  0.00    -0.247 C  
HETATM   20  O   UNL     1     -11.909  15.233  66.859  1.00  0.00    -0.112 OA 
HETATM   21  H   UNL     1     -12.204  14.407  66.492  1.00  0.00     0.000 HD 
BRANCH  19  22
HETATM   22  C   UNL     1     -10.580  12.886  69.185  1.00  0.00     0.009 C  
HETATM   23  C   UNL     1     -11.699  12.138  69.151  1.00  0.00    -0.384 C  
BRANCH  23  24
HETATM   24  C   UNL     1     -11.917  10.872  69.945  1.00  0.00    -0.353 C  
HETATM   25  F   UNL     1     -13.216  10.479  69.840  1.00  0.00    -0.238 F  
HETATM   26  F   UNL     1     -11.694  11.123  71.263  1.00  0.00    -0.295 F  
BRANCH  24  27
HETATM   27  C   UNL     1     -10.998   9.733  69.475  1.00  0.00    -0.227 C  
BRANCH  27  28
HETATM   28  O   UNL     1     -11.033   8.635  70.398  1.00  0.00    -0.232 OA 
BRANCH  28  29
HETATM   29  C   UNL     1      -9.811   8.174  70.808  1.00  0.00    -0.180 A  
HETATM   30  C   UNL     1      -8.997   7.655  69.799  1.00  0.00    -0.140 A  
HETATM   31  C   UNL     1      -7.727   7.158  70.101  1.00  0.00    -0.095 A  
HETATM   32  C   UNL     1      -7.260   7.192  71.413  1.00  0.00    -0.077 A  
HETATM   33  C   UNL     1      -8.061   7.728  72.421  1.00  0.00    -0.150 A  
HETATM   34  C   UNL     1      -9.334   8.220  72.120  1.00  0.00    -0.303 A  
ENDBRANCH  28  29
ENDBRANCH  27  28
ENDBRANCH  24  27
ENDBRANCH  23  24
ENDBRANCH  19  22
ENDBRANCH  12  13
ENDBRANCH  11  12
ENDBRANCH   9  10
ENDBRANCH   8   9
ENDBRANCH   7   8
ENDBRANCH   5   7
ENDBRANCH   4   5
ENDBRANCH   2   4
TORSDOF 13
ENDMDL
MODEL      310
REMARK 921   NORMALIZED FREE ENERGY PREDICTED BY IDOCK:   -2.84 KCAL/MOL
REMARK 922        TOTAL FREE ENERGY PREDICTED BY IDOCK:   -7.84 KCAL/MOL
REMARK 923 INTER-LIGAND FREE ENERGY PREDICTED BY IDOCK:   -5.73 KCAL/MOL
REMARK 924 INTRA-LIGAND FREE ENERGY PREDICTED BY IDOCK:   -2.10 KCAL/MOL
REMARK 927      BINDING AFFINITY PREDICTED BY RF-SCORE:    0.00 PKD
ROOT
HETATM    1  C   UNL     1     -10.604  13.083  64.140  1.00  0.00    -0.421 C  
HETATM    2  C   UNL     1     -10.619  11.650  63.619  1.00  0.00    -0.433 C  
HETATM    3  C   UNL     1      -9.389  11.373  62.765  1.00  0.00    -0.320 C  
ENDROOT
BRANCH   2   4
HETATM    4  O   UNL     1     -10.592  10.737  64.730  1.00  0.00    -0.310 OA 
BRANCH   4   5
HETATM    5  C   UNL     1      -9.352  10.424  65.200  1.00  0.00    -0.222 C  
HETATM    6  O   UNL     1      -8.478  11.230  65.486  1.00  0.00    -0.075 OA 
BRANCH   5   7
HETATM    7  C   UNL     1      -9.188   8.929  65.271  1.00  0.00    -0.158 C  
BRANCH   7   8
HETATM    8  C   UNL     1      -8.016   8.472  64.405  1.00  0.00    -0.147 C  
BRANCH   8   9
HETATM    9  C   UNL     1      -6.913   7.870  65.272  1.00  0.00    -0.059 C  
BRANCH   9  10
HETATM   10  C   UNL     1      -7.307   6.537  65.838  1.00  0.00    -0.079 C  
HETATM   11  C   UNL     1      -7.140   6.142  67.110  1.00  0.00    -0.070 C  
BRANCH  11  12
HETATM   12  C   UNL     1      -6.525   6.952  68.221  1.00  0.00    -0.050 C  
BRANCH  12  13
HETATM   13  C   UNL     1      -7.502   8.018  68.728  1.00  0.00    -0.091 C  
HETATM   14  C   UNL     1      -8.636   7.475  69.609  1.00  0.00    -0.136 C  
HETATM   15  C   UNL     1      -9.145   8.723  70.314  1.00  0.00    -0.185 C  
HETATM   16  O   UNL     1      -8.149   6.569  70.596  1.00  0.00    -0.110 OA 
HETATM   17  C   UNL     1      -7.860   9.452  70.704  1.00  0.00    -0.151 C  
HETATM   18  H   UNL     1      -8.851   6.233  71.142  1.00  0.00     0.000 HD 
HETATM   19  C   UNL     1      -6.818   9.095  69.612  1.00  0.00    -0.054 C  
HETATM   20  O   UNL     1      -7.407   8.982  71.976  1.00  0.00    -0.331 OA 
HETATM   21  H   UNL     1      -6.608   9.436  72.219  1.00  0.00     0.000 HD 
BRANCH  19  22
HETATM   22  C   UNL     1      -6.348  10.318  68.848  1.00  0.00    -0.047 C  
HETATM   23  C   UNL     1      -6.904  11.541  68.933  1.00  0.00    -0.095 C  
BRANCH  23  24
HETATM   24  C   UNL     1      -6.361  12.784  68.271  1.00  0.00    -0.078 C  
HETATM   25  F   UNL     1      -6.143  12.546  66.948  1.00  0.00    -0.154 F  
HETATM   26  F   UNL     1      -5.151  13.092  68.813  1.00  0.00    -0.063 F  
BRANCH  24  27
HETATM   27  C   UNL     1      -7.313  13.982  68.426  1.00  0.00    -0.113 C  
BRANCH  27  28
HETATM   28  O   UNL     1      -8.320  13.968  67.403  1.00  0.00    -0.175 OA 
BRANCH  28  29
HETATM   29  C   UNL     1      -9.613  13.960  67.854  1.00  0.00    -0.227 A  
HETATM   30  C   UNL     1     -10.097  12.717  68.268  1.00  0.00    -0.237 A  
HETATM   31  C   UNL     1     -11.402  12.591  68.749  1.00  0.00    -0.337 A  
HETATM   32  C   UNL     1     -12.224  13.712  68.831  1.00  0.00    -0.221 A  
HETATM   33  C   UNL     1     -11.740  14.959  68.438  1.00  0.00    -0.336 A  
HETATM   34  C   UNL     1     -10.436  15.085  67.951  1.00  0.00    -0.247 A  
ENDBRANCH  28  29
ENDBRANCH  27  28
ENDBRANCH  24  27
ENDBRANCH  23  24
ENDBRANCH  19  22
ENDBRANCH  12  13
ENDBRANCH  11  12
ENDBRANCH   9  10
ENDBRANCH   8   9
ENDBRANCH   7   8
ENDBRANCH   5   7
ENDBRANCH   4   5
ENDBRANCH   2   4
TORSDOF 13
ENDMDL
MODEL      311
REMARK 921   NORMALIZED FREE ENERGY PREDICTED BY IDOCK:   -2.75 KCAL/MOL
REMARK 922        TOTAL FREE ENERGY PREDICTED BY IDOCK:   -7.68 KCAL/MOL
REMARK 923 INTER-LIGAND FREE ENERGY PREDICTED BY IDOCK:   -6.17 KCAL/MOL
REMARK 924 INTRA-LIGAND FREE ENERGY PREDICTED BY IDOCK:   -1.51 KCAL/MOL
REMARK 927      BINDING AFFINITY PREDICTED BY RF-SCORE:    0.00 PKD
ROOT
HETATM    1  C   UNL     1      -7.246   7.905  73.130  1.00  0.00    -0.121 C  
HETATM    2  C   UNL     1      -8.635   7.522  72.629  1.00  0.00    -0.118 C  
HETATM    3  C   UNL     1      -9.668   7.659  73.741  1.00  0.00    -0.240 C  
ENDROOT
BRANCH   2   4
HETATM    4  O   UNL     1      -9.021   8.410  71.565  1.00  0.00    -0.158 OA 
BRANCH   4   5
HETATM    5  C   UNL     1     -10.204   8.116  70.957  1.00  0.00    -0.188 C  
HETATM    6  O   UNL     1     -11.134   8.894  70.803  1.00  0.00    -0.241 OA 
BRANCH   5   7
HETATM    7  C   UNL     1     -10.225   6.668  70.541  1.00  0.00    -0.215 C  
BRANCH   7   8
HETATM    8  C   UNL     1      -9.283   6.431  69.362  1.00  0.00    -0.143 C  
BRANCH   8   9
HETATM    9  C   UNL     1      -9.512   7.479  68.276  1.00  0.00    -0.146 C  
BRANCH   9  10
HETATM   10  C   UNL     1      -9.958   6.862  66.984  1.00  0.00    -0.257 C  
HETATM   11  C   UNL     1      -9.158   6.474  65.978  1.00  0.00    -0.111 C  
BRANCH  11  12
HETATM   12  C   UNL     1      -7.656   6.582  65.943  1.00  0.00    -0.087 C  
BRANCH  12  13
HETATM   13  C   UNL     1      -7.206   7.682  64.975  1.00  0.00    -0.066 C  
HETATM   14  C   UNL     1      -6.872   7.188  63.562  1.00  0.00    -0.052 C  
HETATM   15  C   UNL     1      -6.911   8.466  62.738  1.00  0.00    -0.090 C  
HETATM   16  O   UNL     1      -7.870   6.301  63.062  1.00  0.00    -0.094 OA 
HETATM   17  C   UNL     1      -8.157   9.180  63.261  1.00  0.00    -0.165 C  
HETATM   18  H   UNL     1      -7.663   5.996  62.186  1.00  0.00     0.000 HD 
HETATM   19  C   UNL     1      -8.290   8.770  64.751  1.00  0.00    -0.177 C  
HETATM   20  O   UNL     1      -9.305   8.739  62.533  1.00  0.00    -0.471 OA 
HETATM   21  H   UNL     1     -10.080   9.183  62.858  1.00  0.00     0.000 HD 
BRANCH  19  22
HETATM   22  C   UNL     1      -8.178   9.960  65.683  1.00  0.00    -0.138 C  
HETATM   23  C   UNL     1      -8.131   9.886  67.027  1.00  0.00    -0.110 C  
BRANCH  23  24
HETATM   24  C   UNL     1      -7.894  11.058  67.949  1.00  0.00    -0.110 C  
HETATM   25  F   UNL     1      -6.609  11.039  68.399  1.00  0.00    -0.056 F  
HETATM   26  F   UNL     1      -8.690  10.937  69.046  1.00  0.00    -0.152 F  
BRANCH  24  27
HETATM   27  C   UNL     1      -8.174  12.402  67.256  1.00  0.00    -0.184 C  
BRANCH  27  28
HETATM   28  O   UNL     1      -9.321  13.043  67.832  1.00  0.00    -0.196 OA 
BRANCH  28  29
HETATM   29  C   UNL     1     -10.423  13.111  67.023  1.00  0.00    -0.248 A  
HETATM   30  C   UNL     1     -11.192  14.270  67.150  1.00  0.00    -0.333 A  
HETATM   31  C   UNL     1     -12.338  14.448  66.371  1.00  0.00    -0.298 A  
HETATM   32  C   UNL     1     -12.711  13.472  65.450  1.00  0.00    -0.495 A  
HETATM   33  C   UNL     1     -11.936  12.322  65.303  1.00  0.00    -0.391 A  
HETATM   34  C   UNL     1     -10.793  12.141  66.087  1.00  0.00    -0.317 A  
ENDBRANCH  28  29
ENDBRANCH  27  28
ENDBRANCH  24  27
ENDBRANCH  23  24
ENDBRANCH  19  22
ENDBRANCH  12  13
ENDBRANCH  11  12
ENDBRANCH   9  10
ENDBRANCH   8   9
ENDBRANCH   7   8
ENDBRANCH   5   7
ENDBRANCH   4   5
ENDBRANCH   2   4
TORSDOF 13
ENDMDL
MODEL      312
REMARK 921   NORMALIZED FREE ENERGY PREDICTED BY IDOCK:   -2.74 KCAL/MOL
REMARK 922        TOTAL FREE ENERGY PREDICTED BY IDOCK:   -7.65 KCAL/MOL
REMARK 923 INTER-LIGAND FREE ENERGY PREDICTED BY IDOCK:   -6.90 KCAL/MOL
REMARK 924 INTRA-LIGAND FREE ENERGY PREDICTED BY IDOCK:   -0.75 KCAL/MOL
REMARK 927      BINDING AFFINITY PREDICTED BY RF-SCORE:    0.00 PKD
ROOT
HETATM    1  C   UNL     1      -5.991  10.389  64.638  1.00  0.00    -0.109 C  
HETATM    2  C   UNL     1      -5.495   9.459  65.739  1.00  0.00    -0.040 C  
HETATM    3  C   UNL     1      -5.621  10.123  67.105  1.00  0.00    -0.045 C  
ENDROOT
BRANCH   2   4
HETATM    4  O   UNL     1      -6.303   8.269  65.759  1.00  0.00    -0.051 OA 
BRANCH   4   5
HETATM    5  C   UNL     1      -7.621   8.460  66.048  1.00  0.00    -0.085 C  
HETATM    6  O   UNL     1      -8.206   9.533  66.013  1.00  0.00    -0.113 OA 
BRANCH   5   7
HETATM    7  C   UNL     1      -8.251   7.159  66.471  1.00  0.00    -0.117 C  
BRANCH   7   8
HETATM    8  C   UNL     1      -9.056   7.341  67.756  1.00  0.00    -0.124 C  
BRANCH   8   9
HETATM    9  C   UNL     1     -10.181   6.312  67.831  1.00  0.00    -0.204 C  
BRANCH   9  10
HETATM   10  C   UNL     1      -9.693   4.979  68.319  1.00  0.00    -0.200 C  
HETATM   11  C   UNL     1      -9.156   4.730  69.524  1.00  0.00    -0.152 C  
BRANCH  11  12
HETATM   12  C   UNL     1      -8.935   5.734  70.625  1.00  0.00    -0.149 C  
BRANCH  12  13
HETATM   13  C   UNL     1     -10.270   6.239  71.184  1.00  0.00    -0.238 C  
HETATM   14  C   UNL     1     -10.904   5.326  72.241  1.00  0.00    -0.207 C  
HETATM   15  C   UNL     1     -11.911   6.241  72.921  1.00  0.00     0.146 C  
HETATM   16  O   UNL     1      -9.951   4.905  73.215  1.00  0.00    -0.149 OA 
HETATM   17  C   UNL     1     -11.136   7.548  73.087  1.00  0.00    -0.326 C  
HETATM   18  H   UNL     1     -10.344   4.339  73.870  1.00  0.00     0.000 HD 
HETATM   19  C   UNL     1     -10.147   7.614  71.894  1.00  0.00    -0.218 C  
HETATM   20  O   UNL     1     -10.408   7.523  74.317  1.00  0.00    -0.354 OA 
HETATM   21  H   UNL     1      -9.927   8.336  74.420  1.00  0.00     0.000 HD 
BRANCH  19  22
HETATM   22  C   UNL     1     -10.416   8.804  70.993  1.00  0.00    -0.293 C  
HETATM   23  C   UNL     1     -11.560   9.514  70.974  1.00  0.00    -0.419 C  
BRANCH  23  24
HETATM   24  C   UNL     1     -11.783  10.772  70.169  1.00  0.00    -0.339 C  
HETATM   25  F   UNL     1     -11.544  11.865  70.945  1.00  0.00    -0.205 F  
HETATM   26  F   UNL     1     -13.089  10.842  69.793  1.00  0.00    -0.241 F  
BRANCH  24  27
HETATM   27  C   UNL     1     -10.885  10.824  68.922  1.00  0.00    -0.227 C  
BRANCH  27  28
HETATM   28  O   UNL     1     -11.676  10.844  67.725  1.00  0.00    -0.569 OA 
BRANCH  28  29
HETATM   29  C   UNL     1     -11.778  12.063  67.110  1.00  0.00    -0.273 A  
HETATM   30  C   UNL     1     -11.409  13.162  67.889  1.00  0.00    -0.321 A  
HETATM   31  C   UNL     1     -11.471  14.454  67.363  1.00  0.00    -0.377 A  
HETATM   32  C   UNL     1     -11.887  14.651  66.048  1.00  0.00    -0.280 A  
HETATM   33  C   UNL     1     -12.236  13.556  65.259  1.00  0.00    -0.474 A  
HETATM   34  C   UNL     1     -12.181  12.263  65.787  1.00  0.00    -0.151 A  
ENDBRANCH  28  29
ENDBRANCH  27  28
ENDBRANCH  24  27
ENDBRANCH  23  24
ENDBRANCH  19  22
ENDBRANCH  12  13
ENDBRANCH  11  12
ENDBRANCH   9  10
ENDBRANCH   8   9
ENDBRANCH   7   8
ENDBRANCH   5   7
ENDBRANCH   4   5
ENDBRANCH   2   4
TORSDOF 13
ENDMDL
MODEL      313
REMARK 921   NORMALIZED FREE ENERGY PREDICTED BY IDOCK:   -2.74 KCAL/MOL
REMARK 922        TOTAL FREE ENERGY PREDICTED BY IDOCK:   -7.65 KCAL/MOL
REMARK 923 INTER-LIGAND FREE ENERGY PREDICTED BY IDOCK:   -6.46 KCAL/MOL
REMARK 924 INTRA-LIGAND FREE ENERGY PREDICTED BY IDOCK:   -1.20 KCAL/MOL
REMARK 927      BINDING AFFINITY PREDICTED BY RF-SCORE:    0.00 PKD
ROOT
HETATM    1  C   UNL     1     -10.047  12.799  64.167  1.00  0.00    -0.260 C  
HETATM    2  C   UNL     1     -10.253  11.587  63.265  1.00  0.00    -0.391 C  
HETATM    3  C   UNL     1      -9.012  11.323  62.423  1.00  0.00    -0.245 C  
ENDROOT
BRANCH   2   4
HETATM    4  O   UNL     1     -10.484  10.421  64.076  1.00  0.00    -0.121 OA 
BRANCH   4   5
HETATM    5  C   UNL     1      -9.773  10.367  65.238  1.00  0.00    -0.278 C  
HETATM    6  O   UNL     1      -9.839  11.180  66.148  1.00  0.00    -0.210 OA 
BRANCH   5   7
HETATM    7  C   UNL     1      -8.849   9.178  65.222  1.00  0.00    -0.240 C  
BRANCH   7   8
HETATM    8  C   UNL     1      -7.417   9.611  64.912  1.00  0.00    -0.118 C  
BRANCH   8   9
HETATM    9  C   UNL     1      -6.506   9.336  66.106  1.00  0.00    -0.069 C  
BRANCH   9  10
HETATM   10  C   UNL     1      -6.319   7.866  66.344  1.00  0.00    -0.046 C  
HETATM   11  C   UNL     1      -6.571   7.215  67.491  1.00  0.00    -0.059 C  
BRANCH  11  12
HETATM   12  C   UNL     1      -7.088   7.827  68.766  1.00  0.00    -0.076 C  
BRANCH  12  13
HETATM   13  C   UNL     1      -8.320   8.699  68.497  1.00  0.00    -0.123 C  
HETATM   14  C   UNL     1      -9.662   7.980  68.689  1.00  0.00    -0.159 C  
HETATM   15  C   UNL     1     -10.649   9.131  68.811  1.00  0.00    -0.208 C  
HETATM   16  O   UNL     1      -9.692   7.233  69.904  1.00  0.00    -0.173 OA 
HETATM   17  C   UNL     1      -9.922  10.118  69.724  1.00  0.00    -0.220 C  
HETATM   18  H   UNL     1     -10.523   6.788  70.023  1.00  0.00     0.000 HD 
HETATM   19  C   UNL     1      -8.409   9.928  69.440  1.00  0.00    -0.158 C  
HETATM   20  O   UNL     1     -10.201   9.804  71.090  1.00  0.00    -0.289 OA 
HETATM   21  H   UNL     1      -9.750  10.418  71.658  1.00  0.00     0.000 HD 
BRANCH  19  22
HETATM   22  C   UNL     1      -7.770  11.185  68.884  1.00  0.00    -0.137 C  
HETATM   23  C   UNL     1      -8.417  12.344  68.656  1.00  0.00     0.019 C  
BRANCH  23  24
HETATM   24  C   UNL     1      -7.757  13.630  68.221  1.00  0.00    -0.140 C  
HETATM   25  F   UNL     1      -6.690  13.355  67.421  1.00  0.00    -0.157 F  
HETATM   26  F   UNL     1      -7.265  14.277  69.313  1.00  0.00    -0.119 F  
BRANCH  24  27
HETATM   27  C   UNL     1      -8.733  14.553  67.473  1.00  0.00    -0.188 C  
BRANCH  27  28
HETATM   28  O   UNL     1      -9.537  15.301  68.397  1.00  0.00    -0.198 OA 
BRANCH  28  29
HETATM   29  C   UNL     1      -9.538  16.657  68.210  1.00  0.00    -0.233 A  
HETATM   30  C   UNL     1      -8.302  17.287  68.373  1.00  0.00    -0.261 A  
HETATM   31  C   UNL     1      -8.184  18.668  68.203  1.00  0.00    -0.327 A  
HETATM   32  C   UNL     1      -9.301  19.424  67.854  1.00  0.00    -0.397 A  
HETATM   33  C   UNL     1     -10.533  18.798  67.668  1.00  0.00    -0.495 A  
HETATM   34  C   UNL     1     -10.653  17.417  67.844  1.00  0.00    -0.383 A  
ENDBRANCH  28  29
ENDBRANCH  27  28
ENDBRANCH  24  27
ENDBRANCH  23  24
ENDBRANCH  19  22
ENDBRANCH  12  13
ENDBRANCH  11  12
ENDBRANCH   9  10
ENDBRANCH   8   9
ENDBRANCH   7   8
ENDBRANCH   5   7
ENDBRANCH   4   5
ENDBRANCH   2   4
TORSDOF 13
ENDMDL
MODEL      314
REMARK 921   NORMALIZED FREE ENERGY PREDICTED BY IDOCK:   -2.73 KCAL/MOL
REMARK 922        TOTAL FREE ENERGY PREDICTED BY IDOCK:   -7.64 KCAL/MOL
REMARK 923 INTER-LIGAND FREE ENERGY PREDICTED BY IDOCK:   -6.95 KCAL/MOL
REMARK 924 INTRA-LIGAND FREE ENERGY PREDICTED BY IDOCK:   -0.69 KCAL/MOL
REMARK 927      BINDING AFFINITY PREDICTED BY RF-SCORE:    0.00 PKD
ROOT
HETATM    1  C   UNL     1      -6.543  18.181  65.119  1.00  0.00     0.205 C  
HETATM    2  C   UNL     1      -6.746  18.644  66.557  1.00  0.00    -0.201 C  
HETATM    3  C   UNL     1      -8.224  18.636  66.925  1.00  0.00    -0.268 C  
ENDROOT
BRANCH   2   4
HETATM    4  O   UNL     1      -6.071  17.740  67.450  1.00  0.00    -0.142 OA 
BRANCH   4   5
HETATM    5  C   UNL     1      -6.542  17.719  68.728  1.00  0.00    -0.227 C  
HETATM    6  O   UNL     1      -7.123  18.640  69.285  1.00  0.00    -0.258 OA 
BRANCH   5   7
HETATM    7  C   UNL     1      -6.199  16.407  69.383  1.00  0.00    -0.186 C  
BRANCH   7   8
HETATM    8  C   UNL     1      -7.428  15.504  69.460  1.00  0.00    -0.200 C  
BRANCH   8   9
HETATM    9  C   UNL     1      -8.000  15.261  68.065  1.00  0.00    -0.135 C  
BRANCH   9  10
HETATM   10  C   UNL     1      -7.744  13.862  67.588  1.00  0.00    -0.193 C  
HETATM   11  C   UNL     1      -8.651  12.875  67.516  1.00  0.00    -0.188 C  
BRANCH  11  12
HETATM   12  C   UNL     1     -10.104  12.972  67.901  1.00  0.00    -0.235 C  
BRANCH  12  13
HETATM   13  C   UNL     1     -10.998  12.321  66.839  1.00  0.00    -0.312 C  
HETATM   14  C   UNL     1     -11.851  13.309  66.032  1.00  0.00    -0.395 C  
HETATM   15  C   UNL     1     -12.255  12.493  64.814  1.00  0.00    -0.532 C  
HETATM   16  O   UNL     1     -11.086  14.428  65.589  1.00  0.00    -0.306 OA 
HETATM   17  C   UNL     1     -10.963  11.771  64.434  1.00  0.00    -0.339 C  
HETATM   18  H   UNL     1     -11.615  15.039  65.089  1.00  0.00     0.000 HD 
HETATM   19  C   UNL     1     -10.192  11.548  65.761  1.00  0.00    -0.293 C  
HETATM   20  O   UNL     1     -10.191  12.595  63.559  1.00  0.00    -0.467 OA 
HETATM   21  H   UNL     1      -9.388  12.146  63.322  1.00  0.00     0.000 HD 
BRANCH  19  22
HETATM   22  C   UNL     1      -9.997  10.076  66.069  1.00  0.00    -0.334 C  
HETATM   23  C   UNL     1      -9.852   9.558  67.303  1.00  0.00    -0.228 C  
BRANCH  23  24
HETATM   24  C   UNL     1      -9.783   8.083  67.619  1.00  0.00    -0.158 C  
HETATM   25  F   UNL     1      -9.472   7.384  66.493  1.00  0.00    -0.192 F  
HETATM   26  F   UNL     1     -11.010   7.650  68.017  1.00  0.00    -0.215 F  
BRANCH  24  27
HETATM   27  C   UNL     1      -8.749   7.777  68.715  1.00  0.00    -0.128 C  
BRANCH  27  28
HETATM   28  O   UNL     1      -8.925   6.447  69.225  1.00  0.00    -0.133 OA 
BRANCH  28  29
HETATM   29  C   UNL     1      -8.966   6.343  70.589  1.00  0.00    -0.144 A  
HETATM   30  C   UNL     1      -9.458   7.462  71.263  1.00  0.00    -0.159 A  
HETATM   31  C   UNL     1      -9.547   7.466  72.657  1.00  0.00    -0.204 A  
HETATM   32  C   UNL     1      -9.157   6.343  73.382  1.00  0.00    -0.136 A  
HETATM   33  C   UNL     1      -8.684   5.215  72.714  1.00  0.00    -0.119 A  
HETATM   34  C   UNL     1      -8.589   5.212  71.319  1.00  0.00    -0.132 A  
ENDBRANCH  28  29
ENDBRANCH  27  28
ENDBRANCH  24  27
ENDBRANCH  23  24
ENDBRANCH  19  22
ENDBRANCH  12  13
ENDBRANCH  11  12
ENDBRANCH   9  10
ENDBRANCH   8   9
ENDBRANCH   7   8
ENDBRANCH   5   7
ENDBRANCH   4   5
ENDBRANCH   2   4
TORSDOF 13
ENDMDL
MODEL      315
REMARK 921   NORMALIZED FREE ENERGY PREDICTED BY IDOCK:   -2.67 KCAL/MOL
REMARK 922        TOTAL FREE ENERGY PREDICTED BY IDOCK:   -7.54 KCAL/MOL
REMARK 923 INTER-LIGAND FREE ENERGY PREDICTED BY IDOCK:   -6.21 KCAL/MOL
REMARK 924 INTRA-LIGAND FREE ENERGY PREDICTED BY IDOCK:   -1.33 KCAL/MOL
REMARK 927      BINDING AFFINITY PREDICTED BY RF-SCORE:    0.00 PKD
ROOT
HETATM    1  C   UNL     1      -6.022   6.877  65.879  1.00  0.00    -0.035 C  
HETATM    2  C   UNL     1      -7.156   6.312  65.029  1.00  0.00    -0.060 C  
HETATM    3  C   UNL     1      -7.910   5.227  65.787  1.00  0.00    -0.099 C  
ENDROOT
BRANCH   2   4
HETATM    4  O   UNL     1      -8.092   7.361  64.725  1.00  0.00    -0.131 OA 
BRANCH   4   5
HETATM    5  C   UNL     1      -7.975   7.908  63.482  1.00  0.00    -0.126 C  
HETATM    6  O   UNL     1      -8.025   7.290  62.428  1.00  0.00    -0.126 OA 
BRANCH   5   7
HETATM    7  C   UNL     1      -7.724   9.388  63.592  1.00  0.00    -0.123 C  
BRANCH   7   8
HETATM    8  C   UNL     1      -8.670  10.024  64.608  1.00  0.00    -0.210 C  
BRANCH   8   9
HETATM    9  C   UNL     1      -9.803  10.760  63.896  1.00  0.00    -0.389 C  
BRANCH   9  10
HETATM   10  C   UNL     1     -10.158  12.046  64.584  1.00  0.00    -0.291 C  
HETATM   11  C   UNL     1     -10.785  12.160  65.765  1.00  0.00    -0.303 C  
BRANCH  11  12
HETATM   12  C   UNL     1     -11.258  11.025  66.636  1.00  0.00    -0.124 C  
BRANCH  12  13
HETATM   13  C   UNL     1     -10.452  10.959  67.938  1.00  0.00    -0.227 C  
HETATM   14  C   UNL     1      -9.847   9.582  68.242  1.00  0.00    -0.155 C  
HETATM   15  C   UNL     1      -8.777   9.902  69.275  1.00  0.00    -0.172 C  
HETATM   16  O   UNL     1      -9.211   9.019  67.097  1.00  0.00    -0.131 OA 
HETATM   17  C   UNL     1      -8.119  11.162  68.716  1.00  0.00    -0.140 C  
HETATM   18  H   UNL     1      -8.837   8.166  67.286  1.00  0.00     0.000 HD 
HETATM   19  C   UNL     1      -9.232  11.919  67.943  1.00  0.00    -0.187 C  
HETATM   20  O   UNL     1      -7.069  10.799  67.818  1.00  0.00    -0.083 OA 
HETATM   21  H   UNL     1      -6.659  11.583  67.471  1.00  0.00     0.000 HD 
BRANCH  19  22
HETATM   22  C   UNL     1      -9.518  13.282  68.541  1.00  0.00    -0.113 C  
HETATM   23  C   UNL     1      -9.102  14.454  68.025  1.00  0.00    -0.188 C  
BRANCH  23  24
HETATM   24  C   UNL     1      -9.490  15.816  68.549  1.00  0.00    -0.201 C  
HETATM   25  F   UNL     1      -8.880  16.042  69.745  1.00  0.00    -0.213 F  
HETATM   26  F   UNL     1     -10.830  15.842  68.786  1.00  0.00    -0.231 F  
BRANCH  24  27
HETATM   27  C   UNL     1      -9.121  16.938  67.565  1.00  0.00    -0.222 C  
BRANCH  27  28
HETATM   28  O   UNL     1      -8.161  17.831  68.148  1.00  0.00    -0.243 OA 
BRANCH  28  29
HETATM   29  C   UNL     1      -7.466  18.607  67.259  1.00  0.00    -0.218 A  
HETATM   30  C   UNL     1      -6.915  17.927  66.171  1.00  0.00    -0.336 A  
HETATM   31  C   UNL     1      -6.188  18.619  65.200  1.00  0.00    -0.285 A  
HETATM   32  C   UNL     1      -6.022  19.998  65.305  1.00  0.00    -0.237 A  
HETATM   33  C   UNL     1      -6.588  20.685  66.378  1.00  0.00    -0.307 A  
HETATM   34  C   UNL     1      -7.311  19.993  67.353  1.00  0.00    -0.305 A  
ENDBRANCH  28  29
ENDBRANCH  27  28
ENDBRANCH  24  27
ENDBRANCH  23  24
ENDBRANCH  19  22
ENDBRANCH  12  13
ENDBRANCH  11  12
ENDBRANCH   9  10
ENDBRANCH   8   9
ENDBRANCH   7   8
ENDBRANCH   5   7
ENDBRANCH   4   5
ENDBRANCH   2   4
TORSDOF 13
ENDMDL
MODEL      316
REMARK 921   NORMALIZED FREE ENERGY PREDICTED BY IDOCK:   -2.62 KCAL/MOL
REMARK 922        TOTAL FREE ENERGY PREDICTED BY IDOCK:   -7.45 KCAL/MOL
REMARK 923 INTER-LIGAND FREE ENERGY PREDICTED BY IDOCK:   -5.42 KCAL/MOL
REMARK 924 INTRA-LIGAND FREE ENERGY PREDICTED BY IDOCK:   -2.03 KCAL/MOL
REMARK 927      BINDING AFFINITY PREDICTED BY RF-SCORE:    0.00 PKD
ROOT
HETATM    1  C   UNL     1      -9.059  11.082  65.399  1.00  0.00    -0.213 C  
HETATM    2  C   UNL     1      -9.651  10.261  64.258  1.00  0.00    -0.313 C  
HETATM    3  C   UNL     1      -8.933  10.559  62.948  1.00  0.00    -0.266 C  
ENDROOT
BRANCH   2   4
HETATM    4  O   UNL     1      -9.480   8.861  64.539  1.00  0.00     0.303 OA 
BRANCH   4   5
HETATM    5  C   UNL     1      -9.236   8.550  65.843  1.00  0.00    -0.182 C  
HETATM    6  O   UNL     1      -8.131   8.480  66.360  1.00  0.00    -0.100 OA 
BRANCH   5   7
HETATM    7  C   UNL     1     -10.530   8.253  66.554  1.00  0.00    -0.058 C  
BRANCH   7   8
HETATM    8  C   UNL     1     -10.394   8.507  68.053  1.00  0.00    -0.272 C  
BRANCH   8   9
HETATM    9  C   UNL     1     -10.714   9.964  68.380  1.00  0.00    -0.271 C  
BRANCH   9  10
HETATM   10  C   UNL     1     -10.950  10.172  69.848  1.00  0.00    -0.344 C  
HETATM   11  C   UNL     1     -10.261   9.596  70.845  1.00  0.00    -0.303 C  
BRANCH  11  12
HETATM   12  C   UNL     1      -9.118   8.627  70.695  1.00  0.00    -0.201 C  
BRANCH  12  13
HETATM   13  C   UNL     1      -7.769   9.350  70.790  1.00  0.00    -0.144 C  
HETATM   14  C   UNL     1      -6.697   8.595  71.587  1.00  0.00    -0.083 C  
HETATM   15  C   UNL     1      -5.408   9.272  71.148  1.00  0.00    -0.043 C  
HETATM   16  O   UNL     1      -6.632   7.220  71.213  1.00  0.00    -0.043 OA 
HETATM   17  C   UNL     1      -5.589   9.420  69.638  1.00  0.00    -0.033 C  
HETATM   18  H   UNL     1      -5.968   6.753  71.707  1.00  0.00     0.000 HD 
HETATM   19  C   UNL     1      -7.113   9.591  69.405  1.00  0.00    -0.055 C  
HETATM   20  O   UNL     1      -5.129   8.237  68.980  1.00  0.00    -0.026 OA 
HETATM   21  H   UNL     1      -5.241   8.329  68.041  1.00  0.00     0.000 HD 
BRANCH  19  22
HETATM   22  C   UNL     1      -7.449  10.933  68.784  1.00  0.00    -0.112 C  
HETATM   23  C   UNL     1      -7.066  12.128  69.273  1.00  0.00     0.041 C  
BRANCH  23  24
HETATM   24  C   UNL     1      -7.293  13.454  68.590  1.00  0.00    -0.106 C  
HETATM   25  F   UNL     1      -6.323  13.666  67.657  1.00  0.00    -0.132 F  
HETATM   26  F   UNL     1      -7.178  14.457  69.502  1.00  0.00    -0.136 F  
BRANCH  24  27
HETATM   27  C   UNL     1      -8.674  13.526  67.917  1.00  0.00    -0.183 C  
BRANCH  27  28
HETATM   28  O   UNL     1      -9.267  14.819  68.107  1.00  0.00    -0.185 OA 
BRANCH  28  29
HETATM   29  C   UNL     1     -10.375  14.843  68.910  1.00  0.00    -0.244 A  
HETATM   30  C   UNL     1     -11.119  13.662  68.943  1.00  0.00    -0.292 A  
HETATM   31  C   UNL     1     -12.269  13.572  69.730  1.00  0.00    -0.330 A  
HETATM   32  C   UNL     1     -12.672  14.660  70.501  1.00  0.00    -0.394 A  
HETATM   33  C   UNL     1     -11.921  15.835  70.489  1.00  0.00    -0.401 A  
HETATM   34  C   UNL     1     -10.774  15.928  69.696  1.00  0.00    -0.304 A  
ENDBRANCH  28  29
ENDBRANCH  27  28
ENDBRANCH  24  27
ENDBRANCH  23  24
ENDBRANCH  19  22
ENDBRANCH  12  13
ENDBRANCH  11  12
ENDBRANCH   9  10
ENDBRANCH   8   9
ENDBRANCH   7   8
ENDBRANCH   5   7
ENDBRANCH   4   5
ENDBRANCH   2   4
TORSDOF 13
ENDMDL
MODEL      317
REMARK 921   NORMALIZED FREE ENERGY PREDICTED BY IDOCK:   -2.61 KCAL/MOL
REMARK 922        TOTAL FREE ENERGY PREDICTED BY IDOCK:   -7.42 KCAL/MOL
REMARK 923 INTER-LIGAND FREE ENERGY PREDICTED BY IDOCK:   -5.18 KCAL/MOL
REMARK 924 INTRA-LIGAND FREE ENERGY PREDICTED BY IDOCK:   -2.24 KCAL/MOL
REMARK 927      BINDING AFFINITY PREDICTED BY RF-SCORE:    0.00 PKD
ROOT
HETATM    1  C   UNL     1     -11.617  10.784  70.593  1.00  0.00    -0.388 C  
HETATM    2  C   UNL     1     -11.686  11.638  69.331  1.00  0.00    -0.340 C  
HETATM    3  C   UNL     1     -11.820  13.114  69.684  1.00  0.00    -0.390 C  
ENDROOT
BRANCH   2   4
HETATM    4  O   UNL     1     -10.470  11.479  68.580  1.00  0.00    -0.194 OA 
BRANCH   4   5
HETATM    5  C   UNL     1      -9.985  10.208  68.512  1.00  0.00    -0.163 C  
HETATM    6  O   UNL     1     -10.614   9.228  68.140  1.00  0.00    -0.221 OA 
BRANCH   5   7
HETATM    7  C   UNL     1      -8.565  10.169  69.013  1.00  0.00    -0.156 C  
BRANCH   7   8
HETATM    8  C   UNL     1      -7.990   8.759  68.900  1.00  0.00    -0.105 C  
BRANCH   8   9
HETATM    9  C   UNL     1      -6.789   8.596  69.828  1.00  0.00    -0.042 C  
BRANCH   9  10
HETATM   10  C   UNL     1      -6.379   7.159  69.970  1.00  0.00    -0.031 C  
HETATM   11  C   UNL     1      -6.263   6.484  71.124  1.00  0.00    -0.040 C  
BRANCH  11  12
HETATM   12  C   UNL     1      -6.519   7.028  72.505  1.00  0.00    -0.053 C  
BRANCH  12  13
HETATM   13  C   UNL     1      -7.871   6.547  73.043  1.00  0.00    -0.104 C  
HETATM   14  C   UNL     1      -8.717   7.640  73.709  1.00  0.00    -0.239 C  
HETATM   15  C   UNL     1     -10.110   7.029  73.724  1.00  0.00    -0.390 C  
HETATM   16  O   UNL     1      -8.757   8.829  72.922  1.00  0.00    -0.379 OA 
HETATM   17  C   UNL     1     -10.230   6.401  72.337  1.00  0.00    -0.186 C  
HETATM   18  H   UNL     1      -9.282   9.506  73.334  1.00  0.00     0.000 HD 
HETATM   19  C   UNL     1      -8.794   5.975  71.934  1.00  0.00    -0.138 C  
HETATM   20  O   UNL     1     -10.724   7.371  71.410  1.00  0.00    -0.220 OA 
HETATM   21  H   UNL     1     -10.800   6.980  70.548  1.00  0.00     0.000 HD 
BRANCH  19  22
HETATM   22  C   UNL     1      -8.676   4.476  71.740  1.00  0.00    -0.131 C  
HETATM   23  C   UNL     1      -9.711   3.614  71.735  1.00  0.00    -0.233 C  
BRANCH  23  24
HETATM   24  C   UNL     1      -9.608   2.142  71.418  1.00  0.00    -0.147 C  
HETATM   25  F   UNL     1     -10.675   1.480  71.944  1.00  0.00    -0.227 F  
HETATM   26  F   UNL     1      -8.499   1.628  72.018  1.00  0.00    -0.047 F  
BRANCH  24  27
HETATM   27  C   UNL     1      -9.540   1.882  69.904  1.00  0.00     0.014 C  
BRANCH  27  28
HETATM   28  O   UNL     1      -8.236   2.193  69.391  1.00  0.00    -0.044 OA 
BRANCH  28  29
HETATM   29  C   UNL     1      -8.171   3.299  68.587  1.00  0.00    -0.060 A  
HETATM   30  C   UNL     1      -6.885   3.776  68.325  1.00  0.00    -0.047 A  
HETATM   31  C   UNL     1      -6.698   4.897  67.513  1.00  0.00    -0.055 A  
HETATM   32  C   UNL     1      -7.798   5.537  66.948  1.00  0.00    -0.101 A  
HETATM   33  C   UNL     1      -9.083   5.053  67.188  1.00  0.00    -0.115 A  
HETATM   34  C   UNL     1      -9.271   3.935  68.005  1.00  0.00    -0.212 A  
ENDBRANCH  28  29
ENDBRANCH  27  28
ENDBRANCH  24  27
ENDBRANCH  23  24
ENDBRANCH  19  22
ENDBRANCH  12  13
ENDBRANCH  11  12
ENDBRANCH   9  10
ENDBRANCH   8   9
ENDBRANCH   7   8
ENDBRANCH   5   7
ENDBRANCH   4   5
ENDBRANCH   2   4
TORSDOF 13
ENDMDL
MODEL      318
REMARK 921   NORMALIZED FREE ENERGY PREDICTED BY IDOCK:   -2.60 KCAL/MOL
REMARK 922        TOTAL FREE ENERGY PREDICTED BY IDOCK:   -7.41 KCAL/MOL
REMARK 923 INTER-LIGAND FREE ENERGY PREDICTED BY IDOCK:   -5.56 KCAL/MOL
REMARK 924 INTRA-LIGAND FREE ENERGY PREDICTED BY IDOCK:   -1.85 KCAL/MOL
REMARK 927      BINDING AFFINITY PREDICTED BY RF-SCORE:    0.00 PKD
ROOT
HETATM    1  C   UNL     1      -9.803   9.796  70.809  1.00  0.00    -0.102 C  
HETATM    2  C   UNL     1      -9.384   8.690  69.846  1.00  0.00    -0.159 C  
HETATM    3  C   UNL     1     -10.318   8.638  68.643  1.00  0.00    -0.219 C  
ENDROOT
BRANCH   2   4
HETATM    4  O   UNL     1      -8.059   8.960  69.356  1.00  0.00    -0.100 OA 
BRANCH   4   5
HETATM    5  C   UNL     1      -7.895   8.830  68.009  1.00  0.00    -0.102 C  
HETATM    6  O   UNL     1      -8.361   7.933  67.322  1.00  0.00    -0.119 OA 
BRANCH   5   7
HETATM    7  C   UNL     1      -7.008   9.930  67.489  1.00  0.00    -0.083 C  
BRANCH   7   8
HETATM    8  C   UNL     1      -7.325  11.254  68.181  1.00  0.00    -0.088 C  
BRANCH   8   9
HETATM    9  C   UNL     1      -6.072  12.119  68.280  1.00  0.00    -0.052 C  
BRANCH   9  10
HETATM   10  C   UNL     1      -6.140  13.079  69.432  1.00  0.00    -0.108 C  
HETATM   11  C   UNL     1      -6.512  14.367  69.363  1.00  0.00    -0.132 C  
BRANCH  11  12
HETATM   12  C   UNL     1      -6.935  15.106  68.121  1.00  0.00    -0.132 C  
BRANCH  12  13
HETATM   13  C   UNL     1      -8.461  15.225  68.045  1.00  0.00    -0.147 C  
HETATM   14  C   UNL     1      -9.004  16.634  68.319  1.00  0.00    -0.214 C  
HETATM   15  C   UNL     1     -10.413  16.571  67.749  1.00  0.00    -0.308 C  
HETATM   16  O   UNL     1      -8.275  17.629  67.604  1.00  0.00    -0.219 OA 
HETATM   17  C   UNL     1     -10.221  15.830  66.426  1.00  0.00    -0.293 C  
HETATM   18  H   UNL     1      -8.612  18.501  67.773  1.00  0.00     0.000 HD 
HETATM   19  C   UNL     1      -9.027  14.865  66.646  1.00  0.00    -0.301 C  
HETATM   20  O   UNL     1      -9.902  16.765  65.393  1.00  0.00    -0.547 OA 
HETATM   21  H   UNL     1      -9.783  16.305  64.570  1.00  0.00     0.000 HD 
BRANCH  19  22
HETATM   22  C   UNL     1      -9.432  13.411  66.495  1.00  0.00    -0.252 C  
HETATM   23  C   UNL     1     -10.401  12.961  65.676  1.00  0.00    -0.295 C  
BRANCH  23  24
HETATM   24  C   UNL     1     -10.720  11.505  65.433  1.00  0.00    -0.278 C  
HETATM   25  F   UNL     1     -12.001  11.243  65.811  1.00  0.00     0.077 F  
HETATM   26  F   UNL     1      -9.919  10.732  66.215  1.00  0.00    -0.225 F  
BRANCH  24  27
HETATM   27  C   UNL     1     -10.531  11.113  63.958  1.00  0.00    -0.383 C  
BRANCH  27  28
HETATM   28  O   UNL     1      -9.240  11.521  63.483  1.00  0.00    -0.148 OA 
BRANCH  28  29
HETATM   29  C   UNL     1      -8.312  10.521  63.373  1.00  0.00    -0.123 A  
HETATM   30  C   UNL     1      -8.764   9.243  63.710  1.00  0.00    -0.190 A  
HETATM   31  C   UNL     1      -7.904   8.146  63.632  1.00  0.00    -0.151 A  
HETATM   32  C   UNL     1      -6.590   8.320  63.201  1.00  0.00    -0.085 A  
HETATM   33  C   UNL     1      -6.140   9.590  62.843  1.00  0.00    -0.099 A  
HETATM   34  C   UNL     1      -6.999  10.690  62.926  1.00  0.00     0.021 A  
ENDBRANCH  28  29
ENDBRANCH  27  28
ENDBRANCH  24  27
ENDBRANCH  23  24
ENDBRANCH  19  22
ENDBRANCH  12  13
ENDBRANCH  11  12
ENDBRANCH   9  10
ENDBRANCH   8   9
ENDBRANCH   7   8
ENDBRANCH   5   7
ENDBRANCH   4   5
ENDBRANCH   2   4
TORSDOF 13
ENDMDL
MODEL      319
REMARK 921   NORMALIZED FREE ENERGY PREDICTED BY IDOCK:   -2.56 KCAL/MOL
REMARK 922        TOTAL FREE ENERGY PREDICTED BY IDOCK:   -7.34 KCAL/MOL
REMARK 923 INTER-LIGAND FREE ENERGY PREDICTED BY IDOCK:   -5.41 KCAL/MOL
REMARK 924 INTRA-LIGAND FREE ENERGY PREDICTED BY IDOCK:   -1.93 KCAL/MOL
REMARK 927      BINDING AFFINITY PREDICTED BY RF-SCORE:    0.00 PKD
ROOT
HETATM    1  C   UNL     1     -11.794  15.776  64.236  1.00  0.00    -0.120 C  
HETATM    2  C   UNL     1     -10.935  16.510  65.261  1.00  0.00    -0.162 C  
HETATM    3  C   UNL     1      -9.680  15.710  65.587  1.00  0.00    -0.348 C  
ENDROOT
BRANCH   2   4
HETATM    4  O   UNL     1     -10.516  17.774  64.716  1.00  0.00     0.082 OA 
BRANCH   4   5
HETATM    5  C   UNL     1     -10.606  18.836  65.564  1.00  0.00     0.007 C  
HETATM    6  O   UNL     1     -11.268  19.845  65.368  1.00  0.00    -0.271 OA 
BRANCH   5   7
HETATM    7  C   UNL     1      -9.728  18.613  66.767  1.00  0.00    -0.348 C  
BRANCH   7   8
HETATM    8  C   UNL     1     -10.456  19.010  68.049  1.00  0.00    -0.436 C  
BRANCH   8   9
HETATM    9  C   UNL     1     -10.199  17.984  69.150  1.00  0.00    -0.157 C  
BRANCH   9  10
HETATM   10  C   UNL     1      -9.208  16.940  68.725  1.00  0.00    -0.260 C  
HETATM   11  C   UNL     1      -9.000  15.759  69.329  1.00  0.00    -0.266 C  
BRANCH  11  12
HETATM   12  C   UNL     1      -9.714  15.247  70.552  1.00  0.00     0.626 C  
BRANCH  12  13
HETATM   13  C   UNL     1     -10.674  14.108  70.190  1.00  0.00     0.407 C  
HETATM   14  C   UNL     1     -12.157  14.426  70.426  1.00  0.00    -0.331 C  
HETATM   15  C   UNL     1     -12.867  13.369  69.593  1.00  0.00     0.567 C  
HETATM   16  O   UNL     1     -12.509  15.710  69.917  1.00  0.00    -0.517 OA 
HETATM   17  C   UNL     1     -12.060  13.349  68.295  1.00  0.00    -0.236 C  
HETATM   18  H   UNL     1     -13.427  15.907  70.063  1.00  0.00     0.000 HD 
HETATM   19  C   UNL     1     -10.604  13.711  68.691  1.00  0.00    -0.260 C  
HETATM   20  O   UNL     1     -12.574  14.330  67.392  1.00  0.00    -0.531 OA 
HETATM   21  H   UNL     1     -12.072  14.317  66.586  1.00  0.00     0.000 HD 
BRANCH  19  22
HETATM   22  C   UNL     1      -9.633  12.586  68.391  1.00  0.00    -0.176 C  
HETATM   23  C   UNL     1      -9.942  11.457  67.725  1.00  0.00    -0.192 C  
BRANCH  23  24
HETATM   24  C   UNL     1      -8.948  10.396  67.318  1.00  0.00    -0.135 C  
HETATM   25  F   UNL     1      -7.692  10.776  67.679  1.00  0.00    -0.099 F  
HETATM   26  F   UNL     1      -8.943  10.280  65.962  1.00  0.00    -0.148 F  
BRANCH  24  27
HETATM   27  C   UNL     1      -9.272   9.032  67.949  1.00  0.00    -0.141 C  
BRANCH  27  28
HETATM   28  O   UNL     1     -10.511   9.085  68.671  1.00  0.00    -0.213 OA 
BRANCH  28  29
HETATM   29  C   UNL     1     -10.452   8.656  69.970  1.00  0.00    -0.223 A  
HETATM   30  C   UNL     1     -11.202   7.514  70.260  1.00  0.00    -0.253 A  
HETATM   31  C   UNL     1     -11.213   6.986  71.553  1.00  0.00    -0.279 A  
HETATM   32  C   UNL     1     -10.461   7.589  72.558  1.00  0.00    -0.300 A  
HETATM   33  C   UNL     1      -9.694   8.717  72.270  1.00  0.00    -0.357 A  
HETATM   34  C   UNL     1      -9.687   9.250  70.977  1.00  0.00    -0.341 A  
ENDBRANCH  28  29
ENDBRANCH  27  28
ENDBRANCH  24  27
ENDBRANCH  23  24
ENDBRANCH  19  22
ENDBRANCH  12  13
ENDBRANCH  11  12
ENDBRANCH   9  10
ENDBRANCH   8   9
ENDBRANCH   7   8
ENDBRANCH   5   7
ENDBRANCH   4   5
ENDBRANCH   2   4
TORSDOF 13
ENDMDL
MODEL      320
REMARK 921   NORMALIZED FREE ENERGY PREDICTED BY IDOCK:   -2.55 KCAL/MOL
REMARK 922        TOTAL FREE ENERGY PREDICTED BY IDOCK:   -7.33 KCAL/MOL
REMARK 923 INTER-LIGAND FREE ENERGY PREDICTED BY IDOCK:   -5.83 KCAL/MOL
REMARK 924 INTRA-LIGAND FREE ENERGY PREDICTED BY IDOCK:   -1.50 KCAL/MOL
REMARK 927      BINDING AFFINITY PREDICTED BY RF-SCORE:    0.00 PKD
ROOT
HETATM    1  C   UNL     1      -5.397   9.731  72.307  1.00  0.00     0.008 C  
HETATM    2  C   UNL     1      -6.142  10.127  71.036  1.00  0.00    -0.003 C  
HETATM    3  C   UNL     1      -5.238  10.926  70.106  1.00  0.00    -0.055 C  
ENDROOT
BRANCH   2   4
HETATM    4  O   UNL     1      -6.551   8.941  70.333  1.00  0.00    -0.038 OA 
BRANCH   4   5
HETATM    5  C   UNL     1      -7.887   8.837  70.086  1.00  0.00    -0.094 C  
HETATM    6  O   UNL     1      -8.744   9.610  70.489  1.00  0.00    -0.218 OA 
BRANCH   5   7
HETATM    7  C   UNL     1      -8.168   7.596  69.281  1.00  0.00    -0.133 C  
BRANCH   7   8
HETATM    8  C   UNL     1      -7.417   7.632  67.952  1.00  0.00    -0.108 C  
BRANCH   8   9
HETATM    9  C   UNL     1      -7.682   8.947  67.223  1.00  0.00    -0.092 C  
BRANCH   9  10
HETATM   10  C   UNL     1      -8.945   8.898  66.415  1.00  0.00    -0.193 C  
HETATM   11  C   UNL     1      -9.472   9.915  65.715  1.00  0.00    -0.280 C  
BRANCH  11  12
HETATM   12  C   UNL     1      -8.904  11.305  65.600  1.00  0.00    -0.124 C  
BRANCH  12  13
HETATM   13  C   UNL     1      -9.748  12.310  66.393  1.00  0.00    -0.243 C  
HETATM   14  C   UNL     1     -11.244  12.295  66.051  1.00  0.00    -0.332 C  
HETATM   15  C   UNL     1     -11.871  13.005  67.241  1.00  0.00    -0.419 C  
HETATM   16  O   UNL     1     -11.760  10.966  65.998  1.00  0.00     0.254 OA 
HETATM   17  C   UNL     1     -11.129  12.406  68.435  1.00  0.00    -0.250 C  
HETATM   18  H   UNL     1     -12.686  10.957  65.787  1.00  0.00     0.000 HD 
HETATM   19  C   UNL     1      -9.705  12.060  67.924  1.00  0.00    -0.194 C  
HETATM   20  O   UNL     1     -11.790  11.214  68.865  1.00  0.00    -0.318 OA 
HETATM   21  H   UNL     1     -11.329  10.842  69.608  1.00  0.00     0.000 HD 
BRANCH  19  22
HETATM   22  C   UNL     1      -8.630  12.844  68.652  1.00  0.00     0.053 C  
HETATM   23  C   UNL     1      -8.102  14.007  68.227  1.00  0.00    -0.148 C  
BRANCH  23  24
HETATM   24  C   UNL     1      -7.125  14.849  69.010  1.00  0.00    -0.130 C  
HETATM   25  F   UNL     1      -5.887  14.763  68.450  1.00  0.00    -0.081 F  
HETATM   26  F   UNL     1      -7.013  14.354  70.273  1.00  0.00    -0.128 F  
BRANCH  24  27
HETATM   27  C   UNL     1      -7.556  16.324  69.073  1.00  0.00    -0.219 C  
BRANCH  27  28
HETATM   28  O   UNL     1      -7.975  16.788  67.781  1.00  0.00    -0.172 OA 
BRANCH  28  29
HETATM   29  C   UNL     1      -8.858  17.834  67.792  1.00  0.00    -0.249 A  
HETATM   30  C   UNL     1      -9.405  18.170  66.552  1.00  0.00    -0.301 A  
HETATM   31  C   UNL     1     -10.321  19.220  66.444  1.00  0.00    -0.558 A  
HETATM   32  C   UNL     1     -10.704  19.928  67.581  1.00  0.00    -0.399 A  
HETATM   33  C   UNL     1     -10.177  19.583  68.825  1.00  0.00    -0.442 A  
HETATM   34  C   UNL     1      -9.257  18.536  68.932  1.00  0.00    -0.219 A  
ENDBRANCH  28  29
ENDBRANCH  27  28
ENDBRANCH  24  27
ENDBRANCH  23  24
ENDBRANCH  19  22
ENDBRANCH  12  13
ENDBRANCH  11  12
ENDBRANCH   9  10
ENDBRANCH   8   9
ENDBRANCH   7   8
ENDBRANCH   5   7
ENDBRANCH   4   5
ENDBRANCH   2   4
TORSDOF 13
ENDMDL
MODEL      321
REMARK 921   NORMALIZED FREE ENERGY PREDICTED BY IDOCK:   -2.53 KCAL/MOL
REMARK 922        TOTAL FREE ENERGY PREDICTED BY IDOCK:   -7.28 KCAL/MOL
REMARK 923 INTER-LIGAND FREE ENERGY PREDICTED BY IDOCK:   -5.89 KCAL/MOL
REMARK 924 INTRA-LIGAND FREE ENERGY PREDICTED BY IDOCK:   -1.39 KCAL/MOL
REMARK 927      BINDING AFFINITY PREDICTED BY RF-SCORE:    0.00 PKD
ROOT
HETATM    1  C   UNL     1      -7.349  14.401  70.676  1.00  0.00     1.098 C  
HETATM    2  C   UNL     1      -5.880  14.779  70.515  1.00  0.00    -0.157 C  
HETATM    3  C   UNL     1      -5.134  14.620  71.834  1.00  0.00    -0.165 C  
ENDROOT
BRANCH   2   4
HETATM    4  O   UNL     1      -5.262  13.902  69.558  1.00  0.00    -0.083 OA 
BRANCH   4   5
HETATM    5  C   UNL     1      -5.582  12.583  69.680  1.00  0.00    -0.093 C  
HETATM    6  O   UNL     1      -5.479  11.921  70.703  1.00  0.00    -0.134 OA 
BRANCH   5   7
HETATM    7  C   UNL     1      -6.037  12.036  68.353  1.00  0.00    -0.050 C  
BRANCH   7   8
HETATM    8  C   UNL     1      -7.463  11.499  68.451  1.00  0.00    -0.109 C  
BRANCH   8   9
HETATM    9  C   UNL     1      -8.083  11.372  67.061  1.00  0.00    -0.157 C  
BRANCH   9  10
HETATM   10  C   UNL     1      -9.563  11.131  67.124  1.00  0.00    -0.192 C  
HETATM   11  C   UNL     1     -10.399  11.090  66.075  1.00  0.00    -0.311 C  
BRANCH  11  12
HETATM   12  C   UNL     1     -10.024  11.277  64.629  1.00  0.00    -0.331 C  
BRANCH  12  13
HETATM   13  C   UNL     1     -10.530  12.625  64.101  1.00  0.00    -0.438 C  
HETATM   14  C   UNL     1     -11.784  12.533  63.221  1.00  0.00    -0.398 C  
HETATM   15  C   UNL     1     -12.307  13.961  63.225  1.00  0.00     0.225 C  
HETATM   16  O   UNL     1     -12.776  11.689  63.802  1.00  0.00    -0.407 OA 
HETATM   17  C   UNL     1     -12.160  14.381  64.687  1.00  0.00    -0.471 C  
HETATM   18  H   UNL     1     -13.553  11.633  63.257  1.00  0.00     0.000 HD 
HETATM   19  C   UNL     1     -10.932  13.606  65.233  1.00  0.00    -0.314 C  
HETATM   20  O   UNL     1     -13.331  14.006  65.416  1.00  0.00    -0.721 OA 
HETATM   21  H   UNL     1     -13.240  14.267  66.325  1.00  0.00     0.000 HD 
BRANCH  19  22
HETATM   22  C   UNL     1      -9.819  14.537  65.673  1.00  0.00    -0.337 C  
HETATM   23  C   UNL     1      -9.754  15.151  66.870  1.00  0.00    -0.248 C  
BRANCH  23  24
HETATM   24  C   UNL     1      -8.586  15.976  67.355  1.00  0.00    -0.178 C  
HETATM   25  F   UNL     1      -7.419  15.329  67.086  1.00  0.00    -0.197 F  
HETATM   26  F   UNL     1      -8.655  16.103  68.708  1.00  0.00    -0.186 F  
BRANCH  24  27
HETATM   27  C   UNL     1      -8.559  17.371  66.708  1.00  0.00    -0.260 C  
BRANCH  27  28
HETATM   28  O   UNL     1      -7.285  18.000  66.907  1.00  0.00    -0.186 OA 
BRANCH  28  29
HETATM   29  C   UNL     1      -6.850  18.784  65.872  1.00  0.00    -0.271 A  
HETATM   30  C   UNL     1      -7.243  20.123  65.926  1.00  0.00    -0.308 A  
HETATM   31  C   UNL     1      -6.854  21.014  64.924  1.00  0.00     0.095 A  
HETATM   32  C   UNL     1      -6.056  20.573  63.870  1.00  0.00    -0.315 A  
HETATM   33  C   UNL     1      -5.643  19.242  63.823  1.00  0.00    -0.348 A  
HETATM   34  C   UNL     1      -6.037  18.348  64.822  1.00  0.00     0.053 A  
ENDBRANCH  28  29
ENDBRANCH  27  28
ENDBRANCH  24  27
ENDBRANCH  23  24
ENDBRANCH  19  22
ENDBRANCH  12  13
ENDBRANCH  11  12
ENDBRANCH   9  10
ENDBRANCH   8   9
ENDBRANCH   7   8
ENDBRANCH   5   7
ENDBRANCH   4   5
ENDBRANCH   2   4
TORSDOF 13
ENDMDL
MODEL      322
REMARK 921   NORMALIZED FREE ENERGY PREDICTED BY IDOCK:   -2.52 KCAL/MOL
REMARK 922        TOTAL FREE ENERGY PREDICTED BY IDOCK:   -7.28 KCAL/MOL
REMARK 923 INTER-LIGAND FREE ENERGY PREDICTED BY IDOCK:   -5.72 KCAL/MOL
REMARK 924 INTRA-LIGAND FREE ENERGY PREDICTED BY IDOCK:   -1.56 KCAL/MOL
REMARK 927      BINDING AFFINITY PREDICTED BY RF-SCORE:    0.00 PKD
ROOT
HETATM    1  C   UNL     1      -7.344  10.897  63.008  1.00  0.00     0.257 C  
HETATM    2  C   UNL     1      -8.766  11.084  62.491  1.00  0.00    -0.287 C  
HETATM    3  C   UNL     1      -9.465   9.740  62.333  1.00  0.00    -0.099 C  
ENDROOT
BRANCH   2   4
HETATM    4  O   UNL     1      -9.521  11.857  63.441  1.00  0.00    -0.238 OA 
BRANCH   4   5
HETATM    5  C   UNL     1     -10.502  11.178  64.101  1.00  0.00    -0.377 C  
HETATM    6  O   UNL     1     -11.696  11.229  63.842  1.00  0.00    -0.131 OA 
BRANCH   5   7
HETATM    7  C   UNL     1      -9.909  10.389  65.238  1.00  0.00    -0.361 C  
BRANCH   7   8
HETATM    8  C   UNL     1     -10.760  10.532  66.497  1.00  0.00    -0.191 C  
BRANCH   8   9
HETATM    9  C   UNL     1     -10.430   9.424  67.494  1.00  0.00    -0.343 C  
BRANCH   9  10
HETATM   10  C   UNL     1      -8.979   9.041  67.450  1.00  0.00    -0.135 C  
HETATM   11  C   UNL     1      -8.021   9.490  68.276  1.00  0.00    -0.094 C  
BRANCH  11  12
HETATM   12  C   UNL     1      -8.207  10.465  69.409  1.00  0.00    -0.158 C  
BRANCH  12  13
HETATM   13  C   UNL     1      -7.366  11.728  69.189  1.00  0.00    -0.005 C  
HETATM   14  C   UNL     1      -5.863  11.542  69.432  1.00  0.00    -0.065 C  
HETATM   15  C   UNL     1      -5.254  12.746  68.728  1.00  0.00    -0.063 C  
HETATM   16  O   UNL     1      -5.369  10.360  68.806  1.00  0.00    -0.039 OA 
HETATM   17  C   UNL     1      -6.037  12.817  67.418  1.00  0.00    -0.119 C  
HETATM   18  H   UNL     1      -4.438  10.245  68.956  1.00  0.00     0.000 HD 
HETATM   19  C   UNL     1      -7.453  12.267  67.736  1.00  0.00    -0.126 C  
HETATM   20  O   UNL     1      -5.408  11.991  66.436  1.00  0.00    -0.444 OA 
HETATM   21  H   UNL     1      -5.895  12.036  65.621  1.00  0.00     0.000 HD 
BRANCH  19  22
HETATM   22  C   UNL     1      -8.532  13.311  67.524  1.00  0.00    -0.202 C  
HETATM   23  C   UNL     1      -8.632  14.110  66.445  1.00  0.00     0.288 C  
BRANCH  23  24
HETATM   24  C   UNL     1      -9.774  15.060  66.176  1.00  0.00    -0.306 C  
HETATM   25  F   UNL     1     -10.763  14.865  67.092  1.00  0.00    -0.273 F  
HETATM   26  F   UNL     1     -10.314  14.782  64.958  1.00  0.00    -0.365 F  
BRANCH  24  27
HETATM   27  C   UNL     1      -9.322  16.529  66.215  1.00  0.00    -0.302 C  
BRANCH  27  28
HETATM   28  O   UNL     1      -8.692  16.836  67.467  1.00  0.00    -0.196 OA 
BRANCH  28  29
HETATM   29  C   UNL     1      -7.519  17.536  67.377  1.00  0.00    -0.195 A  
HETATM   30  C   UNL     1      -7.447  18.691  68.158  1.00  0.00    -0.288 A  
HETATM   31  C   UNL     1      -6.296  19.481  68.148  1.00  0.00    -0.261 A  
HETATM   32  C   UNL     1      -5.204  19.111  67.366  1.00  0.00    -0.160 A  
HETATM   33  C   UNL     1      -5.262  17.947  66.600  1.00  0.00    -0.179 A  
HETATM   34  C   UNL     1      -6.416  17.159  66.606  1.00  0.00    -0.267 A  
ENDBRANCH  28  29
ENDBRANCH  27  28
ENDBRANCH  24  27
ENDBRANCH  23  24
ENDBRANCH  19  22
ENDBRANCH  12  13
ENDBRANCH  11  12
ENDBRANCH   9  10
ENDBRANCH   8   9
ENDBRANCH   7   8
ENDBRANCH   5   7
ENDBRANCH   4   5
ENDBRANCH   2   4
TORSDOF 13
ENDMDL
MODEL      323
REMARK 921   NORMALIZED FREE ENERGY PREDICTED BY IDOCK:   -2.43 KCAL/MOL
REMARK 922        TOTAL FREE ENERGY PREDICTED BY IDOCK:   -7.12 KCAL/MOL
REMARK 923 INTER-LIGAND FREE ENERGY PREDICTED BY IDOCK:   -5.48 KCAL/MOL
REMARK 924 INTRA-LIGAND FREE ENERGY PREDICTED BY IDOCK:   -1.64 KCAL/MOL
REMARK 927      BINDING AFFINITY PREDICTED BY RF-SCORE:    0.00 PKD
ROOT
HETATM    1  C   UNL     1     -12.448  11.085  70.646  1.00  0.00    -0.465 C  
HETATM    2  C   UNL     1     -11.495  11.188  69.460  1.00  0.00    -0.303 C  
HETATM    3  C   UNL     1     -10.519  10.018  69.449  1.00  0.00    -0.252 C  
ENDROOT
BRANCH   2   4
HETATM    4  O   UNL     1     -12.248  11.138  68.236  1.00  0.00    -0.613 OA 
BRANCH   4   5
HETATM    5  C   UNL     1     -11.791  11.939  67.234  1.00  0.00    -0.148 C  
HETATM    6  O   UNL     1     -12.321  12.975  66.857  1.00  0.00    -0.351 OA 
BRANCH   5   7
HETATM    7  C   UNL     1     -10.556  11.339  66.615  1.00  0.00    -0.309 C  
BRANCH   7   8
HETATM    8  C   UNL     1      -9.691  12.423  65.974  1.00  0.00    -0.253 C  
BRANCH   8   9
HETATM    9  C   UNL     1      -8.543  12.809  66.904  1.00  0.00    -0.140 C  
BRANCH   9  10
HETATM   10  C   UNL     1      -8.906  13.958  67.798  1.00  0.00    -0.189 C  
HETATM   11  C   UNL     1      -8.452  15.217  67.688  1.00  0.00    -0.171 C  
BRANCH  11  12
HETATM   12  C   UNL     1      -7.488  15.727  66.648  1.00  0.00    -0.006 C  
BRANCH  12  13
HETATM   13  C   UNL     1      -6.953  17.112  67.030  1.00  0.00    -0.228 C  
HETATM   14  C   UNL     1      -5.474  17.338  66.689  1.00  0.00    -0.186 C  
HETATM   15  C   UNL     1      -5.342  18.853  66.738  1.00  0.00    -0.153 C  
HETATM   16  O   UNL     1      -5.164  16.903  65.367  1.00  0.00     0.537 OA 
HETATM   17  C   UNL     1      -6.602  19.335  66.020  1.00  0.00    -0.223 C  
HETATM   18  H   UNL     1      -4.248  17.044  65.156  1.00  0.00     0.000 HD 
HETATM   19  C   UNL     1      -7.691  18.268  66.303  1.00  0.00    -0.283 C  
HETATM   20  O   UNL     1      -6.355  19.412  64.614  1.00  0.00    -0.385 OA 
HETATM   21  H   UNL     1      -7.138  19.713  64.168  1.00  0.00     0.000 HD 
BRANCH  19  22
HETATM   22  C   UNL     1      -8.864  18.839  67.077  1.00  0.00    -0.302 C  
HETATM   23  C   UNL     1      -9.018  18.763  68.412  1.00  0.00    -0.367 C  
BRANCH  23  24
HETATM   24  C   UNL     1     -10.119  19.438  69.194  1.00  0.00    -0.263 C  
HETATM   25  F   UNL     1     -10.979  20.058  68.340  1.00  0.00    -0.353 F  
HETATM   26  F   UNL     1      -9.583  20.411  69.979  1.00  0.00     0.110 F  
BRANCH  24  27
HETATM   27  C   UNL     1     -10.897  18.442  70.070  1.00  0.00     2.058 C  
BRANCH  27  28
HETATM   28  O   UNL     1     -10.851  17.123  69.507  1.00  0.00    -0.202 OA 
BRANCH  28  29
HETATM   29  C   UNL     1     -11.567  16.171  70.181  1.00  0.00    -0.243 A  
HETATM   30  C   UNL     1     -11.713  16.389  71.553  1.00  0.00    -0.337 A  
HETATM   31  C   UNL     1     -12.428  15.484  72.341  1.00  0.00    -0.490 A  
HETATM   32  C   UNL     1     -13.014  14.364  71.756  1.00  0.00    -0.419 A  
HETATM   33  C   UNL     1     -12.890  14.152  70.384  1.00  0.00    -0.256 A  
HETATM   34  C   UNL     1     -12.170  15.054  69.596  1.00  0.00    -0.293 A  
ENDBRANCH  28  29
ENDBRANCH  27  28
ENDBRANCH  24  27
ENDBRANCH  23  24
ENDBRANCH  19  22
ENDBRANCH  12  13
ENDBRANCH  11  12
ENDBRANCH   9  10
ENDBRANCH   8   9
ENDBRANCH   7   8
ENDBRANCH   5   7
ENDBRANCH   4   5
ENDBRANCH   2   4
TORSDOF 13
ENDMDL
MODEL      324
REMARK 921   NORMALIZED FREE ENERGY PREDICTED BY IDOCK:   -2.41 KCAL/MOL
REMARK 922        TOTAL FREE ENERGY PREDICTED BY IDOCK:   -7.07 KCAL/MOL
REMARK 923 INTER-LIGAND FREE ENERGY PREDICTED BY IDOCK:   -5.29 KCAL/MOL
REMARK 924 INTRA-LIGAND FREE ENERGY PREDICTED BY IDOCK:   -1.78 KCAL/MOL
REMARK 927      BINDING AFFINITY PREDICTED BY RF-SCORE:    0.00 PKD
ROOT
HETATM    1  C   UNL     1     -10.017   9.646  65.566  1.00  0.00    -0.279 C  
HETATM    2  C   UNL     1      -9.320  10.023  64.263  1.00  0.00    -0.288 C  
HETATM    3  C   UNL     1     -10.038  11.183  63.583  1.00  0.00    -0.432 C  
ENDROOT
BRANCH   2   4
HETATM    4  O   UNL     1      -7.976  10.450  64.546  1.00  0.00    -0.156 OA 
BRANCH   4   5
HETATM    5  C   UNL     1      -7.751  10.868  65.823  1.00  0.00    -0.036 C  
HETATM    6  O   UNL     1      -8.198  11.890  66.324  1.00  0.00    -0.030 OA 
BRANCH   5   7
HETATM    7  C   UNL     1      -6.824   9.910  66.524  1.00  0.00    -0.085 C  
BRANCH   7   8
HETATM    8  C   UNL     1      -7.303   9.639  67.949  1.00  0.00    -0.082 C  
BRANCH   8   9
HETATM    9  C   UNL     1      -6.407   8.606  68.627  1.00  0.00    -0.053 C  
BRANCH   9  10
HETATM   10  C   UNL     1      -6.359   7.315  67.862  1.00  0.00    -0.048 C  
HETATM   11  C   UNL     1      -7.357   6.423  67.759  1.00  0.00    -0.088 C  
BRANCH  11  12
HETATM   12  C   UNL     1      -8.720   6.535  68.388  1.00  0.00    -0.121 C  
BRANCH  12  13
HETATM   13  C   UNL     1      -8.916   5.465  69.468  1.00  0.00    -0.125 C  
HETATM   14  C   UNL     1      -9.735   4.248  69.016  1.00  0.00    -0.139 C  
HETATM   15  C   UNL     1      -9.393   3.201  70.066  1.00  0.00    -0.226 C  
HETATM   16  O   UNL     1      -9.306   3.766  67.745  1.00  0.00    -0.162 OA 
HETATM   17  C   UNL     1      -7.883   3.362  70.239  1.00  0.00    -0.046 C  
HETATM   18  H   UNL     1      -9.812   3.012  67.466  1.00  0.00     0.000 HD 
HETATM   19  C   UNL     1      -7.578   4.859  69.969  1.00  0.00    -0.055 C  
HETATM   20  O   UNL     1      -7.199   2.550  69.282  1.00  0.00    -0.043 OA 
HETATM   21  H   UNL     1      -6.261   2.649  69.390  1.00  0.00     0.000 HD 
BRANCH  19  22
HETATM   22  C   UNL     1      -6.999   5.553  71.186  1.00  0.00    -0.065 C  
HETATM   23  C   UNL     1      -7.670   6.411  71.977  1.00  0.00    -0.096 C  
BRANCH  23  24
HETATM   24  C   UNL     1      -7.134   7.005  73.258  1.00  0.00    -0.073 C  
HETATM   25  F   UNL     1      -5.902   7.542  73.038  1.00  0.00    -0.044 F  
HETATM   26  F   UNL     1      -6.967   6.016  74.178  1.00  0.00    -0.078 F  
BRANCH  24  27
HETATM   27  C   UNL     1      -8.069   8.085  73.827  1.00  0.00    -0.224 C  
BRANCH  27  28
HETATM   28  O   UNL     1      -9.294   7.503  74.295  1.00  0.00    -0.195 OA 
BRANCH  28  29
HETATM   29  C   UNL     1     -10.264   7.333  73.344  1.00  0.00    -0.347 A  
HETATM   30  C   UNL     1     -10.543   8.456  72.563  1.00  0.00    -0.368 A  
HETATM   31  C   UNL     1     -11.512   8.396  71.559  1.00  0.00    -0.335 A  
HETATM   32  C   UNL     1     -12.197   7.207  71.323  1.00  0.00    -0.403 A  
HETATM   33  C   UNL     1     -11.909   6.076  72.086  1.00  0.00    -0.304 A  
HETATM   34  C   UNL     1     -10.942   6.137  73.094  1.00  0.00    -0.258 A  
ENDBRANCH  28  29
ENDBRANCH  27  28
ENDBRANCH  24  27
ENDBRANCH  23  24
ENDBRANCH  19  22
ENDBRANCH  12  13
ENDBRANCH  11  12
ENDBRANCH   9  10
ENDBRANCH   8   9
ENDBRANCH   7   8
ENDBRANCH   5   7
ENDBRANCH   4   5
ENDBRANCH   2   4
TORSDOF 13
ENDMDL
MODEL      325
REMARK 921   NORMALIZED FREE ENERGY PREDICTED BY IDOCK:   -2.39 KCAL/MOL
REMARK 922        TOTAL FREE ENERGY PREDICTED BY IDOCK:   -7.04 KCAL/MOL
REMARK 923 INTER-LIGAND FREE ENERGY PREDICTED BY IDOCK:   -5.06 KCAL/MOL
REMARK 924 INTRA-LIGAND FREE ENERGY PREDICTED BY IDOCK:   -1.98 KCAL/MOL
REMARK 927      BINDING AFFINITY PREDICTED BY RF-SCORE:    0.00 PKD
ROOT
HETATM    1  C   UNL     1      -7.983  14.062  68.531  1.00  0.00    -0.141 C  
HETATM    2  C   UNL     1      -6.459  14.008  68.546  1.00  0.00    -0.093 C  
HETATM    3  C   UNL     1      -5.867  15.384  68.271  1.00  0.00    -0.119 C  
ENDROOT
BRANCH   2   4
HETATM    4  O   UNL     1      -6.009  13.592  69.847  1.00  0.00    -0.115 OA 
BRANCH   4   5
HETATM    5  C   UNL     1      -5.880  12.247  70.021  1.00  0.00    -0.152 C  
HETATM    6  O   UNL     1      -5.832  11.673  71.099  1.00  0.00    -0.381 OA 
BRANCH   5   7
HETATM    7  C   UNL     1      -5.753  11.564  68.685  1.00  0.00    -0.042 C  
BRANCH   7   8
HETATM    8  C   UNL     1      -6.477  10.219  68.695  1.00  0.00    -0.052 C  
BRANCH   8   9
HETATM    9  C   UNL     1      -7.590  10.203  67.650  1.00  0.00    -0.090 C  
BRANCH   9  10
HETATM   10  C   UNL     1      -7.229   9.371  66.455  1.00  0.00    -0.089 C  
HETATM   11  C   UNL     1      -7.246   8.030  66.395  1.00  0.00    -0.079 C  
BRANCH  11  12
HETATM   12  C   UNL     1      -7.629   7.093  67.511  1.00  0.00    -0.110 C  
BRANCH  12  13
HETATM   13  C   UNL     1      -9.074   6.607  67.348  1.00  0.00    -0.120 C  
HETATM   14  C   UNL     1      -9.326   5.775  66.084  1.00  0.00    -0.144 C  
HETATM   15  C   UNL     1     -10.639   5.072  66.396  1.00  0.00    -0.317 C  
HETATM   16  O   UNL     1      -8.320   4.783  65.895  1.00  0.00    -0.113 OA 
HETATM   17  C   UNL     1     -10.458   4.627  67.847  1.00  0.00     0.256 C  
HETATM   18  H   UNL     1      -8.477   4.267  65.112  1.00  0.00     0.000 HD 
HETATM   19  C   UNL     1      -9.537   5.686  68.508  1.00  0.00    -0.160 C  
HETATM   20  O   UNL     1      -9.825   3.346  67.882  1.00  0.00    -0.136 OA 
HETATM   21  H   UNL     1      -9.713   3.069  68.784  1.00  0.00     0.000 HD 
BRANCH  19  22
HETATM   22  C   UNL     1     -10.227   6.416  69.643  1.00  0.00    -0.229 C  
HETATM   23  C   UNL     1      -9.805   7.573  70.186  1.00  0.00    -0.180 C  
BRANCH  23  24
HETATM   24  C   UNL     1     -10.558   8.363  71.230  1.00  0.00    -0.222 C  
HETATM   25  F   UNL     1     -11.899   8.217  71.042  1.00  0.00    -0.285 F  
HETATM   26  F   UNL     1     -10.288   9.688  71.074  1.00  0.00    -0.338 F  
BRANCH  24  27
HETATM   27  C   UNL     1     -10.190   7.928  72.658  1.00  0.00    -0.296 C  
BRANCH  27  28
HETATM   28  O   UNL     1     -10.940   6.768  73.047  1.00  0.00    -0.267 OA 
BRANCH  28  29
HETATM   29  C   UNL     1     -10.194   5.659  73.340  1.00  0.00    -0.206 A  
HETATM   30  C   UNL     1     -10.887   4.615  73.956  1.00  0.00    -0.328 A  
HETATM   31  C   UNL     1     -10.226   3.433  74.299  1.00  0.00    -0.222 A  
HETATM   32  C   UNL     1      -8.871   3.284  74.012  1.00  0.00    -0.083 A  
HETATM   33  C   UNL     1      -8.179   4.315  73.378  1.00  0.00    -0.090 A  
HETATM   34  C   UNL     1      -8.838   5.501  73.041  1.00  0.00    -0.120 A  
ENDBRANCH  28  29
ENDBRANCH  27  28
ENDBRANCH  24  27
ENDBRANCH  23  24
ENDBRANCH  19  22
ENDBRANCH  12  13
ENDBRANCH  11  12
ENDBRANCH   9  10
ENDBRANCH   8   9
ENDBRANCH   7   8
ENDBRANCH   5   7
ENDBRANCH   4   5
ENDBRANCH   2   4
TORSDOF 13
ENDMDL
MODEL      326
REMARK 921   NORMALIZED FREE ENERGY PREDICTED BY IDOCK:   -2.33 KCAL/MOL
REMARK 922        TOTAL FREE ENERGY PREDICTED BY IDOCK:   -6.94 KCAL/MOL
REMARK 923 INTER-LIGAND FREE ENERGY PREDICTED BY IDOCK:   -5.21 KCAL/MOL
REMARK 924 INTRA-LIGAND FREE ENERGY PREDICTED BY IDOCK:   -1.73 KCAL/MOL
REMARK 927      BINDING AFFINITY PREDICTED BY RF-SCORE:    0.00 PKD
ROOT
HETATM    1  C   UNL     1     -10.703  17.520  68.287  1.00  0.00    -0.309 C  
HETATM    2  C   UNL     1      -9.625  18.382  67.639  1.00  0.00    -0.279 C  
HETATM    3  C   UNL     1     -10.250  19.472  66.778  1.00  0.00    -0.543 C  
ENDROOT
BRANCH   2   4
HETATM    4  O   UNL     1      -8.850  19.028  68.664  1.00  0.00    -0.345 OA 
BRANCH   4   5
HETATM    5  C   UNL     1      -7.502  19.030  68.466  1.00  0.00    -0.317 C  
HETATM    6  O   UNL     1      -6.762  19.989  68.638  1.00  0.00    -0.299 OA 
BRANCH   5   7
HETATM    7  C   UNL     1      -7.054  17.688  67.953  1.00  0.00    -0.190 C  
BRANCH   7   8
HETATM    8  C   UNL     1      -6.337  16.902  69.050  1.00  0.00    -0.194 C  
BRANCH   8   9
HETATM    9  C   UNL     1      -5.784  15.592  68.494  1.00  0.00    -0.102 C  
BRANCH   9  10
HETATM   10  C   UNL     1      -6.338  14.397  69.213  1.00  0.00    -0.115 C  
HETATM   11  C   UNL     1      -7.298  13.578  68.755  1.00  0.00    -0.086 C  
BRANCH  11  12
HETATM   12  C   UNL     1      -8.012  13.693  67.434  1.00  0.00    -0.177 C  
BRANCH  12  13
HETATM   13  C   UNL     1      -9.399  13.045  67.501  1.00  0.00    -0.200 C  
HETATM   14  C   UNL     1     -10.530  13.899  66.913  1.00  0.00    -0.276 C  
HETATM   15  C   UNL     1     -11.643  12.885  66.694  1.00  0.00    -0.428 C  
HETATM   16  O   UNL     1     -10.172  14.452  65.649  1.00  0.00    -0.314 OA 
HETATM   17  C   UNL     1     -10.908  11.684  66.101  1.00  0.00    -0.294 C  
HETATM   18  H   UNL     1     -10.873  14.981  65.285  1.00  0.00     0.000 HD 
HETATM   19  C   UNL     1      -9.482  11.711  66.713  1.00  0.00    -0.197 C  
HETATM   20  O   UNL     1     -10.827  11.823  64.681  1.00  0.00    -0.284 OA 
HETATM   21  H   UNL     1     -10.370  11.076  64.312  1.00  0.00     0.000 HD 
BRANCH  19  22
HETATM   22  C   UNL     1      -9.195  10.477  67.547  1.00  0.00    -0.152 C  
HETATM   23  C   UNL     1      -9.431   9.210  67.158  1.00  0.00    -0.197 C  
BRANCH  23  24
HETATM   24  C   UNL     1      -9.031   7.979  67.935  1.00  0.00    -0.129 C  
HETATM   25  F   UNL     1      -8.156   8.319  68.921  1.00  0.00    -0.107 F  
HETATM   26  F   UNL     1      -8.371   7.121  67.111  1.00  0.00    -0.113 F  
BRANCH  24  27
HETATM   27  C   UNL     1     -10.246   7.268  68.552  1.00  0.00    -0.181 C  
BRANCH  27  28
HETATM   28  O   UNL     1     -10.070   7.089  69.965  1.00  0.00    -0.184 OA 
BRANCH  28  29
HETATM   29  C   UNL     1      -9.891   5.795  70.374  1.00  0.00    -0.186 A  
HETATM   30  C   UNL     1     -11.015   5.181  70.931  1.00  0.00     0.090 A  
HETATM   31  C   UNL     1     -10.949   3.860  71.381  1.00  0.00     1.355 A  
HETATM   32  C   UNL     1      -9.761   3.143  71.261  1.00  0.00    -0.215 A  
HETATM   33  C   UNL     1      -8.642   3.744  70.687  1.00  0.00    -0.110 A  
HETATM   34  C   UNL     1      -8.706   5.067  70.242  1.00  0.00    -0.127 A  
ENDBRANCH  28  29
ENDBRANCH  27  28
ENDBRANCH  24  27
ENDBRANCH  23  24
ENDBRANCH  19  22
ENDBRANCH  12  13
ENDBRANCH  11  12
ENDBRANCH   9  10
ENDBRANCH   8   9
ENDBRANCH   7   8
ENDBRANCH   5   7
ENDBRANCH   4   5
ENDBRANCH   2   4
TORSDOF 13
ENDMDL
MODEL      327
REMARK 921   NORMALIZED FREE ENERGY PREDICTED BY IDOCK:   -2.30 KCAL/MOL
REMARK 922        TOTAL FREE ENERGY PREDICTED BY IDOCK:   -6.89 KCAL/MOL
REMARK 923 INTER-LIGAND FREE ENERGY PREDICTED BY IDOCK:   -5.18 KCAL/MOL
REMARK 924 INTRA-LIGAND FREE ENERGY PREDICTED BY IDOCK:   -1.71 KCAL/MOL
REMARK 927      BINDING AFFINITY PREDICTED BY RF-SCORE:    0.00 PKD
ROOT
HETATM    1  C   UNL     1     -10.925  16.559  67.978  1.00  0.00    -0.320 C  
HETATM    2  C   UNL     1      -9.844  15.680  67.358  1.00  0.00    -0.225 C  
HETATM    3  C   UNL     1      -9.718  15.950  65.864  1.00  0.00    -0.386 C  
ENDROOT
BRANCH   2   4
HETATM    4  O   UNL     1      -8.575  15.986  67.963  1.00  0.00    -0.163 OA 
BRANCH   4   5
HETATM    5  C   UNL     1      -7.490  15.415  67.369  1.00  0.00    -0.209 C  
HETATM    6  O   UNL     1      -6.579  16.021  66.825  1.00  0.00    -0.270 OA 
BRANCH   5   7
HETATM    7  C   UNL     1      -7.597  13.914  67.433  1.00  0.00    -0.160 C  
BRANCH   7   8
HETATM    8  C   UNL     1      -7.493  13.426  68.877  1.00  0.00    -0.010 C  
BRANCH   8   9
HETATM    9  C   UNL     1      -6.160  12.718  69.107  1.00  0.00    -0.092 C  
BRANCH   9  10
HETATM   10  C   UNL     1      -6.322  11.461  69.910  1.00  0.00    -0.141 C  
HETATM   11  C   UNL     1      -6.543  10.233  69.414  1.00  0.00    -0.058 C  
BRANCH  11  12
HETATM   12  C   UNL     1      -6.673   9.870  67.958  1.00  0.00    -0.061 C  
BRANCH  12  13
HETATM   13  C   UNL     1      -8.145   9.814  67.536  1.00  0.00    -0.114 C  
HETATM   14  C   UNL     1      -8.444  10.471  66.182  1.00  0.00    -0.153 C  
HETATM   15  C   UNL     1      -9.802   9.891  65.815  1.00  0.00    -0.356 C  
HETATM   16  O   UNL     1      -7.504  10.076  65.184  1.00  0.00    -0.127 OA 
HETATM   17  C   UNL     1      -9.661   8.415  66.182  1.00  0.00    -0.176 C  
HETATM   18  H   UNL     1      -7.690  10.483  64.346  1.00  0.00     0.000 HD 
HETATM   19  C   UNL     1      -8.676   8.364  67.380  1.00  0.00    -0.136 C  
HETATM   20  O   UNL     1      -9.114   7.694  65.076  1.00  0.00    -0.294 OA 
HETATM   21  H   UNL     1      -9.027   6.776  65.304  1.00  0.00     0.000 HD 
BRANCH  19  22
HETATM   22  C   UNL     1      -9.324   7.802  68.630  1.00  0.00    -0.148 C  
HETATM   23  C   UNL     1      -8.977   6.646  69.226  1.00  0.00    -0.135 C  
BRANCH  23  24
HETATM   24  C   UNL     1      -9.535   6.149  70.538  1.00  0.00    -0.164 C  
HETATM   25  F   UNL     1     -10.855   6.472  70.631  1.00  0.00    -0.249 F  
HETATM   26  F   UNL     1      -8.908   6.784  71.565  1.00  0.00    -0.134 F  
BRANCH  24  27
HETATM   27  C   UNL     1      -9.369   4.628  70.695  1.00  0.00    -0.154 C  
BRANCH  27  28
HETATM   28  O   UNL     1      -9.859   3.939  69.536  1.00  0.00    -0.177 OA 
BRANCH  28  29
HETATM   29  C   UNL     1      -8.903   3.340  68.761  1.00  0.00    -0.115 A  
HETATM   30  C   UNL     1      -9.171   3.311  67.391  1.00  0.00    -0.233 A  
HETATM   31  C   UNL     1      -8.263   2.727  66.505  1.00  0.00    -0.085 A  
HETATM   32  C   UNL     1      -7.075   2.182  66.985  1.00  0.00    -0.048 A  
HETATM   33  C   UNL     1      -6.791   2.227  68.349  1.00  0.00    -0.039 A  
HETATM   34  C   UNL     1      -7.702   2.806  69.237  1.00  0.00    -0.048 A  
ENDBRANCH  28  29
ENDBRANCH  27  28
ENDBRANCH  24  27
ENDBRANCH  23  24
ENDBRANCH  19  22
ENDBRANCH  12  13
ENDBRANCH  11  12
ENDBRANCH   9  10
ENDBRANCH   8   9
ENDBRANCH   7   8
ENDBRANCH   5   7
ENDBRANCH   4   5
ENDBRANCH   2   4
TORSDOF 13
ENDMDL
MODEL      328
REMARK 921   NORMALIZED FREE ENERGY PREDICTED BY IDOCK:   -2.30 KCAL/MOL
REMARK 922        TOTAL FREE ENERGY PREDICTED BY IDOCK:   -6.88 KCAL/MOL
REMARK 923 INTER-LIGAND FREE ENERGY PREDICTED BY IDOCK:   -5.14 KCAL/MOL
REMARK 924 INTRA-LIGAND FREE ENERGY PREDICTED BY IDOCK:   -1.74 KCAL/MOL
REMARK 927      BINDING AFFINITY PREDICTED BY RF-SCORE:    0.00 PKD
ROOT
HETATM    1  C   UNL     1     -11.353  12.519  68.900  1.00  0.00    -0.346 C  
HETATM    2  C   UNL     1     -11.401  13.551  67.778  1.00  0.00    -0.296 C  
HETATM    3  C   UNL     1     -11.652  14.946  68.338  1.00  0.00    -0.348 C  
ENDROOT
BRANCH   2   4
HETATM    4  O   UNL     1     -10.134  13.577  67.098  1.00  0.00    -0.239 OA 
BRANCH   4   5
HETATM    5  C   UNL     1      -9.683  12.371  66.653  1.00  0.00    -0.225 C  
HETATM    6  O   UNL     1     -10.262  11.649  65.853  1.00  0.00    -0.222 OA 
BRANCH   5   7
HETATM    7  C   UNL     1      -8.384  12.023  67.330  1.00  0.00    -0.171 C  
BRANCH   7   8
HETATM    8  C   UNL     1      -7.994  10.575  67.041  1.00  0.00    -0.118 C  
BRANCH   8   9
HETATM    9  C   UNL     1      -6.648  10.246  67.682  1.00  0.00    -0.066 C  
BRANCH   9  10
HETATM   10  C   UNL     1      -6.497   8.777  67.950  1.00  0.00    -0.057 C  
HETATM   11  C   UNL     1      -6.742   8.160  69.116  1.00  0.00    -0.047 C  
BRANCH  11  12
HETATM   12  C   UNL     1      -7.215   8.815  70.388  1.00  0.00    -0.050 C  
BRANCH  12  13
HETATM   13  C   UNL     1      -8.454   8.103  70.944  1.00  0.00    -0.136 C  
HETATM   14  C   UNL     1      -9.639   9.030  71.243  1.00  0.00    -0.291 C  
HETATM   15  C   UNL     1     -10.812   8.065  71.328  1.00  0.00    -0.267 C  
HETATM   16  O   UNL     1      -9.883   9.939  70.172  1.00  0.00    -0.248 OA 
HETATM   17  C   UNL     1     -10.573   7.123  70.148  1.00  0.00    -0.230 C  
HETATM   18  H   UNL     1     -10.617  10.513  70.357  1.00  0.00     0.000 HD 
HETATM   19  C   UNL     1      -9.035   7.047  69.966  1.00  0.00    -0.142 C  
HETATM   20  O   UNL     1     -11.173   7.665  68.970  1.00  0.00    -0.420 OA 
HETATM   21  H   UNL     1     -11.026   7.080  68.237  1.00  0.00     0.000 HD 
BRANCH  19  22
HETATM   22  C   UNL     1      -8.502   5.644  70.180  1.00  0.00    -0.119 C  
HETATM   23  C   UNL     1      -9.246   4.522  70.140  1.00  0.00    -0.197 C  
BRANCH  23  24
HETATM   24  C   UNL     1      -8.697   3.118  70.228  1.00  0.00    -0.069 C  
HETATM   25  F   UNL     1      -9.436   2.387  71.107  1.00  0.00    -0.172 F  
HETATM   26  F   UNL     1      -7.431   3.159  70.727  1.00  0.00    -0.036 F  
BRANCH  24  27
HETATM   27  C   UNL     1      -8.687   2.417  68.860  1.00  0.00    -0.084 C  
BRANCH  27  28
HETATM   28  O   UNL     1      -7.440   2.632  68.185  1.00  0.00    -0.051 OA 
BRANCH  28  29
HETATM   29  C   UNL     1      -7.536   3.181  66.935  1.00  0.00    -0.075 A  
HETATM   30  C   UNL     1      -8.566   2.680  66.136  1.00  0.00    -0.111 A  
HETATM   31  C   UNL     1      -8.760   3.170  64.842  1.00  0.00    -0.108 A  
HETATM   32  C   UNL     1      -7.932   4.175  64.348  1.00  0.00    -0.086 A  
HETATM   33  C   UNL     1      -6.916   4.695  65.148  1.00  0.00    -0.062 A  
HETATM   34  C   UNL     1      -6.717   4.201  66.440  1.00  0.00    -0.050 A  
ENDBRANCH  28  29
ENDBRANCH  27  28
ENDBRANCH  24  27
ENDBRANCH  23  24
ENDBRANCH  19  22
ENDBRANCH  12  13
ENDBRANCH  11  12
ENDBRANCH   9  10
ENDBRANCH   8   9
ENDBRANCH   7   8
ENDBRANCH   5   7
ENDBRANCH   4   5
ENDBRANCH   2   4
TORSDOF 13
ENDMDL
MODEL      329
REMARK 921   NORMALIZED FREE ENERGY PREDICTED BY IDOCK:   -2.26 KCAL/MOL
REMARK 922        TOTAL FREE ENERGY PREDICTED BY IDOCK:   -6.81 KCAL/MOL
REMARK 923 INTER-LIGAND FREE ENERGY PREDICTED BY IDOCK:   -6.33 KCAL/MOL
REMARK 924 INTRA-LIGAND FREE ENERGY PREDICTED BY IDOCK:   -0.48 KCAL/MOL
REMARK 927      BINDING AFFINITY PREDICTED BY RF-SCORE:    0.00 PKD
ROOT
HETATM    1  C   UNL     1     -10.217   8.244  67.912  1.00  0.00    -0.276 C  
HETATM    2  C   UNL     1     -10.966   7.654  69.102  1.00  0.00     0.021 C  
HETATM    3  C   UNL     1     -10.300   6.368  69.577  1.00  0.00    -0.252 C  
ENDROOT
BRANCH   2   4
HETATM    4  O   UNL     1     -10.937   8.588  70.196  1.00  0.00    -0.241 OA 
BRANCH   4   5
HETATM    5  C   UNL     1     -10.278   8.164  71.311  1.00  0.00    -0.195 C  
HETATM    6  O   UNL     1     -10.616   7.228  72.021  1.00  0.00    -0.204 OA 
BRANCH   5   7
HETATM    7  C   UNL     1      -9.090   9.051  71.576  1.00  0.00    -0.231 C  
BRANCH   7   8
HETATM    8  C   UNL     1      -8.009   8.837  70.519  1.00  0.00    -0.117 C  
BRANCH   8   9
HETATM    9  C   UNL     1      -7.434  10.177  70.064  1.00  0.00    -0.171 C  
BRANCH   9  10
HETATM   10  C   UNL     1      -6.501  10.022  68.899  1.00  0.00    -0.048 C  
HETATM   11  C   UNL     1      -6.596  10.664  67.724  1.00  0.00    -0.060 C  
BRANCH  11  12
HETATM   12  C   UNL     1      -7.655  11.663  67.338  1.00  0.00    -0.139 C  
BRANCH  12  13
HETATM   13  C   UNL     1      -7.472  12.979  68.102  1.00  0.00    -0.130 C  
HETATM   14  C   UNL     1      -6.010  13.376  68.345  1.00  0.00    -0.092 C  
HETATM   15  C   UNL     1      -6.111  14.856  68.681  1.00  0.00    -0.087 C  
HETATM   16  O   UNL     1      -5.222  13.237  67.164  1.00  0.00    -0.330 OA 
HETATM   17  C   UNL     1      -7.114  15.379  67.654  1.00  0.00    -0.180 C  
HETATM   18  H   UNL     1      -4.316  13.483  67.315  1.00  0.00     0.000 HD 
HETATM   19  C   UNL     1      -8.078  14.200  67.359  1.00  0.00    -0.205 C  
HETATM   20  O   UNL     1      -6.428  15.752  66.457  1.00  0.00    -0.009 OA 
HETATM   21  H   UNL     1      -7.051  16.078  65.819  1.00  0.00     0.000 HD 
BRANCH  19  22
HETATM   22  C   UNL     1      -9.508  14.518  67.752  1.00  0.00    -0.210 C  
HETATM   23  C   UNL     1     -10.042  14.295  68.967  1.00  0.00    -0.130 C  
BRANCH  23  24
HETATM   24  C   UNL     1     -11.425  14.725  69.395  1.00  0.00    -0.301 C  
HETATM   25  F   UNL     1     -11.791  14.051  70.520  1.00  0.00    -0.342 F  
HETATM   26  F   UNL     1     -12.322  14.385  68.431  1.00  0.00    -0.328 F  
BRANCH  24  27
HETATM   27  C   UNL     1     -11.501  16.238  69.657  1.00  0.00    -0.213 C  
BRANCH  27  28
HETATM   28  O   UNL     1     -10.198  16.835  69.587  1.00  0.00    -0.210 OA 
BRANCH  28  29
HETATM   29  C   UNL     1     -10.114  17.972  68.829  1.00  0.00    -0.381 A  
HETATM   30  C   UNL     1     -11.136  18.148  67.894  1.00  0.00     0.103 A  
HETATM   31  C   UNL     1     -11.153  19.274  67.068  1.00  0.00    -0.239 A  
HETATM   32  C   UNL     1     -10.154  20.238  67.186  1.00  0.00    -0.556 A  
HETATM   33  C   UNL     1      -9.143  20.079  68.132  1.00  0.00    -0.299 A  
HETATM   34  C   UNL     1      -9.122  18.949  68.954  1.00  0.00    -0.278 A  
ENDBRANCH  28  29
ENDBRANCH  27  28
ENDBRANCH  24  27
ENDBRANCH  23  24
ENDBRANCH  19  22
ENDBRANCH  12  13
ENDBRANCH  11  12
ENDBRANCH   9  10
ENDBRANCH   8   9
ENDBRANCH   7   8
ENDBRANCH   5   7
ENDBRANCH   4   5
ENDBRANCH   2   4
TORSDOF 13
ENDMDL
MODEL      330
REMARK 921   NORMALIZED FREE ENERGY PREDICTED BY IDOCK:   -2.25 KCAL/MOL
REMARK 922        TOTAL FREE ENERGY PREDICTED BY IDOCK:   -6.79 KCAL/MOL
REMARK 923 INTER-LIGAND FREE ENERGY PREDICTED BY IDOCK:   -5.66 KCAL/MOL
REMARK 924 INTRA-LIGAND FREE ENERGY PREDICTED BY IDOCK:   -1.14 KCAL/MOL
REMARK 927      BINDING AFFINITY PREDICTED BY RF-SCORE:    0.00 PKD
ROOT
HETATM    1  C   UNL     1      -9.670  14.699  68.722  1.00  0.00    -0.217 C  
HETATM    2  C   UNL     1     -10.606  13.692  68.063  1.00  0.00    -0.249 C  
HETATM    3  C   UNL     1      -9.915  12.995  66.898  1.00  0.00    -0.243 C  
ENDROOT
BRANCH   2   4
HETATM    4  O   UNL     1     -10.971  12.681  69.019  1.00  0.00    -0.238 OA 
BRANCH   4   5
HETATM    5  C   UNL     1     -11.470  11.529  68.492  1.00  0.00    -0.292 C  
HETATM    6  O   UNL     1     -12.403  11.456  67.704  1.00  0.00    -0.226 OA 
BRANCH   5   7
HETATM    7  C   UNL     1     -10.738  10.341  69.059  1.00  0.00    -0.257 C  
BRANCH   7   8
HETATM    8  C   UNL     1      -9.747   9.780  68.042  1.00  0.00    -0.165 C  
BRANCH   8   9
HETATM    9  C   UNL     1     -10.177   8.387  67.590  1.00  0.00    -0.298 C  
BRANCH   9  10
HETATM   10  C   UNL     1      -9.038   7.614  66.991  1.00  0.00    -0.157 C  
HETATM   11  C   UNL     1      -9.111   6.376  66.477  1.00  0.00    -0.162 C  
BRANCH  11  12
HETATM   12  C   UNL     1     -10.345   5.516  66.397  1.00  0.00    -0.272 C  
BRANCH  12  13
HETATM   13  C   UNL     1      -9.983   4.067  66.051  1.00  0.00    -0.138 C  
HETATM   14  C   UNL     1     -10.355   3.641  64.625  1.00  0.00    -0.109 C  
HETATM   15  C   UNL     1      -9.510   2.394  64.411  1.00  0.00    -0.139 C  
HETATM   16  O   UNL     1      -9.964   4.619  63.663  1.00  0.00    -0.373 OA 
HETATM   17  C   UNL     1      -8.155   2.787  64.998  1.00  0.00    -0.083 C  
HETATM   18  H   UNL     1     -10.194   4.354  62.779  1.00  0.00     0.000 HD 
HETATM   19  C   UNL     1      -8.460   3.785  66.146  1.00  0.00    -0.110 C  
HETATM   20  O   UNL     1      -7.364   3.430  63.996  1.00  0.00    -0.057 OA 
HETATM   21  H   UNL     1      -6.522   3.673  64.361  1.00  0.00     0.000 HD 
BRANCH  19  22
HETATM   22  C   UNL     1      -8.008   3.260  67.495  1.00  0.00    -0.077 C  
HETATM   23  C   UNL     1      -7.861   4.008  68.605  1.00  0.00    -0.068 C  
BRANCH  23  24
HETATM   24  C   UNL     1      -7.533   3.466  69.975  1.00  0.00    -0.044 C  
HETATM   25  F   UNL     1      -6.455   2.638  69.899  1.00  0.00    -0.026 F  
HETATM   26  F   UNL     1      -8.572   2.709  70.421  1.00  0.00    -0.071 F  
BRANCH  24  27
HETATM   27  C   UNL     1      -7.246   4.589  70.985  1.00  0.00    -0.044 C  
BRANCH  27  28
HETATM   28  O   UNL     1      -7.925   4.346  72.225  1.00  0.00    -0.091 OA 
BRANCH  28  29
HETATM   29  C   UNL     1      -8.754   5.351  72.647  1.00  0.00    -0.123 A  
HETATM   30  C   UNL     1     -10.083   4.983  72.862  1.00  0.00    -0.206 A  
HETATM   31  C   UNL     1     -11.017   5.927  73.296  1.00  0.00    -0.267 A  
HETATM   32  C   UNL     1     -10.620   7.241  73.532  1.00  0.00    -0.408 A  
HETATM   33  C   UNL     1      -9.290   7.610  73.339  1.00  0.00    -0.324 A  
HETATM   34  C   UNL     1      -8.356   6.667  72.899  1.00  0.00    -0.121 A  
ENDBRANCH  28  29
ENDBRANCH  27  28
ENDBRANCH  24  27
ENDBRANCH  23  24
ENDBRANCH  19  22
ENDBRANCH  12  13
ENDBRANCH  11  12
ENDBRANCH   9  10
ENDBRANCH   8   9
ENDBRANCH   7   8
ENDBRANCH   5   7
ENDBRANCH   4   5
ENDBRANCH   2   4
TORSDOF 13
ENDMDL
MODEL      331
REMARK 921   NORMALIZED FREE ENERGY PREDICTED BY IDOCK:   -2.24 KCAL/MOL
REMARK 922        TOTAL FREE ENERGY PREDICTED BY IDOCK:   -6.77 KCAL/MOL
REMARK 923 INTER-LIGAND FREE ENERGY PREDICTED BY IDOCK:   -5.98 KCAL/MOL
REMARK 924 INTRA-LIGAND FREE ENERGY PREDICTED BY IDOCK:   -0.79 KCAL/MOL
REMARK 927      BINDING AFFINITY PREDICTED BY RF-SCORE:    0.00 PKD
ROOT
HETATM    1  C   UNL     1      -7.562  13.716  68.518  1.00  0.00    -0.130 C  
HETATM    2  C   UNL     1      -6.064  13.428  68.546  1.00  0.00    -0.085 C  
HETATM    3  C   UNL     1      -5.270  14.656  68.119  1.00  0.00    -0.119 C  
ENDROOT
BRANCH   2   4
HETATM    4  O   UNL     1      -5.666  13.099  69.889  1.00  0.00    -0.102 OA 
BRANCH   4   5
HETATM    5  C   UNL     1      -5.616  11.768  70.175  1.00  0.00    -0.131 C  
HETATM    6  O   UNL     1      -5.883  11.265  71.257  1.00  0.00    -0.371 OA 
BRANCH   5   7
HETATM    7  C   UNL     1      -5.133  10.999  68.973  1.00  0.00    -0.041 C  
BRANCH   7   8
HETATM    8  C   UNL     1      -6.273  10.194  68.352  1.00  0.00    -0.048 C  
BRANCH   8   9
HETATM    9  C   UNL     1      -6.034   9.994  66.858  1.00  0.00    -0.055 C  
BRANCH   9  10
HETATM   10  C   UNL     1      -5.558   8.606  66.545  1.00  0.00    -0.042 C  
HETATM   11  C   UNL     1      -6.131   7.465  66.960  1.00  0.00    -0.046 C  
BRANCH  11  12
HETATM   12  C   UNL     1      -7.362   7.348  67.820  1.00  0.00    -0.092 C  
BRANCH  12  13
HETATM   13  C   UNL     1      -8.598   7.034  66.969  1.00  0.00    -0.122 C  
HETATM   14  C   UNL     1      -8.685   5.581  66.484  1.00  0.00    -0.119 C  
HETATM   15  C   UNL     1     -10.147   5.441  66.091  1.00  0.00    -0.173 C  
HETATM   16  O   UNL     1      -8.412   4.656  67.535  1.00  0.00    -0.104 OA 
HETATM   17  C   UNL     1     -10.883   6.142  67.232  1.00  0.00    -0.352 C  
HETATM   18  H   UNL     1      -8.466   3.756  67.233  1.00  0.00     0.000 HD 
HETATM   19  C   UNL     1      -9.931   7.259  67.732  1.00  0.00    -0.205 C  
HETATM   20  O   UNL     1     -11.133   5.211  68.287  1.00  0.00     0.404 OA 
HETATM   21  H   UNL     1     -11.591   5.647  68.997  1.00  0.00     0.000 HD 
BRANCH  19  22
HETATM   22  C   UNL     1     -10.526   8.642  67.548  1.00  0.00    -0.335 C  
HETATM   23  C   UNL     1      -9.818   9.787  67.507  1.00  0.00    -0.209 C  
BRANCH  23  24
HETATM   24  C   UNL     1     -10.395  11.148  67.200  1.00  0.00    -0.212 C  
HETATM   25  F   UNL     1     -11.401  11.029  66.289  1.00  0.00    -0.258 F  
HETATM   26  F   UNL     1      -9.438  11.923  66.620  1.00  0.00    -0.188 F  
BRANCH  24  27
HETATM   27  C   UNL     1     -10.927  11.846  68.462  1.00  0.00    -0.235 C  
BRANCH  27  28
HETATM   28  O   UNL     1     -12.033  11.120  69.018  1.00  0.00    -0.333 OA 
BRANCH  28  29
HETATM   29  C   UNL     1     -11.730  10.316  70.084  1.00  0.00    -0.284 A  
HETATM   30  C   UNL     1     -12.816   9.922  70.868  1.00  0.00    -0.360 A  
HETATM   31  C   UNL     1     -12.625   9.098  71.979  1.00  0.00    -0.463 A  
HETATM   32  C   UNL     1     -11.346   8.651  72.302  1.00  0.00    -0.411 A  
HETATM   33  C   UNL     1     -10.260   9.023  71.511  1.00  0.00    -0.414 A  
HETATM   34  C   UNL     1     -10.450   9.853  70.402  1.00  0.00    -0.347 A  
ENDBRANCH  28  29
ENDBRANCH  27  28
ENDBRANCH  24  27
ENDBRANCH  23  24
ENDBRANCH  19  22
ENDBRANCH  12  13
ENDBRANCH  11  12
ENDBRANCH   9  10
ENDBRANCH   8   9
ENDBRANCH   7   8
ENDBRANCH   5   7
ENDBRANCH   4   5
ENDBRANCH   2   4
TORSDOF 13
ENDMDL
MODEL      332
REMARK 921   NORMALIZED FREE ENERGY PREDICTED BY IDOCK:   -2.21 KCAL/MOL
REMARK 922        TOTAL FREE ENERGY PREDICTED BY IDOCK:   -6.73 KCAL/MOL
REMARK 923 INTER-LIGAND FREE ENERGY PREDICTED BY IDOCK:   -5.49 KCAL/MOL
REMARK 924 INTRA-LIGAND FREE ENERGY PREDICTED BY IDOCK:   -1.23 KCAL/MOL
REMARK 927      BINDING AFFINITY PREDICTED BY RF-SCORE:    0.00 PKD
ROOT
HETATM    1  C   UNL     1      -9.322  14.815  68.345  1.00  0.00    -0.197 C  
HETATM    2  C   UNL     1     -10.235  14.123  67.338  1.00  0.00    -0.244 C  
HETATM    3  C   UNL     1      -9.425  13.273  66.368  1.00  0.00    -0.225 C  
ENDROOT
BRANCH   2   4
HETATM    4  O   UNL     1     -11.138  13.246  68.035  1.00  0.00    -0.239 OA 
BRANCH   4   5
HETATM    5  C   UNL     1     -11.601  12.188  67.313  1.00  0.00    -0.334 C  
HETATM    6  O   UNL     1     -12.063  12.250  66.183  1.00  0.00    -0.625 OA 
BRANCH   5   7
HETATM    7  C   UNL     1     -11.509  10.926  68.129  1.00  0.00    -0.368 C  
BRANCH   7   8
HETATM    8  C   UNL     1     -10.218  10.173  67.816  1.00  0.00    -0.232 C  
BRANCH   8   9
HETATM    9  C   UNL     1     -10.479   8.670  67.747  1.00  0.00    -0.287 C  
BRANCH   9  10
HETATM   10  C   UNL     1      -9.207   7.875  67.791  1.00  0.00    -0.144 C  
HETATM   11  C   UNL     1      -9.068   6.639  68.295  1.00  0.00    -0.123 C  
BRANCH  11  12
HETATM   12  C   UNL     1     -10.156   5.803  68.917  1.00  0.00    -0.242 C  
BRANCH  12  13
HETATM   13  C   UNL     1      -9.570   4.571  69.616  1.00  0.00    -0.270 C  
HETATM   14  C   UNL     1      -9.634   3.280  68.790  1.00  0.00    -0.037 C  
HETATM   15  C   UNL     1      -8.624   2.380  69.485  1.00  0.00    -0.111 C  
HETATM   16  O   UNL     1      -9.200   3.489  67.448  1.00  0.00    -0.163 OA 
HETATM   17  C   UNL     1      -7.448   3.320  69.752  1.00  0.00    -0.044 C  
HETATM   18  H   UNL     1      -9.240   2.689  66.936  1.00  0.00     0.000 HD 
HETATM   19  C   UNL     1      -8.064   4.728  69.957  1.00  0.00    -0.069 C  
HETATM   20  O   UNL     1      -6.576   3.333  68.619  1.00  0.00    -0.039 OA 
HETATM   21  H   UNL     1      -5.845   3.917  68.785  1.00  0.00     0.000 HD 
BRANCH  19  22
HETATM   22  C   UNL     1      -7.795   5.273  71.346  1.00  0.00    -0.108 C  
HETATM   23  C   UNL     1      -7.424   6.537  71.621  1.00  0.00    -0.089 C  
BRANCH  23  24
HETATM   24  C   UNL     1      -7.278   7.113  73.009  1.00  0.00    -0.073 C  
HETATM   25  F   UNL     1      -7.141   8.465  72.937  1.00  0.00    -0.115 F  
HETATM   26  F   UNL     1      -6.136   6.637  73.577  1.00  0.00    -0.058 F  
BRANCH  24  27
HETATM   27  C   UNL     1      -8.480   6.767  73.905  1.00  0.00    -0.134 C  
BRANCH  27  28
HETATM   28  O   UNL     1      -8.309   5.479  74.514  1.00  0.00    -0.106 OA 
BRANCH  28  29
HETATM   29  C   UNL     1      -9.071   4.474  73.983  1.00  0.00    -0.107 A  
HETATM   30  C   UNL     1      -8.518   3.194  74.065  1.00  0.00    -0.073 A  
HETATM   31  C   UNL     1      -9.209   2.091  73.558  1.00  0.00    -0.080 A  
HETATM   32  C   UNL     1     -10.465   2.263  72.979  1.00  0.00    -0.243 A  
HETATM   33  C   UNL     1     -11.031   3.535  72.913  1.00  0.00    -0.076 A  
HETATM   34  C   UNL     1     -10.337   4.640  73.415  1.00  0.00    -0.239 A  
ENDBRANCH  28  29
ENDBRANCH  27  28
ENDBRANCH  24  27
ENDBRANCH  23  24
ENDBRANCH  19  22
ENDBRANCH  12  13
ENDBRANCH  11  12
ENDBRANCH   9  10
ENDBRANCH   8   9
ENDBRANCH   7   8
ENDBRANCH   5   7
ENDBRANCH   4   5
ENDBRANCH   2   4
TORSDOF 13
ENDMDL
MODEL      333
REMARK 921   NORMALIZED FREE ENERGY PREDICTED BY IDOCK:   -2.21 KCAL/MOL
REMARK 922        TOTAL FREE ENERGY PREDICTED BY IDOCK:   -6.73 KCAL/MOL
REMARK 923 INTER-LIGAND FREE ENERGY PREDICTED BY IDOCK:   -5.52 KCAL/MOL
REMARK 924 INTRA-LIGAND FREE ENERGY PREDICTED BY IDOCK:   -1.21 KCAL/MOL
REMARK 927      BINDING AFFINITY PREDICTED BY RF-SCORE:    0.00 PKD
ROOT
HETATM    1  C   UNL     1      -8.851  19.372  68.850  1.00  0.00    -0.331 C  
HETATM    2  C   UNL     1      -9.005  18.264  67.814  1.00  0.00    -0.267 C  
HETATM    3  C   UNL     1     -10.477  17.966  67.557  1.00  0.00    -0.398 C  
ENDROOT
BRANCH   2   4
HETATM    4  O   UNL     1      -8.424  18.689  66.569  1.00  0.00    -0.278 OA 
BRANCH   4   5
HETATM    5  C   UNL     1      -7.152  19.171  66.651  1.00  0.00    -0.209 C  
HETATM    6  O   UNL     1      -6.739  20.181  66.097  1.00  0.00    -0.220 OA 
BRANCH   5   7
HETATM    7  C   UNL     1      -6.304  18.251  67.488  1.00  0.00    -0.186 C  
BRANCH   7   8
HETATM    8  C   UNL     1      -6.066  16.927  66.763  1.00  0.00    -0.216 C  
BRANCH   8   9
HETATM    9  C   UNL     1      -5.780  15.813  67.766  1.00  0.00    -0.164 C  
BRANCH   9  10
HETATM   10  C   UNL     1      -6.968  15.518  68.635  1.00  0.00    -0.116 C  
HETATM   11  C   UNL     1      -7.774  14.450  68.531  1.00  0.00    -0.135 C  
BRANCH  11  12
HETATM   12  C   UNL     1      -7.651  13.336  67.525  1.00  0.00    -0.169 C  
BRANCH  12  13
HETATM   13  C   UNL     1      -8.742  12.281  67.738  1.00  0.00    -0.174 C  
HETATM   14  C   UNL     1      -9.800  12.662  68.782  1.00  0.00     0.029 C  
HETATM   15  C   UNL     1     -10.944  11.710  68.469  1.00  0.00    -0.264 C  
HETATM   16  O   UNL     1     -10.265  13.998  68.598  1.00  0.00    -0.236 OA 
HETATM   17  C   UNL     1     -11.013  11.738  66.942  1.00  0.00    -0.285 C  
HETATM   18  H   UNL     1     -10.921  14.234  69.245  1.00  0.00     0.000 HD 
HETATM   19  C   UNL     1      -9.563  11.990  66.454  1.00  0.00    -0.239 C  
HETATM   20  O   UNL     1     -11.859  12.809  66.518  1.00  0.00    -0.386 OA 
HETATM   21  H   UNL     1     -11.902  12.827  65.569  1.00  0.00     0.000 HD 
BRANCH  19  22
HETATM   22  C   UNL     1      -9.031  10.838  65.624  1.00  0.00    -0.205 C  
HETATM   23  C   UNL     1      -7.727  10.578  65.411  1.00  0.00    -0.106 C  
BRANCH  23  24
HETATM   24  C   UNL     1      -7.195   9.363  64.690  1.00  0.00    -0.104 C  
HETATM   25  F   UNL     1      -6.702   9.725  63.474  1.00  0.00    -0.099 F  
HETATM   26  F   UNL     1      -8.217   8.497  64.451  1.00  0.00    -0.141 F  
BRANCH  24  27
HETATM   27  C   UNL     1      -6.096   8.651  65.497  1.00  0.00    -0.052 C  
BRANCH  27  28
HETATM   28  O   UNL     1      -6.654   7.979  66.635  1.00  0.00    -0.054 OA 
BRANCH  28  29
HETATM   29  C   UNL     1      -6.708   8.719  67.785  1.00  0.00    -0.066 A  
HETATM   30  C   UNL     1      -5.537   9.405  68.114  1.00  0.00    -0.037 A  
HETATM   31  C   UNL     1      -5.478  10.194  69.265  1.00  0.00    -0.038 A  
HETATM   32  C   UNL     1      -6.598  10.313  70.085  1.00  0.00    -0.138 A  
HETATM   33  C   UNL     1      -7.777   9.647  69.751  1.00  0.00    -0.133 A  
HETATM   34  C   UNL     1      -7.834   8.852  68.602  1.00  0.00    -0.102 A  
ENDBRANCH  28  29
ENDBRANCH  27  28
ENDBRANCH  24  27
ENDBRANCH  23  24
ENDBRANCH  19  22
ENDBRANCH  12  13
ENDBRANCH  11  12
ENDBRANCH   9  10
ENDBRANCH   8   9
ENDBRANCH   7   8
ENDBRANCH   5   7
ENDBRANCH   4   5
ENDBRANCH   2   4
TORSDOF 13
ENDMDL
MODEL      334
REMARK 921   NORMALIZED FREE ENERGY PREDICTED BY IDOCK:   -2.19 KCAL/MOL
REMARK 922        TOTAL FREE ENERGY PREDICTED BY IDOCK:   -6.70 KCAL/MOL
REMARK 923 INTER-LIGAND FREE ENERGY PREDICTED BY IDOCK:   -5.97 KCAL/MOL
REMARK 924 INTRA-LIGAND FREE ENERGY PREDICTED BY IDOCK:   -0.73 KCAL/MOL
REMARK 927      BINDING AFFINITY PREDICTED BY RF-SCORE:    0.00 PKD
ROOT
HETATM    1  C   UNL     1      -8.189  13.293  67.606  1.00  0.00    -0.179 C  
HETATM    2  C   UNL     1      -9.682  13.596  67.526  1.00  0.00    -0.227 C  
HETATM    3  C   UNL     1     -10.120  13.776  66.078  1.00  0.00    -0.320 C  
ENDROOT
BRANCH   2   4
HETATM    4  O   UNL     1     -10.424  12.491  68.071  1.00  0.00    -0.207 OA 
BRANCH   4   5
HETATM    5  C   UNL     1     -11.337  11.927  67.231  1.00  0.00    -0.329 C  
HETATM    6  O   UNL     1     -12.253  12.521  66.679  1.00  0.00    -0.552 OA 
BRANCH   5   7
HETATM    7  C   UNL     1     -11.088  10.447  67.116  1.00  0.00    -0.195 C  
BRANCH   7   8
HETATM    8  C   UNL     1      -9.640  10.171  66.718  1.00  0.00    -0.222 C  
BRANCH   8   9
HETATM    9  C   UNL     1      -9.577   9.082  65.649  1.00  0.00    -0.237 C  
BRANCH   9  10
HETATM   10  C   UNL     1      -8.345   8.236  65.780  1.00  0.00    -0.142 C  
HETATM   11  C   UNL     1      -8.314   6.939  66.125  1.00  0.00    -0.130 C  
BRANCH  11  12
HETATM   12  C   UNL     1      -9.503   6.075  66.452  1.00  0.00    -0.174 C  
BRANCH  12  13
HETATM   13  C   UNL     1      -9.091   4.605  66.595  1.00  0.00    -0.119 C  
HETATM   14  C   UNL     1      -9.564   3.697  65.452  1.00  0.00    -0.156 C  
HETATM   15  C   UNL     1      -8.672   2.474  65.600  1.00  0.00    -0.120 C  
HETATM   16  O   UNL     1      -9.316   4.282  64.176  1.00  0.00    -0.151 OA 
HETATM   17  C   UNL     1      -7.295   3.078  65.870  1.00  0.00    -0.072 C  
HETATM   18  H   UNL     1      -9.609   3.719  63.468  1.00  0.00     0.000 HD 
HETATM   19  C   UNL     1      -7.552   4.408  66.625  1.00  0.00    -0.089 C  
HETATM   20  O   UNL     1      -6.634   3.344  64.632  1.00  0.00    -0.034 OA 
HETATM   21  H   UNL     1      -5.778   3.719  64.800  1.00  0.00     0.000 HD 
BRANCH  19  22
HETATM   22  C   UNL     1      -6.954   4.401  68.018  1.00  0.00    -0.056 C  
HETATM   23  C   UNL     1      -6.910   5.463  68.845  1.00  0.00    -0.055 C  
BRANCH  23  24
HETATM   24  C   UNL     1      -6.428   5.425  70.275  1.00  0.00    -0.034 C  
HETATM   25  F   UNL     1      -5.842   6.610  70.597  1.00  0.00    -0.022 F  
HETATM   26  F   UNL     1      -5.466   4.470  70.401  1.00  0.00    -0.009 F  
BRANCH  24  27
HETATM   27  C   UNL     1      -7.572   5.135  71.260  1.00  0.00    -0.095 C  
BRANCH  27  28
HETATM   28  O   UNL     1      -8.730   4.646  70.568  1.00  0.00    -0.097 OA 
BRANCH  28  29
HETATM   29  C   UNL     1      -9.887   5.341  70.796  1.00  0.00    -0.196 A  
HETATM   30  C   UNL     1     -10.454   5.949  69.674  1.00  0.00    -0.346 A  
HETATM   31  C   UNL     1     -11.637   6.682  69.788  1.00  0.00    -0.354 A  
HETATM   32  C   UNL     1     -12.267   6.798  71.025  1.00  0.00    -0.405 A  
HETATM   33  C   UNL     1     -11.717   6.176  72.146  1.00  0.00    -0.361 A  
HETATM   34  C   UNL     1     -10.530   5.447  72.032  1.00  0.00    -0.278 A  
ENDBRANCH  28  29
ENDBRANCH  27  28
ENDBRANCH  24  27
ENDBRANCH  23  24
ENDBRANCH  19  22
ENDBRANCH  12  13
ENDBRANCH  11  12
ENDBRANCH   9  10
ENDBRANCH   8   9
ENDBRANCH   7   8
ENDBRANCH   5   7
ENDBRANCH   4   5
ENDBRANCH   2   4
TORSDOF 13
ENDMDL
MODEL      335
REMARK 921   NORMALIZED FREE ENERGY PREDICTED BY IDOCK:   -2.19 KCAL/MOL
REMARK 922        TOTAL FREE ENERGY PREDICTED BY IDOCK:   -6.69 KCAL/MOL
REMARK 923 INTER-LIGAND FREE ENERGY PREDICTED BY IDOCK:   -5.14 KCAL/MOL
REMARK 924 INTRA-LIGAND FREE ENERGY PREDICTED BY IDOCK:   -1.55 KCAL/MOL
REMARK 927      BINDING AFFINITY PREDICTED BY RF-SCORE:    0.00 PKD
ROOT
HETATM    1  C   UNL     1     -11.533   7.205  68.409  1.00  0.00     0.451 C  
HETATM    2  C   UNL     1     -10.493   6.633  69.366  1.00  0.00    -0.219 C  
HETATM    3  C   UNL     1     -10.008   5.271  68.886  1.00  0.00    -0.250 C  
ENDROOT
BRANCH   2   4
HETATM    4  O   UNL     1      -9.353   7.509  69.412  1.00  0.00    -0.153 OA 
BRANCH   4   5
HETATM    5  C   UNL     1      -8.179   6.924  69.781  1.00  0.00    -0.131 C  
HETATM    6  O   UNL     1      -8.029   5.738  70.040  1.00  0.00    -0.095 OA 
BRANCH   5   7
HETATM    7  C   UNL     1      -7.092   7.961  69.876  1.00  0.00    -0.061 C  
BRANCH   7   8
HETATM    8  C   UNL     1      -7.690   9.355  70.056  1.00  0.00    -0.124 C  
BRANCH   8   9
HETATM    9  C   UNL     1      -6.766  10.414  69.460  1.00  0.00    -0.081 C  
BRANCH   9  10
HETATM   10  C   UNL     1      -6.142  11.277  70.518  1.00  0.00    -0.070 C  
HETATM   11  C   UNL     1      -5.761  12.556  70.367  1.00  0.00    -0.170 C  
BRANCH  11  12
HETATM   12  C   UNL     1      -5.881  13.379  69.111  1.00  0.00    -0.082 C  
BRANCH  12  13
HETATM   13  C   UNL     1      -7.249  14.064  69.032  1.00  0.00    -0.092 C  
HETATM   14  C   UNL     1      -7.207  15.590  69.190  1.00  0.00    -0.174 C  
HETATM   15  C   UNL     1      -8.553  16.026  68.633  1.00  0.00    -0.206 C  
HETATM   16  O   UNL     1      -6.180  16.175  68.391  1.00  0.00    -0.108 OA 
HETATM   17  C   UNL     1      -8.704  15.171  67.375  1.00  0.00    -0.190 C  
HETATM   18  H   UNL     1      -6.154  17.120  68.488  1.00  0.00     0.000 HD 
HETATM   19  C   UNL     1      -7.959  13.843  67.670  1.00  0.00    -0.181 C  
HETATM   20  O   UNL     1      -8.091  15.833  66.267  1.00  0.00    -0.297 OA 
HETATM   21  H   UNL     1      -8.185  15.302  65.485  1.00  0.00     0.000 HD 
BRANCH  19  22
HETATM   22  C   UNL     1      -8.891  12.647  67.643  1.00  0.00    -0.184 C  
HETATM   23  C   UNL     1     -10.019  12.530  68.370  1.00  0.00    -0.212 C  
BRANCH  23  24
HETATM   24  C   UNL     1     -11.010  11.398  68.251  1.00  0.00    -0.216 C  
HETATM   25  F   UNL     1     -12.278  11.877  68.386  1.00  0.00    -0.375 F  
HETATM   26  F   UNL     1     -10.817  10.520  69.272  1.00  0.00    -0.191 F  
BRANCH  24  27
HETATM   27  C   UNL     1     -10.883  10.660  66.908  1.00  0.00    -0.205 C  
BRANCH  27  28
HETATM   28  O   UNL     1      -9.941   9.582  67.005  1.00  0.00    -0.186 OA 
BRANCH  28  29
HETATM   29  C   UNL     1      -9.290   9.265  65.844  1.00  0.00    -0.236 A  
HETATM   30  C   UNL     1      -9.538  10.116  64.764  1.00  0.00    -0.378 A  
HETATM   31  C   UNL     1      -8.925   9.889  63.530  1.00  0.00    -0.277 A  
HETATM   32  C   UNL     1      -8.049   8.818  63.374  1.00  0.00    -0.170 A  
HETATM   33  C   UNL     1      -7.781   7.977  64.454  1.00  0.00    -0.130 A  
HETATM   34  C   UNL     1      -8.399   8.200  65.688  1.00  0.00    -0.148 A  
ENDBRANCH  28  29
ENDBRANCH  27  28
ENDBRANCH  24  27
ENDBRANCH  23  24
ENDBRANCH  19  22
ENDBRANCH  12  13
ENDBRANCH  11  12
ENDBRANCH   9  10
ENDBRANCH   8   9
ENDBRANCH   7   8
ENDBRANCH   5   7
ENDBRANCH   4   5
ENDBRANCH   2   4
TORSDOF 13
ENDMDL
MODEL      336
REMARK 921   NORMALIZED FREE ENERGY PREDICTED BY IDOCK:   -2.11 KCAL/MOL
REMARK 922        TOTAL FREE ENERGY PREDICTED BY IDOCK:   -6.56 KCAL/MOL
REMARK 923 INTER-LIGAND FREE ENERGY PREDICTED BY IDOCK:   -4.82 KCAL/MOL
REMARK 924 INTRA-LIGAND FREE ENERGY PREDICTED BY IDOCK:   -1.74 KCAL/MOL
REMARK 927      BINDING AFFINITY PREDICTED BY RF-SCORE:    0.00 PKD
ROOT
HETATM    1  C   UNL     1     -12.151  15.637  64.803  1.00  0.00     0.140 C  
HETATM    2  C   UNL     1     -11.058  16.434  65.507  1.00  0.00     0.007 C  
HETATM    3  C   UNL     1      -9.767  15.629  65.585  1.00  0.00    -0.348 C  
ENDROOT
BRANCH   2   4
HETATM    4  O   UNL     1     -10.781  17.630  64.757  1.00  0.00    -0.540 OA 
BRANCH   4   5
HETATM    5  C   UNL     1     -10.806  18.789  65.473  1.00  0.00     0.122 C  
HETATM    6  O   UNL     1     -11.609  19.699  65.321  1.00  0.00     0.351 OA 
BRANCH   5   7
HETATM    7  C   UNL     1      -9.663  18.815  66.453  1.00  0.00    -0.378 C  
BRANCH   7   8
HETATM    8  C   UNL     1     -10.008  19.681  67.663  1.00  0.00    -0.510 C  
BRANCH   8   9
HETATM    9  C   UNL     1      -9.950  18.855  68.945  1.00  0.00    -0.437 C  
BRANCH   9  10
HETATM   10  C   UNL     1      -9.442  17.465  68.697  1.00  0.00    -0.280 C  
HETATM   11  C   UNL     1      -9.571  16.419  69.529  1.00  0.00    -0.045 C  
BRANCH  11  12
HETATM   12  C   UNL     1     -10.248  16.429  70.874  1.00  0.00     1.471 C  
BRANCH  12  13
HETATM   13  C   UNL     1     -11.009  15.121  71.115  1.00  0.00    -0.187 C  
HETATM   14  C   UNL     1     -11.907  15.127  72.360  1.00  0.00    -0.390 C  
HETATM   15  C   UNL     1     -12.843  13.955  72.109  1.00  0.00    -0.392 C  
HETATM   16  O   UNL     1     -12.689  16.317  72.441  1.00  0.00    -0.411 OA 
HETATM   17  C   UNL     1     -13.207  14.110  70.633  1.00  0.00    -0.063 C  
HETATM   18  H   UNL     1     -13.245  16.320  73.212  1.00  0.00     0.000 HD 
HETATM   19  C   UNL     1     -11.973  14.759  69.954  1.00  0.00    -0.378 C  
HETATM   20  O   UNL     1     -14.340  14.972  70.504  1.00  0.00    -0.263 OA 
HETATM   21  H   UNL     1     -14.566  15.068  69.587  1.00  0.00     0.000 HD 
BRANCH  19  22
HETATM   22  C   UNL     1     -11.362  13.859  68.897  1.00  0.00    -0.319 C  
HETATM   23  C   UNL     1     -11.641  12.551  68.743  1.00  0.00    -0.366 C  
BRANCH  23  24
HETATM   24  C   UNL     1     -11.129  11.686  67.617  1.00  0.00    -0.255 C  
HETATM   25  F   UNL     1     -10.912  12.448  66.510  1.00  0.00    -0.263 F  
HETATM   26  F   UNL     1     -12.082  10.775  67.279  1.00  0.00     0.137 F  
BRANCH  24  27
HETATM   27  C   UNL     1      -9.831  10.954  67.997  1.00  0.00    -0.171 C  
BRANCH  27  28
HETATM   28  O   UNL     1     -10.111   9.622  68.451  1.00  0.00    -0.163 OA 
BRANCH  28  29
HETATM   29  C   UNL     1      -9.332   8.639  67.902  1.00  0.00    -0.142 A  
HETATM   30  C   UNL     1      -8.080   8.463  68.495  1.00  0.00    -0.123 A  
HETATM   31  C   UNL     1      -7.203   7.487  68.018  1.00  0.00    -0.090 A  
HETATM   32  C   UNL     1      -7.581   6.671  66.954  1.00  0.00    -0.095 A  
HETATM   33  C   UNL     1      -8.838   6.828  66.371  1.00  0.00    -0.153 A  
HETATM   34  C   UNL     1      -9.714   7.809  66.844  1.00  0.00    -0.282 A  
ENDBRANCH  28  29
ENDBRANCH  27  28
ENDBRANCH  24  27
ENDBRANCH  23  24
ENDBRANCH  19  22
ENDBRANCH  12  13
ENDBRANCH  11  12
ENDBRANCH   9  10
ENDBRANCH   8   9
ENDBRANCH   7   8
ENDBRANCH   5   7
ENDBRANCH   4   5
ENDBRANCH   2   4
TORSDOF 13
ENDMDL
MODEL      337
REMARK 921   NORMALIZED FREE ENERGY PREDICTED BY IDOCK:   -2.00 KCAL/MOL
REMARK 922        TOTAL FREE ENERGY PREDICTED BY IDOCK:   -6.36 KCAL/MOL
REMARK 923 INTER-LIGAND FREE ENERGY PREDICTED BY IDOCK:   -6.02 KCAL/MOL
REMARK 924 INTRA-LIGAND FREE ENERGY PREDICTED BY IDOCK:   -0.34 KCAL/MOL
REMARK 927      BINDING AFFINITY PREDICTED BY RF-SCORE:    0.00 PKD
ROOT
HETATM    1  C   UNL     1     -11.032   5.942  66.269  1.00  0.00     0.133 C  
HETATM    2  C   UNL     1     -11.159   6.444  67.703  1.00  0.00    -0.289 C  
HETATM    3  C   UNL     1     -10.695   5.380  68.691  1.00  0.00    -0.088 C  
ENDROOT
BRANCH   2   4
HETATM    4  O   UNL     1     -10.319   7.598  67.882  1.00  0.00    -0.195 OA 
BRANCH   4   5
HETATM    5  C   UNL     1      -9.541   7.927  66.812  1.00  0.00    -0.215 C  
HETATM    6  O   UNL     1      -9.840   8.728  65.938  1.00  0.00    -0.225 OA 
BRANCH   5   7
HETATM    7  C   UNL     1      -8.270   7.120  66.830  1.00  0.00    -0.117 C  
BRANCH   7   8
HETATM    8  C   UNL     1      -7.503   7.349  68.131  1.00  0.00    -0.105 C  
BRANCH   8   9
HETATM    9  C   UNL     1      -7.594   6.117  69.029  1.00  0.00    -0.091 C  
BRANCH   9  10
HETATM   10  C   UNL     1      -6.554   6.130  70.110  1.00  0.00    -0.044 C  
HETATM   11  C   UNL     1      -6.711   6.624  71.348  1.00  0.00    -0.058 C  
BRANCH  11  12
HETATM   12  C   UNL     1      -7.958   7.263  71.900  1.00  0.00    -0.091 C  
BRANCH  12  13
HETATM   13  C   UNL     1      -9.158   6.316  71.783  1.00  0.00    -0.144 C  
HETATM   14  C   UNL     1      -8.813   4.830  71.944  1.00  0.00    -0.124 C  
HETATM   15  C   UNL     1     -10.166   4.198  72.237  1.00  0.00    -0.234 C  
HETATM   16  O   UNL     1      -7.960   4.603  73.064  1.00  0.00    -0.097 OA 
HETATM   17  C   UNL     1     -10.798   5.173  73.229  1.00  0.00    -0.295 C  
HETATM   18  H   UNL     1      -7.747   3.682  73.163  1.00  0.00     0.000 HD 
HETATM   19  C   UNL     1     -10.240   6.574  72.865  1.00  0.00    -0.212 C  
HETATM   20  O   UNL     1     -10.408   4.828  74.560  1.00  0.00    -0.245 OA 
HETATM   21  H   UNL     1     -10.801   5.434  75.176  1.00  0.00     0.000 HD 
BRANCH  19  22
HETATM   22  C   UNL     1     -11.334   7.531  72.434  1.00  0.00    -0.360 C  
HETATM   23  C   UNL     1     -11.242   8.395  71.405  1.00  0.00    -0.316 C  
BRANCH  23  24
HETATM   24  C   UNL     1     -12.373   9.257  70.897  1.00  0.00    -0.167 C  
HETATM   25  F   UNL     1     -12.771  10.119  71.873  1.00  0.00    -0.442 F  
HETATM   26  F   UNL     1     -13.447   8.471  70.613  1.00  0.00     0.106 F  
BRANCH  24  27
HETATM   27  C   UNL     1     -11.972  10.053  69.644  1.00  0.00     0.104 C  
BRANCH  27  28
HETATM   28  O   UNL     1     -11.349  11.293  70.005  1.00  0.00    -0.269 OA 
BRANCH  28  29
HETATM   29  C   UNL     1     -11.619  12.349  69.176  1.00  0.00    -0.314 A  
HETATM   30  C   UNL     1     -11.630  12.053  67.811  1.00  0.00    -0.400 A  
HETATM   31  C   UNL     1     -11.898  13.053  66.874  1.00  0.00    -0.442 A  
HETATM   32  C   UNL     1     -12.170  14.351  67.299  1.00  0.00    -0.248 A  
HETATM   33  C   UNL     1     -12.181  14.648  68.661  1.00  0.00    -0.138 A  
HETATM   34  C   UNL     1     -11.908  13.649  69.600  1.00  0.00    -0.396 A  
ENDBRANCH  28  29
ENDBRANCH  27  28
ENDBRANCH  24  27
ENDBRANCH  23  24
ENDBRANCH  19  22
ENDBRANCH  12  13
ENDBRANCH  11  12
ENDBRANCH   9  10
ENDBRANCH   8   9
ENDBRANCH   7   8
ENDBRANCH   5   7
ENDBRANCH   4   5
ENDBRANCH   2   4
TORSDOF 13
ENDMDL
MODEL      338
REMARK 921   NORMALIZED FREE ENERGY PREDICTED BY IDOCK:   -1.93 KCAL/MOL
REMARK 922        TOTAL FREE ENERGY PREDICTED BY IDOCK:   -6.24 KCAL/MOL
REMARK 923 INTER-LIGAND FREE ENERGY PREDICTED BY IDOCK:   -3.30 KCAL/MOL
REMARK 924 INTRA-LIGAND FREE ENERGY PREDICTED BY IDOCK:   -2.94 KCAL/MOL
REMARK 927      BINDING AFFINITY PREDICTED BY RF-SCORE:    0.00 PKD
ROOT
HETATM    1  C   UNL     1      -9.714   9.229  71.031  1.00  0.00    -0.341 C  
HETATM    2  C   UNL     1      -9.253   8.178  70.026  1.00  0.00    -0.155 C  
HETATM    3  C   UNL     1     -10.118   8.216  68.771  1.00  0.00    -0.211 C  
ENDROOT
BRANCH   2   4
HETATM    4  O   UNL     1      -7.899   8.458  69.629  1.00  0.00    -0.096 OA 
BRANCH   4   5
HETATM    5  C   UNL     1      -6.963   7.579  70.083  1.00  0.00    -0.059 C  
HETATM    6  O   UNL     1      -6.859   7.186  71.236  1.00  0.00    -0.058 OA 
BRANCH   5   7
HETATM    7  C   UNL     1      -6.032   7.192  68.964  1.00  0.00    -0.022 C  
BRANCH   7   8
HETATM    8  C   UNL     1      -6.794   7.063  67.647  1.00  0.00    -0.074 C  
BRANCH   8   9
HETATM    9  C   UNL     1      -5.908   7.474  66.474  1.00  0.00    -0.036 C  
BRANCH   9  10
HETATM   10  C   UNL     1      -6.706   8.049  65.340  1.00  0.00    -0.055 C  
HETATM   11  C   UNL     1      -7.251   7.353  64.329  1.00  0.00    -0.079 C  
BRANCH  11  12
HETATM   12  C   UNL     1      -7.171   5.863  64.129  1.00  0.00    -0.056 C  
BRANCH  12  13
HETATM   13  C   UNL     1      -8.532   5.201  64.376  1.00  0.00    -0.138 C  
HETATM   14  C   UNL     1      -9.123   4.487  63.154  1.00  0.00    -0.121 C  
HETATM   15  C   UNL     1     -10.177   3.578  63.769  1.00  0.00    -0.223 C  
HETATM   16  O   UNL     1      -8.154   3.671  62.499  1.00  0.00    -0.069 OA 
HETATM   17  C   UNL     1      -9.469   3.005  64.996  1.00  0.00    -0.121 C  
HETATM   18  H   UNL     1      -8.521   3.228  61.742  1.00  0.00     0.000 HD 
HETATM   19  C   UNL     1      -8.480   4.103  65.471  1.00  0.00    -0.110 C  
HETATM   20  O   UNL     1      -8.745   1.829  64.630  1.00  0.00    -0.090 OA 
HETATM   21  H   UNL     1      -8.306   1.472  65.393  1.00  0.00     0.000 HD 
BRANCH  19  22
HETATM   22  C   UNL     1      -8.805   4.600  66.866  1.00  0.00    -0.111 C  
HETATM   23  C   UNL     1      -9.481   3.901  67.797  1.00  0.00    -0.230 C  
BRANCH  23  24
HETATM   24  C   UNL     1      -9.695   4.345  69.224  1.00  0.00    -0.182 C  
HETATM   25  F   UNL     1     -10.891   4.986  69.334  1.00  0.00    -0.263 F  
HETATM   26  F   UNL     1      -8.738   5.251  69.563  1.00  0.00    -0.099 F  
BRANCH  24  27
HETATM   27  C   UNL     1      -9.656   3.163  70.206  1.00  0.00    -0.110 C  
BRANCH  27  28
HETATM   28  O   UNL     1      -8.382   2.503  70.160  1.00  0.00    -0.041 OA 
BRANCH  28  29
HETATM   29  C   UNL     1      -7.403   3.062  70.936  1.00  0.00    -0.033 A  
HETATM   30  C   UNL     1      -6.228   3.408  70.265  1.00  0.00    -0.023 A  
HETATM   31  C   UNL     1      -5.163   3.988  70.957  1.00  0.00     0.000 A  
HETATM   32  C   UNL     1      -5.275   4.239  72.323  1.00  0.00    -0.003 A  
HETATM   33  C   UNL     1      -6.453   3.916  72.994  1.00  0.00    -0.032 A  
HETATM   34  C   UNL     1      -7.517   3.329  72.303  1.00  0.00    -0.056 A  
ENDBRANCH  28  29
ENDBRANCH  27  28
ENDBRANCH  24  27
ENDBRANCH  23  24
ENDBRANCH  19  22
ENDBRANCH  12  13
ENDBRANCH  11  12
ENDBRANCH   9  10
ENDBRANCH   8   9
ENDBRANCH   7   8
ENDBRANCH   5   7
ENDBRANCH   4   5
ENDBRANCH   2   4
TORSDOF 13
ENDMDL
MODEL      339
REMARK 921   NORMALIZED FREE ENERGY PREDICTED BY IDOCK:   -1.85 KCAL/MOL
REMARK 922        TOTAL FREE ENERGY PREDICTED BY IDOCK:   -6.10 KCAL/MOL
REMARK 923 INTER-LIGAND FREE ENERGY PREDICTED BY IDOCK:   -5.90 KCAL/MOL
REMARK 924 INTRA-LIGAND FREE ENERGY PREDICTED BY IDOCK:   -0.19 KCAL/MOL
REMARK 927      BINDING AFFINITY PREDICTED BY RF-SCORE:    0.00 PKD
ROOT
HETATM    1  C   UNL     1     -11.235   6.570  66.991  1.00  0.00    -0.280 C  
HETATM    2  C   UNL     1     -10.161   6.479  68.069  1.00  0.00    -0.164 C  
HETATM    3  C   UNL     1     -10.241   5.145  68.800  1.00  0.00    -0.202 C  
ENDROOT
BRANCH   2   4
HETATM    4  O   UNL     1      -8.862   6.562  67.458  1.00  0.00    -0.114 OA 
BRANCH   4   5
HETATM    5  C   UNL     1      -8.566   5.569  66.573  1.00  0.00    -0.118 C  
HETATM    6  O   UNL     1      -8.652   5.655  65.356  1.00  0.00    -0.147 OA 
BRANCH   5   7
HETATM    7  C   UNL     1      -8.163   4.321  67.313  1.00  0.00    -0.100 C  
BRANCH   7   8
HETATM    8  C   UNL     1      -6.870   4.549  68.093  1.00  0.00    -0.055 C  
BRANCH   8   9
HETATM    9  C   UNL     1      -6.730   3.518  69.210  1.00  0.00    -0.037 C  
BRANCH   9  10
HETATM   10  C   UNL     1      -5.835   4.002  70.313  1.00  0.00    -0.017 C  
HETATM   11  C   UNL     1      -6.161   4.903  71.253  1.00  0.00    -0.018 C  
BRANCH  11  12
HETATM   12  C   UNL     1      -7.484   5.609  71.390  1.00  0.00    -0.095 C  
BRANCH  12  13
HETATM   13  C   UNL     1      -7.537   6.429  72.685  1.00  0.00    -0.103 C  
HETATM   14  C   UNL     1      -6.195   6.548  73.418  1.00  0.00    -0.063 C  
HETATM   15  C   UNL     1      -6.421   7.728  74.350  1.00  0.00    -0.106 C  
HETATM   16  O   UNL     1      -5.133   6.878  72.525  1.00  0.00    -0.034 OA 
HETATM   17  C   UNL     1      -7.150   8.737  73.464  1.00  0.00     0.174 C  
HETATM   18  H   UNL     1      -4.301   6.952  72.980  1.00  0.00     0.000 HD 
HETATM   19  C   UNL     1      -7.974   7.900  72.452  1.00  0.00    -0.151 C  
HETATM   20  O   UNL     1      -6.197   9.540  72.765  1.00  0.00    -0.287 OA 
HETATM   21  H   UNL     1      -6.650  10.168  72.214  1.00  0.00     0.000 HD 
BRANCH  19  22
HETATM   22  C   UNL     1      -9.465   8.135  72.595  1.00  0.00    -0.346 C  
HETATM   23  C   UNL     1     -10.404   7.674  71.747  1.00  0.00    -0.233 C  
BRANCH  23  24
HETATM   24  C   UNL     1     -11.894   7.801  71.957  1.00  0.00    -0.307 C  
HETATM   25  F   UNL     1     -12.151   8.168  73.242  1.00  0.00    -0.237 F  
HETATM   26  F   UNL     1     -12.480   6.586  71.777  1.00  0.00    -0.370 F  
BRANCH  24  27
HETATM   27  C   UNL     1     -12.525   8.823  70.997  1.00  0.00    -0.118 C  
BRANCH  27  28
HETATM   28  O   UNL     1     -12.453  10.148  71.543  1.00  0.00    -0.370 OA 
BRANCH  28  29
HETATM   29  C   UNL     1     -12.258  11.149  70.629  1.00  0.00    -0.397 A  
HETATM   30  C   UNL     1     -11.692  10.753  69.416  1.00  0.00    -0.378 A  
HETATM   31  C   UNL     1     -11.450  11.690  68.409  1.00  0.00    -0.360 A  
HETATM   32  C   UNL     1     -11.790  13.027  68.607  1.00  0.00    -0.353 A  
HETATM   33  C   UNL     1     -12.375  13.424  69.808  1.00  0.00    -0.219 A  
HETATM   34  C   UNL     1     -12.612  12.488  70.818  1.00  0.00    -0.299 A  
ENDBRANCH  28  29
ENDBRANCH  27  28
ENDBRANCH  24  27
ENDBRANCH  23  24
ENDBRANCH  19  22
ENDBRANCH  12  13
ENDBRANCH  11  12
ENDBRANCH   9  10
ENDBRANCH   8   9
ENDBRANCH   7   8
ENDBRANCH   5   7
ENDBRANCH   4   5
ENDBRANCH   2   4
TORSDOF 13
ENDMDL
MODEL      340
REMARK 921   NORMALIZED FREE ENERGY PREDICTED BY IDOCK:   -1.85 KCAL/MOL
REMARK 922        TOTAL FREE ENERGY PREDICTED BY IDOCK:   -6.10 KCAL/MOL
REMARK 923 INTER-LIGAND FREE ENERGY PREDICTED BY IDOCK:   -6.09 KCAL/MOL
REMARK 924 INTRA-LIGAND FREE ENERGY PREDICTED BY IDOCK:   -0.00 KCAL/MOL
REMARK 927      BINDING AFFINITY PREDICTED BY RF-SCORE:    0.00 PKD
ROOT
HETATM    1  C   UNL     1     -11.206   6.136  66.709  1.00  0.00    -0.080 C  
HETATM    2  C   UNL     1     -10.472   6.474  68.002  1.00  0.00    -0.216 C  
HETATM    3  C   UNL     1     -11.141   5.801  69.195  1.00  0.00    -0.218 C  
ENDROOT
BRANCH   2   4
HETATM    4  O   UNL     1      -9.122   5.985  67.927  1.00  0.00    -0.119 OA 
BRANCH   4   5
HETATM    5  C   UNL     1      -8.946   4.866  67.171  1.00  0.00    -0.110 C  
HETATM    6  O   UNL     1      -8.490   4.841  66.036  1.00  0.00    -0.114 OA 
BRANCH   5   7
HETATM    7  C   UNL     1      -9.444   3.655  67.915  1.00  0.00    -0.224 C  
BRANCH   7   8
HETATM    8  C   UNL     1      -8.562   3.366  69.128  1.00  0.00    -0.111 C  
BRANCH   8   9
HETATM    9  C   UNL     1      -9.397   2.793  70.271  1.00  0.00    -0.210 C  
BRANCH   9  10
HETATM   10  C   UNL     1      -8.755   3.026  71.607  1.00  0.00    -0.113 C  
HETATM   11  C   UNL     1      -8.724   4.190  72.274  1.00  0.00    -0.118 C  
BRANCH  11  12
HETATM   12  C   UNL     1      -9.323   5.494  71.817  1.00  0.00    -0.162 C  
BRANCH  12  13
HETATM   13  C   UNL     1      -9.082   6.601  72.850  1.00  0.00    -0.139 C  
HETATM   14  C   UNL     1      -8.103   6.224  73.970  1.00  0.00    -0.104 C  
HETATM   15  C   UNL     1      -7.710   7.575  74.547  1.00  0.00    -0.189 C  
HETATM   16  O   UNL     1      -6.930   5.596  73.456  1.00  0.00    -0.082 OA 
HETATM   17  C   UNL     1      -7.496   8.436  73.302  1.00  0.00    -0.057 C  
HETATM   18  H   UNL     1      -6.324   5.363  74.150  1.00  0.00     0.000 HD 
HETATM   19  C   UNL     1      -8.471   7.886  72.229  1.00  0.00    -0.185 C  
HETATM   20  O   UNL     1      -6.148   8.298  72.847  1.00  0.00    -0.063 OA 
HETATM   21  H   UNL     1      -6.015   8.833  72.074  1.00  0.00     0.000 HD 
BRANCH  19  22
HETATM   22  C   UNL     1      -9.497   8.919  71.805  1.00  0.00    -0.334 C  
HETATM   23  C   UNL     1     -10.392   8.756  70.812  1.00  0.00    -0.264 C  
BRANCH  23  24
HETATM   24  C   UNL     1     -11.492   9.731  70.472  1.00  0.00    -0.300 C  
HETATM   25  F   UNL     1     -11.284  10.909  71.124  1.00  0.00    -0.149 F  
HETATM   26  F   UNL     1     -12.681   9.245  70.923  1.00  0.00    -0.308 F  
BRANCH  24  27
HETATM   27  C   UNL     1     -11.584   9.992  68.960  1.00  0.00     0.069 C  
BRANCH  27  28
HETATM   28  O   UNL     1     -10.586  10.936  68.544  1.00  0.00    -0.170 OA 
BRANCH  28  29
HETATM   29  C   UNL     1     -11.032  11.939  67.727  1.00  0.00    -0.228 A  
HETATM   30  C   UNL     1     -10.797  13.237  68.186  1.00  0.00    -0.270 A  
HETATM   31  C   UNL     1     -11.206  14.339  67.432  1.00  0.00    -0.330 A  
HETATM   32  C   UNL     1     -11.840  14.147  66.207  1.00  0.00    -0.427 A  
HETATM   33  C   UNL     1     -12.059  12.854  65.733  1.00  0.00    -0.513 A  
HETATM   34  C   UNL     1     -11.654  11.751  66.490  1.00  0.00    -0.256 A  
ENDBRANCH  28  29
ENDBRANCH  27  28
ENDBRANCH  24  27
ENDBRANCH  23  24
ENDBRANCH  19  22
ENDBRANCH  12  13
ENDBRANCH  11  12
ENDBRANCH   9  10
ENDBRANCH   8   9
ENDBRANCH   7   8
ENDBRANCH   5   7
ENDBRANCH   4   5
ENDBRANCH   2   4
TORSDOF 13
ENDMDL
MODEL      341
REMARK 921   NORMALIZED FREE ENERGY PREDICTED BY IDOCK:   -1.63 KCAL/MOL
REMARK 922        TOTAL FREE ENERGY PREDICTED BY IDOCK:   -5.70 KCAL/MOL
REMARK 923 INTER-LIGAND FREE ENERGY PREDICTED BY IDOCK:   -4.31 KCAL/MOL
REMARK 924 INTRA-LIGAND FREE ENERGY PREDICTED BY IDOCK:   -1.39 KCAL/MOL
REMARK 927      BINDING AFFINITY PREDICTED BY RF-SCORE:    0.00 PKD
ROOT
HETATM    1  C   UNL     1      -7.043   7.532  72.747  1.00  0.00    -0.076 C  
HETATM    2  C   UNL     1      -8.290   6.770  72.308  1.00  0.00    -0.106 C  
HETATM    3  C   UNL     1      -9.211   6.512  73.494  1.00  0.00    -0.149 C  
ENDROOT
BRANCH   2   4
HETATM    4  O   UNL     1      -9.020   7.560  71.353  1.00  0.00    -0.132 OA 
BRANCH   4   5
HETATM    5  C   UNL     1     -10.192   7.016  70.918  1.00  0.00    -0.197 C  
HETATM    6  O   UNL     1     -11.259   7.608  70.832  1.00  0.00    -0.259 OA 
BRANCH   5   7
HETATM    7  C   UNL     1      -9.999   5.557  70.603  1.00  0.00    -0.270 C  
BRANCH   7   8
HETATM    8  C   UNL     1      -9.177   5.384  69.327  1.00  0.00    -0.149 C  
BRANCH   8   9
HETATM    9  C   UNL     1      -9.393   6.567  68.387  1.00  0.00    -0.122 C  
BRANCH   9  10
HETATM   10  C   UNL     1      -9.744   6.123  66.997  1.00  0.00    -0.167 C  
HETATM   11  C   UNL     1      -8.890   6.010  65.968  1.00  0.00    -0.159 C  
BRANCH  11  12
HETATM   12  C   UNL     1      -7.413   6.304  66.000  1.00  0.00    -0.082 C  
BRANCH  12  13
HETATM   13  C   UNL     1      -7.103   7.635  65.305  1.00  0.00    -0.063 C  
HETATM   14  C   UNL     1      -7.386   7.646  63.797  1.00  0.00    -0.093 C  
HETATM   15  C   UNL     1      -7.437   9.131  63.472  1.00  0.00    -0.102 C  
HETATM   16  O   UNL     1      -8.658   7.077  63.494  1.00  0.00    -0.326 OA 
HETATM   17  C   UNL     1      -8.248   9.713  64.630  1.00  0.00    -0.149 C  
HETATM   18  H   UNL     1      -8.834   7.084  62.560  1.00  0.00     0.000 HD 
HETATM   19  C   UNL     1      -7.944   8.816  65.858  1.00  0.00    -0.104 C  
HETATM   20  O   UNL     1      -9.642   9.652  64.320  1.00  0.00    -0.417 OA 
HETATM   21  H   UNL     1     -10.146  10.014  65.039  1.00  0.00     0.000 HD 
BRANCH  19  22
HETATM   22  C   UNL     1      -7.271   9.587  66.976  1.00  0.00    -0.087 C  
HETATM   23  C   UNL     1      -7.001   9.095  68.200  1.00  0.00    -0.076 C  
BRANCH  23  24
HETATM   24  C   UNL     1      -6.221   9.819  69.270  1.00  0.00    -0.036 C  
HETATM   25  F   UNL     1      -5.199   9.033  69.710  1.00  0.00    -0.029 F  
HETATM   26  F   UNL     1      -7.027  10.041  70.344  1.00  0.00    -0.105 F  
BRANCH  24  27
HETATM   27  C   UNL     1      -5.656  11.157  68.765  1.00  0.00    -0.039 C  
BRANCH  27  28
HETATM   28  O   UNL     1      -6.243  12.258  69.474  1.00  0.00    -0.108 OA 
BRANCH  28  29
HETATM   29  C   UNL     1      -7.135  13.009  68.758  1.00  0.00    -0.097 A  
HETATM   30  C   UNL     1      -6.577  14.026  67.981  1.00  0.00    -0.150 A  
HETATM   31  C   UNL     1      -7.394  14.853  67.206  1.00  0.00    -0.174 A  
HETATM   32  C   UNL     1      -8.773  14.655  67.194  1.00  0.00    -0.242 A  
HETATM   33  C   UNL     1      -9.334  13.628  67.951  1.00  0.00    -0.206 A  
HETATM   34  C   UNL     1      -8.518  12.804  68.731  1.00  0.00     0.161 A  
ENDBRANCH  28  29
ENDBRANCH  27  28
ENDBRANCH  24  27
ENDBRANCH  23  24
ENDBRANCH  19  22
ENDBRANCH  12  13
ENDBRANCH  11  12
ENDBRANCH   9  10
ENDBRANCH   8   9
ENDBRANCH   7   8
ENDBRANCH   5   7
ENDBRANCH   4   5
ENDBRANCH   2   4
TORSDOF 13
ENDMDL
MODEL      342
REMARK 921   NORMALIZED FREE ENERGY PREDICTED BY IDOCK:   -1.57 KCAL/MOL
REMARK 922        TOTAL FREE ENERGY PREDICTED BY IDOCK:   -5.60 KCAL/MOL
REMARK 923 INTER-LIGAND FREE ENERGY PREDICTED BY IDOCK:   -4.77 KCAL/MOL
REMARK 924 INTRA-LIGAND FREE ENERGY PREDICTED BY IDOCK:   -0.83 KCAL/MOL
REMARK 927      BINDING AFFINITY PREDICTED BY RF-SCORE:    0.00 PKD
ROOT
HETATM    1  C   UNL     1      -9.811   9.839  65.210  1.00  0.00    -0.335 C  
HETATM    2  C   UNL     1      -9.456  10.251  63.786  1.00  0.00    -0.300 C  
HETATM    3  C   UNL     1     -10.111  11.580  63.429  1.00  0.00    -0.454 C  
ENDROOT
BRANCH   2   4
HETATM    4  O   UNL     1      -8.032  10.426  63.680  1.00  0.00    -0.155 OA 
BRANCH   4   5
HETATM    5  C   UNL     1      -7.326  10.187  64.820  1.00  0.00    -0.134 C  
HETATM    6  O   UNL     1      -7.377  10.861  65.839  1.00  0.00    -0.126 OA 
BRANCH   5   7
HETATM    7  C   UNL     1      -6.428   8.994  64.631  1.00  0.00    -0.070 C  
BRANCH   7   8
HETATM    8  C   UNL     1      -6.766   7.897  65.639  1.00  0.00    -0.045 C  
BRANCH   8   9
HETATM    9  C   UNL     1      -5.823   6.708  65.472  1.00  0.00    -0.030 C  
BRANCH   9  10
HETATM   10  C   UNL     1      -5.952   6.074  64.118  1.00  0.00    -0.025 C  
HETATM   11  C   UNL     1      -7.087   5.608  63.572  1.00  0.00    -0.051 C  
BRANCH  11  12
HETATM   12  C   UNL     1      -8.454   5.627  64.204  1.00  0.00    -0.017 C  
BRANCH  12  13
HETATM   13  C   UNL     1      -8.853   4.230  64.690  1.00  0.00    -0.141 C  
HETATM   14  C   UNL     1      -9.440   3.321  63.602  1.00  0.00    -0.116 C  
HETATM   15  C   UNL     1      -9.316   1.934  64.213  1.00  0.00    -0.132 C  
HETATM   16  O   UNL     1      -8.662   3.357  62.407  1.00  0.00    -0.080 OA 
HETATM   17  C   UNL     1      -7.918   1.951  64.832  1.00  0.00    -0.073 C  
HETATM   18  H   UNL     1      -9.026   2.794  61.734  1.00  0.00     0.000 HD 
HETATM   19  C   UNL     1      -7.656   3.420  65.255  1.00  0.00    -0.077 C  
HETATM   20  O   UNL     1      -6.955   1.549  63.856  1.00  0.00    -0.029 OA 
HETATM   21  H   UNL     1      -6.086   1.559  64.241  1.00  0.00     0.000 HD 
BRANCH  19  22
HETATM   22  C   UNL     1      -7.463   3.558  66.753  1.00  0.00    -0.076 C  
HETATM   23  C   UNL     1      -8.190   4.360  67.553  1.00  0.00    -0.099 C  
BRANCH  23  24
HETATM   24  C   UNL     1      -8.083   4.405  69.058  1.00  0.00    -0.072 C  
HETATM   25  F   UNL     1      -6.839   4.009  69.445  1.00  0.00    -0.041 F  
HETATM   26  F   UNL     1      -8.959   3.515  69.599  1.00  0.00    -0.114 F  
BRANCH  24  27
HETATM   27  C   UNL     1      -8.370   5.810  69.614  1.00  0.00    -0.112 C  
BRANCH  27  28
HETATM   28  O   UNL     1      -9.743   5.930  70.014  1.00  0.00    -0.159 OA 
BRANCH  28  29
HETATM   29  C   UNL     1      -9.944   6.294  71.318  1.00  0.00    -0.180 A  
HETATM   30  C   UNL     1     -10.426   5.287  72.156  1.00  0.00    -0.278 A  
HETATM   31  C   UNL     1     -10.666   5.545  73.507  1.00  0.00    -0.322 A  
HETATM   32  C   UNL     1     -10.409   6.810  74.030  1.00  0.00    -0.377 A  
HETATM   33  C   UNL     1      -9.908   7.815  73.203  1.00  0.00    -0.361 A  
HETATM   34  C   UNL     1      -9.674   7.559  71.849  1.00  0.00    -0.191 A  
ENDBRANCH  28  29
ENDBRANCH  27  28
ENDBRANCH  24  27
ENDBRANCH  23  24
ENDBRANCH  19  22
ENDBRANCH  12  13
ENDBRANCH  11  12
ENDBRANCH   9  10
ENDBRANCH   8   9
ENDBRANCH   7   8
ENDBRANCH   5   7
ENDBRANCH   4   5
ENDBRANCH   2   4
TORSDOF 13
ENDMDL
MODEL      343
REMARK 921   NORMALIZED FREE ENERGY PREDICTED BY IDOCK:   -1.46 KCAL/MOL
REMARK 922        TOTAL FREE ENERGY PREDICTED BY IDOCK:   -5.40 KCAL/MOL
REMARK 923 INTER-LIGAND FREE ENERGY PREDICTED BY IDOCK:   -4.86 KCAL/MOL
REMARK 924 INTRA-LIGAND FREE ENERGY PREDICTED BY IDOCK:   -0.55 KCAL/MOL
REMARK 927      BINDING AFFINITY PREDICTED BY RF-SCORE:    0.00 PKD
ROOT
HETATM    1  C   UNL     1     -11.208   6.135  66.709  1.00  0.00    -0.080 C  
HETATM    2  C   UNL     1     -10.464   6.482  67.994  1.00  0.00    -0.216 C  
HETATM    3  C   UNL     1     -11.119   5.812  69.195  1.00  0.00    -0.218 C  
ENDROOT
BRANCH   2   4
HETATM    4  O   UNL     1      -9.112   5.996  67.909  1.00  0.00    -0.119 OA 
BRANCH   4   5
HETATM    5  C   UNL     1      -8.942   4.866  67.166  1.00  0.00    -0.110 C  
HETATM    6  O   UNL     1      -8.504   4.828  66.025  1.00  0.00    -0.114 OA 
BRANCH   5   7
HETATM    7  C   UNL     1      -9.419   3.664  67.937  1.00  0.00    -0.224 C  
BRANCH   7   8
HETATM    8  C   UNL     1      -8.514   3.397  69.138  1.00  0.00    -0.094 C  
BRANCH   8   9
HETATM    9  C   UNL     1      -9.315   2.785  70.285  1.00  0.00    -0.210 C  
BRANCH   9  10
HETATM   10  C   UNL     1      -8.670   3.034  71.617  1.00  0.00    -0.113 C  
HETATM   11  C   UNL     1      -8.678   4.195  72.291  1.00  0.00    -0.118 C  
BRANCH  11  12
HETATM   12  C   UNL     1      -9.332   5.477  71.848  1.00  0.00    -0.163 C  
BRANCH  12  13
HETATM   13  C   UNL     1      -9.113   6.590  72.880  1.00  0.00    -0.135 C  
HETATM   14  C   UNL     1      -8.099   6.247  73.979  1.00  0.00    -0.104 C  
HETATM   15  C   UNL     1      -7.747   7.611  74.554  1.00  0.00    -0.213 C  
HETATM   16  O   UNL     1      -6.912   5.668  73.441  1.00  0.00    -0.082 OA 
HETATM   17  C   UNL     1      -7.591   8.483  73.309  1.00  0.00     0.020 C  
HETATM   18  H   UNL     1      -6.284   5.456  74.122  1.00  0.00     0.000 HD 
HETATM   19  C   UNL     1      -8.565   7.899  72.252  1.00  0.00    -0.193 C  
HETATM   20  O   UNL     1      -6.249   8.400  72.827  1.00  0.00    -0.074 OA 
HETATM   21  H   UNL     1      -6.152   8.942  72.054  1.00  0.00     0.000 HD 
BRANCH  19  22
HETATM   22  C   UNL     1      -9.639   8.892  71.853  1.00  0.00    -0.326 C  
HETATM   23  C   UNL     1     -10.552   8.694  70.883  1.00  0.00    -0.265 C  
BRANCH  23  24
HETATM   24  C   UNL     1     -11.696   9.627  70.569  1.00  0.00    -0.242 C  
HETATM   25  F   UNL     1     -11.509  10.817  71.205  1.00  0.00    -0.360 F  
HETATM   26  F   UNL     1     -12.852   9.104  71.059  1.00  0.00    -0.322 F  
BRANCH  24  27
HETATM   27  C   UNL     1     -11.842   9.871  69.058  1.00  0.00     0.407 C  
BRANCH  27  28
HETATM   28  O   UNL     1     -10.890  10.845  68.605  1.00  0.00    -0.187 OA 
BRANCH  28  29
HETATM   29  C   UNL     1      -9.876  10.355  67.826  1.00  0.00    -0.168 A  
HETATM   30  C   UNL     1     -10.044  10.516  66.449  1.00  0.00    -0.285 A  
HETATM   31  C   UNL     1      -9.070  10.057  65.560  1.00  0.00    -0.227 A  
HETATM   32  C   UNL     1      -7.916   9.448  66.045  1.00  0.00    -0.110 A  
HETATM   33  C   UNL     1      -7.732   9.303  67.420  1.00  0.00    -0.095 A  
HETATM   34  C   UNL     1      -8.709   9.757  68.311  1.00  0.00    -0.119 A  
ENDBRANCH  28  29
ENDBRANCH  27  28
ENDBRANCH  24  27
ENDBRANCH  23  24
ENDBRANCH  19  22
ENDBRANCH  12  13
ENDBRANCH  11  12
ENDBRANCH   9  10
ENDBRANCH   8   9
ENDBRANCH   7   8
ENDBRANCH   5   7
ENDBRANCH   4   5
ENDBRANCH   2   4
TORSDOF 13
ENDMDL
MODEL      344
REMARK 921   NORMALIZED FREE ENERGY PREDICTED BY IDOCK:   -1.24 KCAL/MOL
REMARK 922        TOTAL FREE ENERGY PREDICTED BY IDOCK:   -5.02 KCAL/MOL
REMARK 923 INTER-LIGAND FREE ENERGY PREDICTED BY IDOCK:   -5.75 KCAL/MOL
REMARK 924 INTRA-LIGAND FREE ENERGY PREDICTED BY IDOCK:    0.73 KCAL/MOL
REMARK 927      BINDING AFFINITY PREDICTED BY RF-SCORE:    0.00 PKD
ROOT
HETATM    1  C   UNL     1     -10.727   6.140  67.373  1.00  0.00    -0.403 C  
HETATM    2  C   UNL     1      -9.370   6.188  68.066  1.00  0.00    -0.114 C  
HETATM    3  C   UNL     1      -8.281   6.623  67.093  1.00  0.00    -0.113 C  
ENDROOT
BRANCH   2   4
HETATM    4  O   UNL     1      -9.412   7.155  69.131  1.00  0.00    -0.148 OA 
BRANCH   4   5
HETATM    5  C   UNL     1     -10.643   7.382  69.668  1.00  0.00    -0.236 C  
HETATM    6  O   UNL     1     -11.446   6.517  69.991  1.00  0.00    -0.380 OA 
BRANCH   5   7
HETATM    7  C   UNL     1     -10.901   8.862  69.763  1.00  0.00    -0.207 C  
BRANCH   7   8
HETATM    8  C   UNL     1      -9.633   9.606  70.178  1.00  0.00    -0.300 C  
BRANCH   8   9
HETATM    9  C   UNL     1      -9.153  10.516  69.050  1.00  0.00    -0.188 C  
BRANCH   9  10
HETATM   10  C   UNL     1      -7.810  10.100  68.525  1.00  0.00    -0.095 C  
HETATM   11  C   UNL     1      -6.999  10.847  67.759  1.00  0.00    -0.077 C  
BRANCH  11  12
HETATM   12  C   UNL     1      -7.271  12.247  67.274  1.00  0.00    -0.138 C  
BRANCH  12  13
HETATM   13  C   UNL     1      -8.237  12.236  66.084  1.00  0.00     0.478 C  
HETATM   14  C   UNL     1      -8.003  11.096  65.084  1.00  0.00     0.384 C  
HETATM   15  C   UNL     1      -9.311  11.050  64.309  1.00  0.00    -0.232 C  
HETATM   16  O   UNL     1      -7.827   9.844  65.743  1.00  0.00    -0.113 OA 
HETATM   17  C   UNL     1     -10.368  11.198  65.402  1.00  0.00    -0.271 C  
HETATM   18  H   UNL     1      -7.682   9.138  65.123  1.00  0.00     0.000 HD 
HETATM   19  C   UNL     1      -9.720  12.069  66.509  1.00  0.00    -0.230 C  
HETATM   20  O   UNL     1     -10.698   9.911  65.930  1.00  0.00     0.017 OA 
HETATM   21  H   UNL     1     -11.356  10.003  66.610  1.00  0.00     0.000 HD 
BRANCH  19  22
HETATM   22  C   UNL     1     -10.459  13.378  66.713  1.00  0.00    -0.275 C  
HETATM   23  C   UNL     1      -9.923  14.492  67.247  1.00  0.00    -0.236 C  
BRANCH  23  24
HETATM   24  C   UNL     1     -10.619  15.828  67.335  1.00  0.00    -0.313 C  
HETATM   25  F   UNL     1     -11.903  15.655  67.754  1.00  0.00    -0.284 F  
HETATM   26  F   UNL     1     -10.688  16.383  66.094  1.00  0.00    -0.308 F  
BRANCH  24  27
HETATM   27  C   UNL     1      -9.895  16.792  68.289  1.00  0.00    -0.257 C  
BRANCH  27  28
HETATM   28  O   UNL     1      -8.680  16.208  68.779  1.00  0.00    -0.213 OA 
BRANCH  28  29
HETATM   29  C   UNL     1      -7.678  17.095  69.069  1.00  0.00    -0.164 A  
HETATM   30  C   UNL     1      -7.955  18.431  68.775  1.00  0.00    -0.278 A  
HETATM   31  C   UNL     1      -7.006  19.423  69.032  1.00  0.00    -0.390 A  
HETATM   32  C   UNL     1      -5.780  19.083  69.598  1.00  0.00    -0.249 A  
HETATM   33  C   UNL     1      -5.505  17.753  69.913  1.00  0.00    -0.229 A  
HETATM   34  C   UNL     1      -6.452  16.759  69.651  1.00  0.00    -0.189 A  
ENDBRANCH  28  29
ENDBRANCH  27  28
ENDBRANCH  24  27
ENDBRANCH  23  24
ENDBRANCH  19  22
ENDBRANCH  12  13
ENDBRANCH  11  12
ENDBRANCH   9  10
ENDBRANCH   8   9
ENDBRANCH   7   8
ENDBRANCH   5   7
ENDBRANCH   4   5
ENDBRANCH   2   4
TORSDOF 13
ENDMDL
MODEL      345
REMARK 921   NORMALIZED FREE ENERGY PREDICTED BY IDOCK:   -1.12 KCAL/MOL
REMARK 922        TOTAL FREE ENERGY PREDICTED BY IDOCK:   -4.81 KCAL/MOL
REMARK 923 INTER-LIGAND FREE ENERGY PREDICTED BY IDOCK:   -3.65 KCAL/MOL
REMARK 924 INTRA-LIGAND FREE ENERGY PREDICTED BY IDOCK:   -1.16 KCAL/MOL
REMARK 927      BINDING AFFINITY PREDICTED BY RF-SCORE:    0.00 PKD
ROOT
HETATM    1  C   UNL     1     -10.871   5.628  66.146  1.00  0.00     0.029 C  
HETATM    2  C   UNL     1     -10.708   6.279  67.515  1.00  0.00    -0.319 C  
HETATM    3  C   UNL     1     -10.686   5.226  68.615  1.00  0.00     0.008 C  
ENDROOT
BRANCH   2   4
HETATM    4  O   UNL     1      -9.455   6.984  67.562  1.00  0.00    -0.125 OA 
BRANCH   4   5
HETATM    5  C   UNL     1      -8.786   7.069  66.378  1.00  0.00    -0.142 C  
HETATM    6  O   UNL     1      -9.021   7.874  65.488  1.00  0.00    -0.098 OA 
BRANCH   5   7
HETATM    7  C   UNL     1      -7.739   5.990  66.297  1.00  0.00    -0.102 C  
BRANCH   7   8
HETATM    8  C   UNL     1      -6.836   6.020  67.529  1.00  0.00    -0.063 C  
BRANCH   8   9
HETATM    9  C   UNL     1      -7.152   4.846  68.452  1.00  0.00    -0.061 C  
BRANCH   9  10
HETATM   10  C   UNL     1      -6.085   4.640  69.487  1.00  0.00    -0.022 C  
HETATM   11  C   UNL     1      -5.981   5.300  70.652  1.00  0.00    -0.021 C  
BRANCH  11  12
HETATM   12  C   UNL     1      -6.908   6.375  71.153  1.00  0.00    -0.067 C  
BRANCH  12  13
HETATM   13  C   UNL     1      -8.346   5.853  71.261  1.00  0.00    -0.124 C  
HETATM   14  C   UNL     1      -8.461   4.405  71.757  1.00  0.00    -0.110 C  
HETATM   15  C   UNL     1      -9.915   4.311  72.194  1.00  0.00    -0.246 C  
HETATM   16  O   UNL     1      -7.634   4.169  72.894  1.00  0.00    -0.075 OA 
HETATM   17  C   UNL     1     -10.140   5.626  72.939  1.00  0.00    -0.176 C  
HETATM   18  H   UNL     1      -7.706   3.272  73.201  1.00  0.00     0.000 HD 
HETATM   19  C   UNL     1      -9.211   6.666  72.261  1.00  0.00    -0.139 C  
HETATM   20  O   UNL     1      -9.773   5.471  74.311  1.00  0.00    -0.150 OA 
HETATM   21  H   UNL     1      -9.914   6.289  74.774  1.00  0.00     0.000 HD 
BRANCH  19  22
HETATM   22  C   UNL     1      -9.990   7.802  71.627  1.00  0.00    -0.213 C  
HETATM   23  C   UNL     1      -9.723   8.343  70.423  1.00  0.00    -0.185 C  
BRANCH  23  24
HETATM   24  C   UNL     1     -10.572   9.387  69.738  1.00  0.00    -0.231 C  
HETATM   25  F   UNL     1     -10.649  10.503  70.514  1.00  0.00    -0.313 F  
HETATM   26  F   UNL     1     -11.843   8.919  69.606  1.00  0.00     0.138 F  
BRANCH  24  27
HETATM   27  C   UNL     1     -10.017   9.762  68.354  1.00  0.00    -0.156 C  
BRANCH  27  28
HETATM   28  O   UNL     1      -9.232  10.961  68.428  1.00  0.00    -0.154 OA 
BRANCH  28  29
HETATM   29  C   UNL     1      -7.948  10.850  67.964  1.00  0.00    -0.109 A  
HETATM   30  C   UNL     1      -6.988  10.529  68.925  1.00  0.00    -0.070 A  
HETATM   31  C   UNL     1      -5.646  10.388  68.565  1.00  0.00    -0.037 A  
HETATM   32  C   UNL     1      -5.261  10.553  67.236  1.00  0.00    -0.040 A  
HETATM   33  C   UNL     1      -6.219  10.853  66.268  1.00  0.00    -0.134 A  
HETATM   34  C   UNL     1      -7.561  11.000  66.629  1.00  0.00    -0.146 A  
ENDBRANCH  28  29
ENDBRANCH  27  28
ENDBRANCH  24  27
ENDBRANCH  23  24
ENDBRANCH  19  22
ENDBRANCH  12  13
ENDBRANCH  11  12
ENDBRANCH   9  10
ENDBRANCH   8   9
ENDBRANCH   7   8
ENDBRANCH   5   7
ENDBRANCH   4   5
ENDBRANCH   2   4
TORSDOF 13
ENDMDL
MODEL      346
REMARK 921   NORMALIZED FREE ENERGY PREDICTED BY IDOCK:   -0.99 KCAL/MOL
REMARK 922        TOTAL FREE ENERGY PREDICTED BY IDOCK:   -4.58 KCAL/MOL
REMARK 923 INTER-LIGAND FREE ENERGY PREDICTED BY IDOCK:   -4.11 KCAL/MOL
REMARK 924 INTRA-LIGAND FREE ENERGY PREDICTED BY IDOCK:   -0.47 KCAL/MOL
REMARK 927      BINDING AFFINITY PREDICTED BY RF-SCORE:    0.00 PKD
ROOT
HETATM    1  C   UNL     1      -6.414  12.358  68.031  1.00  0.00    -0.081 C  
HETATM    2  C   UNL     1      -7.925  12.522  68.165  1.00  0.00    -0.157 C  
HETATM    3  C   UNL     1      -8.589  12.551  66.794  1.00  0.00    -0.109 C  
ENDROOT
BRANCH   2   4
HETATM    4  O   UNL     1      -8.465  11.402  68.887  1.00  0.00    -0.123 OA 
BRANCH   4   5
HETATM    5  C   UNL     1      -9.046  10.436  68.120  1.00  0.00    -0.142 C  
HETATM    6  O   UNL     1      -9.960  10.614  67.329  1.00  0.00    -0.178 OA 
BRANCH   5   7
HETATM    7  C   UNL     1      -8.430   9.096  68.425  1.00  0.00    -0.128 C  
BRANCH   7   8
HETATM    8  C   UNL     1      -7.006   9.019  67.878  1.00  0.00    -0.078 C  
BRANCH   8   9
HETATM    9  C   UNL     1      -6.965   8.166  66.612  1.00  0.00    -0.072 C  
BRANCH   9  10
HETATM   10  C   UNL     1      -6.463   6.778  66.885  1.00  0.00    -0.043 C  
HETATM   11  C   UNL     1      -7.222   5.682  67.038  1.00  0.00    -0.075 C  
BRANCH  11  12
HETATM   12  C   UNL     1      -8.725   5.622  66.969  1.00  0.00    -0.108 C  
BRANCH  12  13
HETATM   13  C   UNL     1      -9.221   4.173  67.027  1.00  0.00    -0.173 C  
HETATM   14  C   UNL     1      -9.397   3.505  65.657  1.00  0.00    -0.158 C  
HETATM   15  C   UNL     1      -9.437   2.024  66.004  1.00  0.00     0.232 C  
HETATM   16  O   UNL     1      -8.274   3.737  64.809  1.00  0.00    -0.092 OA 
HETATM   17  C   UNL     1      -8.318   1.877  67.033  1.00  0.00    -0.082 C  
HETATM   18  H   UNL     1      -8.383   3.322  63.960  1.00  0.00     0.000 HD 
HETATM   19  C   UNL     1      -8.249   3.231  67.787  1.00  0.00    -0.086 C  
HETATM   20  O   UNL     1      -7.078   1.632  66.365  1.00  0.00    -0.045 OA 
HETATM   21  H   UNL     1      -6.382   1.540  67.005  1.00  0.00     0.000 HD 
BRANCH  19  22
HETATM   22  C   UNL     1      -8.557   3.080  69.263  1.00  0.00    -0.113 C  
HETATM   23  C   UNL     1      -7.794   3.558  70.264  1.00  0.00    -0.048 C  
BRANCH  23  24
HETATM   24  C   UNL     1      -8.163   3.517  71.727  1.00  0.00    -0.066 C  
HETATM   25  F   UNL     1      -7.542   4.532  72.389  1.00  0.00    -0.074 F  
HETATM   26  F   UNL     1      -7.703   2.360  72.276  1.00  0.00    -0.047 F  
BRANCH  24  27
HETATM   27  C   UNL     1      -9.682   3.620  71.941  1.00  0.00    -0.166 C  
BRANCH  27  28
HETATM   28  O   UNL     1     -10.266   4.546  71.014  1.00  0.00    -0.183 OA 
BRANCH  28  29
HETATM   29  C   UNL     1     -10.393   5.831  71.469  1.00  0.00    -0.220 A  
HETATM   30  C   UNL     1      -9.287   6.656  71.256  1.00  0.00    -0.159 A  
HETATM   31  C   UNL     1      -9.306   7.987  71.677  1.00  0.00    -0.208 A  
HETATM   32  C   UNL     1     -10.440   8.504  72.300  1.00  0.00    -0.402 A  
HETATM   33  C   UNL     1     -11.555   7.691  72.497  1.00  0.00    -0.382 A  
HETATM   34  C   UNL     1     -11.534   6.356  72.081  1.00  0.00    -0.344 A  
ENDBRANCH  28  29
ENDBRANCH  27  28
ENDBRANCH  24  27
ENDBRANCH  23  24
ENDBRANCH  19  22
ENDBRANCH  12  13
ENDBRANCH  11  12
ENDBRANCH   9  10
ENDBRANCH   8   9
ENDBRANCH   7   8
ENDBRANCH   5   7
ENDBRANCH   4   5
ENDBRANCH   2   4
TORSDOF 13
ENDMDL
MODEL      347
REMARK 921   NORMALIZED FREE ENERGY PREDICTED BY IDOCK:   -0.66 KCAL/MOL
REMARK 922        TOTAL FREE ENERGY PREDICTED BY IDOCK:   -4.00 KCAL/MOL
REMARK 923 INTER-LIGAND FREE ENERGY PREDICTED BY IDOCK:   -4.09 KCAL/MOL
REMARK 924 INTRA-LIGAND FREE ENERGY PREDICTED BY IDOCK:    0.09 KCAL/MOL
REMARK 927      BINDING AFFINITY PREDICTED BY RF-SCORE:    0.00 PKD
ROOT
HETATM    1  C   UNL     1      -9.067  11.888  64.851  1.00  0.00     0.341 C  
HETATM    2  C   UNL     1      -9.393  11.044  63.624  1.00  0.00    -0.238 C  
HETATM    3  C   UNL     1      -8.118  10.549  62.954  1.00  0.00    -0.139 C  
ENDROOT
BRANCH   2   4
HETATM    4  O   UNL     1     -10.149   9.888  64.027  1.00  0.00     0.124 OA 
BRANCH   4   5
HETATM    5  C   UNL     1      -9.864   9.406  65.269  1.00  0.00    -0.002 C  
HETATM    6  O   UNL     1     -10.216   9.913  66.325  1.00  0.00    -0.243 OA 
BRANCH   5   7
HETATM    7  C   UNL     1      -9.003   8.175  65.160  1.00  0.00     0.113 C  
BRANCH   7   8
HETATM    8  C   UNL     1      -7.565   8.484  65.572  1.00  0.00    -0.090 C  
BRANCH   8   9
HETATM    9  C   UNL     1      -7.430   8.474  67.092  1.00  0.00    -0.085 C  
BRANCH   9  10
HETATM   10  C   UNL     1      -6.203   7.738  67.544  1.00  0.00    -0.050 C  
HETATM   11  C   UNL     1      -6.076   7.046  68.687  1.00  0.00    -0.027 C  
BRANCH  11  12
HETATM   12  C   UNL     1      -7.134   6.871  69.745  1.00  0.00    -0.068 C  
BRANCH  12  13
HETATM   13  C   UNL     1      -8.486   7.406  69.262  1.00  0.00    -0.136 C  
HETATM   14  C   UNL     1      -9.591   6.346  69.160  1.00  0.00    -0.136 C  
HETATM   15  C   UNL     1     -10.861   7.182  69.117  1.00  0.00    -0.185 C  
HETATM   16  O   UNL     1      -9.637   5.519  70.321  1.00  0.00    -0.160 OA 
HETATM   17  C   UNL     1     -10.614   8.245  70.186  1.00  0.00    -0.233 C  
HETATM   18  H   UNL     1     -10.322   4.862  70.257  1.00  0.00     0.000 HD 
HETATM   19  C   UNL     1      -9.082   8.486  70.205  1.00  0.00    -0.154 C  
HETATM   20  O   UNL     1     -11.042   7.757  71.459  1.00  0.00    -0.233 OA 
HETATM   21  H   UNL     1     -10.889   8.418  72.124  1.00  0.00     0.000 HD 
BRANCH  19  22
HETATM   22  C   UNL     1      -8.721   9.909  69.826  1.00  0.00    -0.229 C  
HETATM   23  C   UNL     1      -9.332  10.630  68.867  1.00  0.00    -0.191 C  
BRANCH  23  24
HETATM   24  C   UNL     1      -9.058  12.086  68.574  1.00  0.00    -0.106 C  
HETATM   25  F   UNL     1      -8.190  12.192  67.530  1.00  0.00    -0.133 F  
HETATM   26  F   UNL     1      -8.444  12.653  69.647  1.00  0.00     0.810 F  
BRANCH  24  27
HETATM   27  C   UNL     1     -10.346  12.860  68.250  1.00  0.00    -0.244 C  
BRANCH  27  28
HETATM   28  O   UNL     1     -11.464  12.312  68.963  1.00  0.00    -0.254 OA 
BRANCH  28  29
HETATM   29  C   UNL     1     -11.866  13.024  70.061  1.00  0.00    -0.285 A  
HETATM   30  C   UNL     1     -12.733  12.354  70.927  1.00  0.00    -0.273 A  
HETATM   31  C   UNL     1     -13.205  12.983  72.081  1.00  0.00    -0.558 A  
HETATM   32  C   UNL     1     -12.798  14.281  72.383  1.00  0.00    -0.431 A  
HETATM   33  C   UNL     1     -11.916  14.947  71.533  1.00  0.00    -0.408 A  
HETATM   34  C   UNL     1     -11.448  14.320  70.374  1.00  0.00    -0.188 A  
ENDBRANCH  28  29
ENDBRANCH  27  28
ENDBRANCH  24  27
ENDBRANCH  23  24
ENDBRANCH  19  22
ENDBRANCH  12  13
ENDBRANCH  11  12
ENDBRANCH   9  10
ENDBRANCH   8   9
ENDBRANCH   7   8
ENDBRANCH   5   7
ENDBRANCH   4   5
ENDBRANCH   2   4
TORSDOF 13
ENDMDL
MODEL      348
REMARK 921   NORMALIZED FREE ENERGY PREDICTED BY IDOCK:   -0.29 KCAL/MOL
REMARK 922        TOTAL FREE ENERGY PREDICTED BY IDOCK:   -3.34 KCAL/MOL
REMARK 923 INTER-LIGAND FREE ENERGY PREDICTED BY IDOCK:   -5.50 KCAL/MOL
REMARK 924 INTRA-LIGAND FREE ENERGY PREDICTED BY IDOCK:    2.16 KCAL/MOL
REMARK 927      BINDING AFFINITY PREDICTED BY RF-SCORE:    0.00 PKD
ROOT
HETATM    1  C   UNL     1     -12.579  14.415  62.962  1.00  0.00     1.647 C  
HETATM    2  C   UNL     1     -12.052  14.312  64.390  1.00  0.00    -0.468 C  
HETATM    3  C   UNL     1     -12.790  13.225  65.161  1.00  0.00    -0.376 C  
ENDROOT
BRANCH   2   4
HETATM    4  O   UNL     1     -10.659  13.955  64.361  1.00  0.00    -0.400 OA 
BRANCH   4   5
HETATM    5  C   UNL     1     -10.083  13.745  65.577  1.00  0.00    -0.284 C  
HETATM    6  O   UNL     1      -9.453  14.576  66.216  1.00  0.00    -0.289 OA 
BRANCH   5   7
HETATM    7  C   UNL     1     -10.290  12.317  66.007  1.00  0.00    -0.273 C  
BRANCH   7   8
HETATM    8  C   UNL     1     -10.680  11.445  64.816  1.00  0.00    -0.362 C  
BRANCH   8   9
HETATM    9  C   UNL     1      -9.609  10.388  64.554  1.00  0.00    -0.369 C  
BRANCH   9  10
HETATM   10  C   UNL     1      -9.865   9.126  65.324  1.00  0.00     0.169 C  
HETATM   11  C   UNL     1     -10.120   9.043  66.639  1.00  0.00    -0.355 C  
BRANCH  11  12
HETATM   12  C   UNL     1     -10.200  10.196  67.605  1.00  0.00    -0.246 C  
BRANCH  12  13
HETATM   13  C   UNL     1     -11.192   9.898  68.735  1.00  0.00    -0.122 C  
HETATM   14  C   UNL     1     -11.242   8.426  69.165  1.00  0.00     0.358 C  
HETATM   15  C   UNL     1     -11.914   8.494  70.528  1.00  0.00     0.055 C  
HETATM   16  O   UNL     1      -9.935   7.881  69.336  1.00  0.00    -0.181 OA 
HETATM   17  C   UNL     1     -11.233   9.690  71.193  1.00  0.00    -0.384 C  
HETATM   18  H   UNL     1      -9.967   6.969  69.603  1.00  0.00     0.000 HD 
HETATM   19  C   UNL     1     -10.867  10.666  70.044  1.00  0.00    -0.280 C  
HETATM   20  O   UNL     1     -10.045   9.259  71.859  1.00  0.00    -0.250 OA 
HETATM   21  H   UNL     1      -9.622  10.003  72.273  1.00  0.00     0.000 HD 
BRANCH  19  22
HETATM   22  C   UNL     1     -11.579  11.998  70.176  1.00  0.00    -0.228 C  
HETATM   23  C   UNL     1     -11.243  13.121  69.513  1.00  0.00    -0.151 C  
BRANCH  23  24
HETATM   24  C   UNL     1     -12.026  14.411  69.549  1.00  0.00    -0.330 C  
HETATM   25  F   UNL     1     -12.681  14.522  70.737  1.00  0.00    -0.352 F  
HETATM   26  F   UNL     1     -12.982  14.386  68.581  1.00  0.00     0.224 F  
BRANCH  24  27
HETATM   27  C   UNL     1     -11.122  15.638  69.346  1.00  0.00    -0.303 C  
BRANCH  27  28
HETATM   28  O   UNL     1     -11.487  16.350  68.154  1.00  0.00    -0.283 OA 
BRANCH  28  29
HETATM   29  C   UNL     1     -10.614  17.329  67.765  1.00  0.00    -0.367 A  
HETATM   30  C   UNL     1     -10.159  17.240  66.448  1.00  0.00    -0.321 A  
HETATM   31  C   UNL     1      -9.267  18.188  65.942  1.00  0.00     0.163 A  
HETATM   32  C   UNL     1      -8.837  19.239  66.749  1.00  0.00    -0.344 A  
HETATM   33  C   UNL     1      -9.303  19.345  68.058  1.00  0.00    -0.402 A  
HETATM   34  C   UNL     1     -10.192  18.393  68.567  1.00  0.00    -0.394 A  
ENDBRANCH  28  29
ENDBRANCH  27  28
ENDBRANCH  24  27
ENDBRANCH  23  24
ENDBRANCH  19  22
ENDBRANCH  12  13
ENDBRANCH  11  12
ENDBRANCH   9  10
ENDBRANCH   8   9
ENDBRANCH   7   8
ENDBRANCH   5   7
ENDBRANCH   4   5
ENDBRANCH   2   4
TORSDOF 13
ENDMDL
MODEL      349
REMARK 921   NORMALIZED FREE ENERGY PREDICTED BY IDOCK:   -0.24 KCAL/MOL
REMARK 922        TOTAL FREE ENERGY PREDICTED BY IDOCK:   -3.26 KCAL/MOL
REMARK 923 INTER-LIGAND FREE ENERGY PREDICTED BY IDOCK:   -4.06 KCAL/MOL
REMARK 924 INTRA-LIGAND FREE ENERGY PREDICTED BY IDOCK:    0.80 KCAL/MOL
REMARK 927      BINDING AFFINITY PREDICTED BY RF-SCORE:    0.00 PKD
ROOT
HETATM    1  C   UNL     1     -11.827  16.653  70.499  1.00  0.00     0.652 C  
HETATM    2  C   UNL     1     -11.781  15.503  71.500  1.00  0.00    -0.412 C  
HETATM    3  C   UNL     1     -13.012  15.519  72.398  1.00  0.00    -0.511 C  
ENDROOT
BRANCH   2   4
HETATM    4  O   UNL     1     -11.776  14.252  70.790  1.00  0.00    -0.288 OA 
BRANCH   4   5
HETATM    5  C   UNL     1     -10.754  14.084  69.905  1.00  0.00     0.305 C  
HETATM    6  O   UNL     1      -9.740  14.766  69.856  1.00  0.00     0.095 OA 
BRANCH   5   7
HETATM    7  C   UNL     1     -11.073  12.961  68.954  1.00  0.00    -0.301 C  
BRANCH   7   8
HETATM    8  C   UNL     1     -10.092  12.949  67.784  1.00  0.00    -0.229 C  
BRANCH   8   9
HETATM    9  C   UNL     1      -9.894  14.361  67.238  1.00  0.00    -0.247 C  
BRANCH   9  10
HETATM   10  C   UNL     1      -9.890  14.390  65.738  1.00  0.00    -0.330 C  
HETATM   11  C   UNL     1     -10.327  13.410  64.931  1.00  0.00    -0.382 C  
BRANCH  11  12
HETATM   12  C   UNL     1     -10.906  12.089  65.366  1.00  0.00    -0.336 C  
BRANCH  12  13
HETATM   13  C   UNL     1     -10.222  10.925  64.640  1.00  0.00    -0.411 C  
HETATM   14  C   UNL     1     -10.408  10.928  63.117  1.00  0.00    -0.109 C  
HETATM   15  C   UNL     1      -9.305   9.995  62.638  1.00  0.00    -0.296 C  
HETATM   16  O   UNL     1     -10.177  12.220  62.559  1.00  0.00    -0.062 OA 
HETATM   17  C   UNL     1      -8.103  10.416  63.483  1.00  0.00    -0.116 C  
HETATM   18  H   UNL     1     -10.292  12.221  61.615  1.00  0.00     0.000 HD 
HETATM   19  C   UNL     1      -8.682  10.911  64.834  1.00  0.00    -0.075 C  
HETATM   20  O   UNL     1      -7.409  11.483  62.835  1.00  0.00     0.159 OA 
HETATM   21  H   UNL     1      -6.661  11.744  63.360  1.00  0.00     0.000 HD 
BRANCH  19  22
HETATM   22  C   UNL     1      -8.212  10.066  66.002  1.00  0.00    -0.126 C  
HETATM   23  C   UNL     1      -8.032   8.732  65.967  1.00  0.00    -0.107 C  
BRANCH  23  24
HETATM   24  C   UNL     1      -7.446   7.909  67.089  1.00  0.00    -0.092 C  
HETATM   25  F   UNL     1      -7.676   8.524  68.282  1.00  0.00    -0.094 F  
HETATM   26  F   UNL     1      -6.094   7.844  66.941  1.00  0.00    -0.046 F  
BRANCH  24  27
HETATM   27  C   UNL     1      -8.028   6.487  67.125  1.00  0.00    -0.112 C  
BRANCH  27  28
HETATM   28  O   UNL     1      -7.036   5.520  66.752  1.00  0.00    -0.067 OA 
BRANCH  28  29
HETATM   29  C   UNL     1      -7.331   4.775  65.642  1.00  0.00    -0.077 A  
HETATM   30  C   UNL     1      -8.401   5.239  64.874  1.00  0.00    -0.144 A  
HETATM   31  C   UNL     1      -8.789   4.558  63.717  1.00  0.00    -0.140 A  
HETATM   32  C   UNL     1      -8.097   3.418  63.316  1.00  0.00    -0.080 A  
HETATM   33  C   UNL     1      -7.015   2.961  64.068  1.00  0.00    -0.041 A  
HETATM   34  C   UNL     1      -6.630   3.638  65.228  1.00  0.00    -0.040 A  
ENDBRANCH  28  29
ENDBRANCH  27  28
ENDBRANCH  24  27
ENDBRANCH  23  24
ENDBRANCH  19  22
ENDBRANCH  12  13
ENDBRANCH  11  12
ENDBRANCH   9  10
ENDBRANCH   8   9
ENDBRANCH   7   8
ENDBRANCH   5   7
ENDBRANCH   4   5
ENDBRANCH   2   4
TORSDOF 13
ENDMDL
MODEL      350
REMARK 921   NORMALIZED FREE ENERGY PREDICTED BY IDOCK:    0.12 KCAL/MOL
REMARK 922        TOTAL FREE ENERGY PREDICTED BY IDOCK:   -2.63 KCAL/MOL
REMARK 923 INTER-LIGAND FREE ENERGY PREDICTED BY IDOCK:   -3.21 KCAL/MOL
REMARK 924 INTRA-LIGAND FREE ENERGY PREDICTED BY IDOCK:    0.58 KCAL/MOL
REMARK 927      BINDING AFFINITY PREDICTED BY RF-SCORE:    0.00 PKD
ROOT
HETATM    1  C   UNL     1      -7.406  19.615  69.375  1.00  0.00    -0.229 C  
HETATM    2  C   UNL     1      -8.177  18.494  68.686  1.00  0.00    -0.308 C  
HETATM    3  C   UNL     1      -9.679  18.687  68.858  1.00  0.00    -0.363 C  
ENDROOT
BRANCH   2   4
HETATM    4  O   UNL     1      -7.895  18.517  67.275  1.00  0.00    -0.231 OA 
BRANCH   4   5
HETATM    5  C   UNL     1      -6.575  18.587  66.943  1.00  0.00    -0.185 C  
HETATM    6  O   UNL     1      -6.114  19.219  66.004  1.00  0.00    -0.171 OA 
BRANCH   5   7
HETATM    7  C   UNL     1      -5.762  17.728  67.875  1.00  0.00    -0.147 C  
BRANCH   7   8
HETATM    8  C   UNL     1      -5.900  16.252  67.508  1.00  0.00    -0.183 C  
BRANCH   8   9
HETATM    9  C   UNL     1      -5.178  15.378  68.530  1.00  0.00    -0.097 C  
BRANCH   9  10
HETATM   10  C   UNL     1      -6.087  14.947  69.644  1.00  0.00    -0.125 C  
HETATM   11  C   UNL     1      -6.755  13.784  69.709  1.00  0.00     0.027 C  
BRANCH  11  12
HETATM   12  C   UNL     1      -6.729  12.682  68.683  1.00  0.00    -0.088 C  
BRANCH  12  13
HETATM   13  C   UNL     1      -8.145  12.345  68.203  1.00  0.00    -0.163 C  
HETATM   14  C   UNL     1      -9.267  12.980  69.035  1.00  0.00     0.484 C  
HETATM   15  C   UNL     1     -10.474  12.874  68.116  1.00  0.00    -0.245 C  
HETATM   16  O   UNL     1      -9.018  14.361  69.291  1.00  0.00    -0.387 OA 
HETATM   17  C   UNL     1      -9.910  13.278  66.754  1.00  0.00    -0.264 C  
HETATM   18  H   UNL     1      -9.713  14.754  69.806  1.00  0.00     0.000 HD 
HETATM   19  C   UNL     1      -8.425  12.830  66.755  1.00  0.00    -0.036 C  
HETATM   20  O   UNL     1      -9.987  14.697  66.603  1.00  0.00    -0.258 OA 
HETATM   21  H   UNL     1      -9.637  14.948  65.756  1.00  0.00     0.000 HD 
BRANCH  19  22
HETATM   22  C   UNL     1      -8.140  11.793  65.687  1.00  0.00     0.672 C  
HETATM   23  C   UNL     1      -8.749  10.596  65.591  1.00  0.00    -0.198 C  
BRANCH  23  24
HETATM   24  C   UNL     1      -8.556   9.617  64.458  1.00  0.00    -0.188 C  
HETATM   25  F   UNL     1      -8.811   8.352  64.892  1.00  0.00    -0.182 F  
HETATM   26  F   UNL     1      -7.254   9.635  64.063  1.00  0.00    -0.101 F  
BRANCH  24  27
HETATM   27  C   UNL     1      -9.461   9.939  63.258  1.00  0.00    -0.067 C  
BRANCH  27  28
HETATM   28  O   UNL     1      -9.453  11.346  62.975  1.00  0.00    -0.348 OA 
BRANCH  28  29
HETATM   29  C   UNL     1     -10.586  12.023  63.337  1.00  0.00    -0.428 A  
HETATM   30  C   UNL     1     -11.713  11.231  63.564  1.00  0.00     0.171 A  
HETATM   31  C   UNL     1     -12.924  11.815  63.940  1.00  0.00    -0.144 A  
HETATM   32  C   UNL     1     -13.009  13.196  64.106  1.00  0.00     0.171 A  
HETATM   33  C   UNL     1     -11.882  13.991  63.901  1.00  0.00    -0.263 A  
HETATM   34  C   UNL     1     -10.671  13.407  63.518  1.00  0.00     0.668 A  
ENDBRANCH  28  29
ENDBRANCH  27  28
ENDBRANCH  24  27
ENDBRANCH  23  24
ENDBRANCH  19  22
ENDBRANCH  12  13
ENDBRANCH  11  12
ENDBRANCH   9  10
ENDBRANCH   8   9
ENDBRANCH   7   8
ENDBRANCH   5   7
ENDBRANCH   4   5
ENDBRANCH   2   4
TORSDOF 13
ENDMDL
MODEL      351
REMARK 921   NORMALIZED FREE ENERGY PREDICTED BY IDOCK:    0.65 KCAL/MOL
REMARK 922        TOTAL FREE ENERGY PREDICTED BY IDOCK:   -1.68 KCAL/MOL
REMARK 923 INTER-LIGAND FREE ENERGY PREDICTED BY IDOCK:   -6.32 KCAL/MOL
REMARK 924 INTRA-LIGAND FREE ENERGY PREDICTED BY IDOCK:    4.64 KCAL/MOL
REMARK 927      BINDING AFFINITY PREDICTED BY RF-SCORE:    0.00 PKD
ROOT
HETATM    1  C   UNL     1      -7.178   7.262  72.157  1.00  0.00    -0.068 C  
HETATM    2  C   UNL     1      -6.659   5.831  72.063  1.00  0.00    -0.058 C  
HETATM    3  C   UNL     1      -7.095   5.017  73.275  1.00  0.00    -0.081 C  
ENDROOT
BRANCH   2   4
HETATM    4  O   UNL     1      -7.209   5.199  70.894  1.00  0.00    -0.060 OA 
BRANCH   4   5
HETATM    5  C   UNL     1      -7.105   5.913  69.738  1.00  0.00    -0.068 C  
HETATM    6  O   UNL     1      -7.154   5.446  68.609  1.00  0.00    -0.062 OA 
BRANCH   5   7
HETATM    7  C   UNL     1      -6.868   7.367  70.049  1.00  0.00    -0.055 C  
BRANCH   7   8
HETATM    8  C   UNL     1      -8.166   8.164  69.928  1.00  0.00    -0.118 C  
BRANCH   8   9
HETATM    9  C   UNL     1      -8.936   7.745  68.679  1.00  0.00    -0.133 C  
BRANCH   9  10
HETATM   10  C   UNL     1      -8.520   8.530  67.470  1.00  0.00    -0.128 C  
HETATM   11  C   UNL     1      -8.686   9.851  67.294  1.00  0.00    -0.131 C  
BRANCH  11  12
HETATM   12  C   UNL     1      -9.323  10.806  68.268  1.00  0.00    -0.161 C  
BRANCH  12  13
HETATM   13  C   UNL     1      -8.352  11.930  68.649  1.00  0.00    -0.058 C  
HETATM   14  C   UNL     1      -7.014  11.447  69.223  1.00  0.00    -0.115 C  
HETATM   15  C   UNL     1      -6.122  12.671  69.079  1.00  0.00    -0.085 C  
HETATM   16  O   UNL     1      -6.455  10.391  68.445  1.00  0.00    -0.055 OA 
HETATM   17  C   UNL     1      -6.463  13.189  67.683  1.00  0.00    -0.163 C  
HETATM   18  H   UNL     1      -5.626  10.093  68.801  1.00  0.00     0.000 HD 
HETATM   19  C   UNL     1      -7.949  12.817  67.440  1.00  0.00    -0.179 C  
HETATM   20  O   UNL     1      -5.638  12.539  66.713  1.00  0.00    -0.453 OA 
HETATM   21  H   UNL     1      -5.850  12.862  65.845  1.00  0.00     0.000 HD 
BRANCH  19  22
HETATM   22  C   UNL     1      -8.822  14.042  67.251  1.00  0.00    -0.225 C  
HETATM   23  C   UNL     1      -9.574  14.293  66.163  1.00  0.00    -0.300 C  
BRANCH  23  24
HETATM   24  C   UNL     1     -10.538  15.447  66.026  1.00  0.00    -0.322 C  
HETATM   25  F   UNL     1     -11.614  15.065  65.284  1.00  0.00    -0.342 F  
HETATM   26  F   UNL     1      -9.936  16.458  65.342  1.00  0.00    -0.315 F  
BRANCH  24  27
HETATM   27  C   UNL     1     -11.015  15.964  67.393  1.00  0.00    -0.257 C  
BRANCH  27  28
HETATM   28  O   UNL     1      -9.964  16.674  68.065  1.00  0.00    -0.245 OA 
BRANCH  28  29
HETATM   29  C   UNL     1      -9.570  17.841  67.468  1.00  0.00    -0.268 A  
HETATM   30  C   UNL     1      -8.200  18.107  67.515  1.00  0.00    -0.236 A  
HETATM   31  C   UNL     1      -7.685  19.269  66.935  1.00  0.00    -0.262 A  
HETATM   32  C   UNL     1      -8.538  20.163  66.291  1.00  0.00    -0.272 A  
HETATM   33  C   UNL     1      -9.904  19.892  66.222  1.00  0.00    -0.570 A  
HETATM   34  C   UNL     1     -10.421  18.732  66.807  1.00  0.00    -0.478 A  
ENDBRANCH  28  29
ENDBRANCH  27  28
ENDBRANCH  24  27
ENDBRANCH  23  24
ENDBRANCH  19  22
ENDBRANCH  12  13
ENDBRANCH  11  12
ENDBRANCH   9  10
ENDBRANCH   8   9
ENDBRANCH   7   8
ENDBRANCH   5   7
ENDBRANCH   4   5
ENDBRANCH   2   4
TORSDOF 13
ENDMDL
MODEL      352
REMARK 921   NORMALIZED FREE ENERGY PREDICTED BY IDOCK:    2.07 KCAL/MOL
REMARK 922        TOTAL FREE ENERGY PREDICTED BY IDOCK:    0.81 KCAL/MOL
REMARK 923 INTER-LIGAND FREE ENERGY PREDICTED BY IDOCK:   -1.05 KCAL/MOL
REMARK 924 INTRA-LIGAND FREE ENERGY PREDICTED BY IDOCK:    1.86 KCAL/MOL
REMARK 927      BINDING AFFINITY PREDICTED BY RF-SCORE:    0.00 PKD
ROOT
HETATM    1  C   UNL     1      -9.310  11.269  69.896  1.00  0.00     1.349 C  
HETATM    2  C   UNL     1      -9.656   9.794  70.072  1.00  0.00    -0.241 C  
HETATM    3  C   UNL     1      -8.469   8.913  69.702  1.00  0.00    -0.129 C  
ENDROOT
BRANCH   2   4
HETATM    4  O   UNL     1      -9.973   9.539  71.452  1.00  0.00    -0.225 OA 
BRANCH   4   5
HETATM    5  C   UNL     1     -11.247   9.118  71.692  1.00  0.00    -0.377 C  
HETATM    6  O   UNL     1     -11.562   8.011  72.103  1.00  0.00    -0.297 OA 
BRANCH   5   7
HETATM    7  C   UNL     1     -12.225  10.203  71.328  1.00  0.00    -0.496 C  
BRANCH   7   8
HETATM    8  C   UNL     1     -12.258  10.417  69.816  1.00  0.00    -0.166 C  
BRANCH   8   9
HETATM    9  C   UNL     1     -11.838  11.843  69.469  1.00  0.00    -0.395 C  
BRANCH   9  10
HETATM   10  C   UNL     1     -12.764  12.476  68.473  1.00  0.00     1.422 C  
HETATM   11  C   UNL     1     -12.422  12.930  67.257  1.00  0.00     0.433 C  
BRANCH  11  12
HETATM   12  C   UNL     1     -11.044  12.898  66.650  1.00  0.00    -0.316 C  
BRANCH  12  13
HETATM   13  C   UNL     1     -11.024  13.616  65.295  1.00  0.00    -0.314 C  
HETATM   14  C   UNL     1     -12.024  13.066  64.269  1.00  0.00    -0.402 C  
HETATM   15  C   UNL     1     -12.117  14.191  63.250  1.00  0.00     0.521 C  
HETATM   16  O   UNL     1     -13.315  12.871  64.842  1.00  0.00    -0.716 OA 
HETATM   17  C   UNL     1     -12.191  15.445  64.120  1.00  0.00    -0.057 C  
HETATM   18  H   UNL     1     -13.934  12.531  64.206  1.00  0.00     0.000 HD 
HETATM   19  C   UNL     1     -11.381  15.122  65.403  1.00  0.00    -0.298 C  
HETATM   20  O   UNL     1     -13.552  15.714  64.463  1.00  0.00     0.945 OA 
HETATM   21  H   UNL     1     -13.598  16.493  65.004  1.00  0.00     0.000 HD 
BRANCH  19  22
HETATM   22  C   UNL     1     -10.181  16.034  65.566  1.00  0.00    -0.389 C  
HETATM   23  C   UNL     1     -10.236  17.378  65.626  1.00  0.00    -0.117 C  
BRANCH  23  24
HETATM   24  C   UNL     1      -9.058  18.279  65.912  1.00  0.00     0.216 C  
HETATM   25  F   UNL     1      -9.282  19.515  65.386  1.00  0.00     0.052 F  
HETATM   26  F   UNL     1      -7.953  17.788  65.290  1.00  0.00     0.231 F  
BRANCH  24  27
HETATM   27  C   UNL     1      -8.786  18.407  67.420  1.00  0.00    -0.260 C  
BRANCH  27  28
HETATM   28  O   UNL     1      -9.015  17.158  68.088  1.00  0.00    -0.227 OA 
BRANCH  28  29
HETATM   29  C   UNL     1      -7.926  16.335  68.184  1.00  0.00    -0.157 A  
HETATM   30  C   UNL     1      -8.198  14.968  68.109  1.00  0.00    -0.140 A  
HETATM   31  C   UNL     1      -7.162  14.035  68.193  1.00  0.00    -0.129 A  
HETATM   32  C   UNL     1      -5.846  14.468  68.336  1.00  0.00    -0.105 A  
HETATM   33  C   UNL     1      -5.565  15.833  68.390  1.00  0.00    -0.111 A  
HETATM   34  C   UNL     1      -6.603  16.766  68.312  1.00  0.00    -0.152 A  
ENDBRANCH  28  29
ENDBRANCH  27  28
ENDBRANCH  24  27
ENDBRANCH  23  24
ENDBRANCH  19  22
ENDBRANCH  12  13
ENDBRANCH  11  12
ENDBRANCH   9  10
ENDBRANCH   8   9
ENDBRANCH   7   8
ENDBRANCH   5   7
ENDBRANCH   4   5
ENDBRANCH   2   4
TORSDOF 13
ENDMDL
MODEL      353
REMARK 921   NORMALIZED FREE ENERGY PREDICTED BY IDOCK:    2.34 KCAL/MOL
REMARK 922        TOTAL FREE ENERGY PREDICTED BY IDOCK:    1.29 KCAL/MOL
REMARK 923 INTER-LIGAND FREE ENERGY PREDICTED BY IDOCK:   -0.36 KCAL/MOL
REMARK 924 INTRA-LIGAND FREE ENERGY PREDICTED BY IDOCK:    1.65 KCAL/MOL
REMARK 927      BINDING AFFINITY PREDICTED BY RF-SCORE:    0.00 PKD
ROOT
HETATM    1  C   UNL     1      -7.165  20.048  69.333  1.00  0.00    -0.128 C  
HETATM    2  C   UNL     1      -8.167  18.907  69.190  1.00  0.00    -0.046 C  
HETATM    3  C   UNL     1      -9.388  19.148  70.069  1.00  0.00     0.938 C  
ENDROOT
BRANCH   2   4
HETATM    4  O   UNL     1      -8.620  18.837  67.827  1.00  0.00    -0.276 OA 
BRANCH   4   5
HETATM    5  C   UNL     1      -7.668  19.070  66.881  1.00  0.00    -0.242 C  
HETATM    6  O   UNL     1      -7.863  19.589  65.791  1.00  0.00    -0.406 OA 
BRANCH   5   7
HETATM    7  C   UNL     1      -6.335  18.547  67.350  1.00  0.00    -0.197 C  
BRANCH   7   8
HETATM    8  C   UNL     1      -6.308  17.021  67.308  1.00  0.00    -0.196 C  
BRANCH   8   9
HETATM    9  C   UNL     1      -5.154  16.484  68.151  1.00  0.00    -0.109 C  
BRANCH   9  10
HETATM   10  C   UNL     1      -5.527  16.353  69.598  1.00  0.00    -0.147 C  
HETATM   11  C   UNL     1      -6.206  15.333  70.148  1.00  0.00    -0.131 C  
BRANCH  11  12
HETATM   12  C   UNL     1      -6.729  14.120  69.425  1.00  0.00    -0.116 C  
BRANCH  12  13
HETATM   13  C   UNL     1      -8.260  14.073  69.469  1.00  0.00     0.618 C  
HETATM   14  C   UNL     1      -8.905  15.145  70.358  1.00  0.00     1.091 C  
HETATM   15  C   UNL     1     -10.347  15.165  69.874  1.00  0.00    -0.207 C  
HETATM   16  O   UNL     1      -8.336  16.433  70.128  1.00  0.00     1.014 OA 
HETATM   17  C   UNL     1     -10.205  15.102  68.354  1.00  0.00    -0.221 C  
HETATM   18  H   UNL     1      -8.736  17.097  70.678  1.00  0.00     0.000 HD 
HETATM   19  C   UNL     1      -8.913  14.290  68.078  1.00  0.00    -0.183 C  
HETATM   20  O   UNL     1     -10.067  16.424  67.828  1.00  0.00    -0.250 OA 
HETATM   21  H   UNL     1      -9.980  16.385  66.883  1.00  0.00     0.000 HD 
BRANCH  19  22
HETATM   22  C   UNL     1      -9.195  13.009  67.317  1.00  0.00    -0.213 C  
HETATM   23  C   UNL     1     -10.128  12.100  67.656  1.00  0.00    -0.205 C  
BRANCH  23  24
HETATM   24  C   UNL     1     -10.494  10.889  66.831  1.00  0.00    -0.249 C  
HETATM   25  F   UNL     1     -11.337  10.086  67.538  1.00  0.00    -0.357 F  
HETATM   26  F   UNL     1      -9.374  10.155  66.587  1.00  0.00    -0.166 F  
BRANCH  24  27
HETATM   27  C   UNL     1     -11.154  11.278  65.499  1.00  0.00    -0.067 C  
BRANCH  27  28
HETATM   28  O   UNL     1     -10.392  12.293  64.829  1.00  0.00    -0.275 OA 
BRANCH  28  29
HETATM   29  C   UNL     1     -10.961  13.538  64.814  1.00  0.00    -0.373 A  
HETATM   30  C   UNL     1     -12.312  13.586  65.164  1.00  0.00    -0.488 A  
HETATM   31  C   UNL     1     -12.994  14.805  65.185  1.00  0.00     0.313 A  
HETATM   32  C   UNL     1     -12.322  15.984  64.870  1.00  0.00     0.964 A  
HETATM   33  C   UNL     1     -10.968  15.945  64.540  1.00  0.00    -0.199 A  
HETATM   34  C   UNL     1     -10.286  14.725  64.513  1.00  0.00     0.153 A  
ENDBRANCH  28  29
ENDBRANCH  27  28
ENDBRANCH  24  27
ENDBRANCH  23  24
ENDBRANCH  19  22
ENDBRANCH  12  13
ENDBRANCH  11  12
ENDBRANCH   9  10
ENDBRANCH   8   9
ENDBRANCH   7   8
ENDBRANCH   5   7
ENDBRANCH   4   5
ENDBRANCH   2   4
TORSDOF 13
ENDMDL
MODEL      354
REMARK 921   NORMALIZED FREE ENERGY PREDICTED BY IDOCK:    3.03 KCAL/MOL
REMARK 922        TOTAL FREE ENERGY PREDICTED BY IDOCK:    2.49 KCAL/MOL
REMARK 923 INTER-LIGAND FREE ENERGY PREDICTED BY IDOCK:   -3.30 KCAL/MOL
REMARK 924 INTRA-LIGAND FREE ENERGY PREDICTED BY IDOCK:    5.79 KCAL/MOL
REMARK 927      BINDING AFFINITY PREDICTED BY RF-SCORE:    0.00 PKD
ROOT
HETATM    1  C   UNL     1      -6.263  12.111  68.096  1.00  0.00    -0.055 C  
HETATM    2  C   UNL     1      -7.739  12.344  68.402  1.00  0.00    -0.144 C  
HETATM    3  C   UNL     1      -8.551  12.427  67.115  1.00  0.00    -0.189 C  
ENDROOT
BRANCH   2   4
HETATM    4  O   UNL     1      -8.248  11.237  69.167  1.00  0.00    -0.077 OA 
BRANCH   4   5
HETATM    5  C   UNL     1      -8.712  10.185  68.437  1.00  0.00    -0.123 C  
HETATM    6  O   UNL     1      -9.771  10.159  67.825  1.00  0.00    -0.150 OA 
BRANCH   5   7
HETATM    7  C   UNL     1      -7.753   9.028  68.530  1.00  0.00    -0.097 C  
BRANCH   7   8
HETATM    8  C   UNL     1      -6.363   9.439  68.048  1.00  0.00    -0.057 C  
BRANCH   8   9
HETATM    9  C   UNL     1      -6.297   9.417  66.523  1.00  0.00    -0.066 C  
BRANCH   9  10
HETATM   10  C   UNL     1      -5.950   8.056  65.995  1.00  0.00    -0.038 C  
HETATM   11  C   UNL     1      -6.812   7.175  65.463  1.00  0.00    -0.052 C  
BRANCH  11  12
HETATM   12  C   UNL     1      -8.295   7.372  65.290  1.00  0.00    -0.110 C  
BRANCH  12  13
HETATM   13  C   UNL     1      -9.026   6.026  65.239  1.00  0.00     0.067 C  
HETATM   14  C   UNL     1      -8.869   5.266  63.915  1.00  0.00     0.080 C  
HETATM   15  C   UNL     1      -9.274   3.848  64.288  1.00  0.00    -0.146 C  
HETATM   16  O   UNL     1      -7.512   5.245  63.476  1.00  0.00    -0.049 OA 
HETATM   17  C   UNL     1      -8.583   3.631  65.634  1.00  0.00    -0.113 C  
HETATM   18  H   UNL     1      -7.415   4.774  62.657  1.00  0.00     0.000 HD 
HETATM   19  C   UNL     1      -8.525   5.025  66.314  1.00  0.00    -0.112 C  
HETATM   20  O   UNL     1      -7.258   3.141  65.423  1.00  0.00    -0.064 OA 
HETATM   21  H   UNL     1      -6.829   3.006  66.260  1.00  0.00     0.000 HD 
BRANCH  19  22
HETATM   22  C   UNL     1      -9.309   5.062  67.611  1.00  0.00    -0.141 C  
HETATM   23  C   UNL     1      -8.766   5.040  68.842  1.00  0.00    -0.100 C  
BRANCH  23  24
HETATM   24  C   UNL     1      -9.536   5.202  70.130  1.00  0.00    -0.181 C  
HETATM   25  F   UNL     1      -8.673   5.404  71.164  1.00  0.00    -0.121 F  
HETATM   26  F   UNL     1     -10.205   4.049  70.404  1.00  0.00    -0.249 F  
BRANCH  24  27
HETATM   27  C   UNL     1     -10.534   6.370  70.061  1.00  0.00    -0.215 C  
BRANCH  27  28
HETATM   28  O   UNL     1      -9.979   7.551  70.659  1.00  0.00    -0.184 OA 
BRANCH  28  29
HETATM   29  C   UNL     1      -8.911   7.341  71.489  1.00  0.00    -0.122 A  
HETATM   30  C   UNL     1      -7.683   7.150  70.851  1.00  0.00    -0.094 A  
HETATM   31  C   UNL     1      -6.524   6.931  71.599  1.00  0.00    -0.048 A  
HETATM   32  C   UNL     1      -6.586   6.916  72.991  1.00  0.00    -0.062 A  
HETATM   33  C   UNL     1      -7.806   7.127  73.634  1.00  0.00    -0.123 A  
HETATM   34  C   UNL     1      -8.967   7.341  72.885  1.00  0.00    -0.168 A  
ENDBRANCH  28  29
ENDBRANCH  27  28
ENDBRANCH  24  27
ENDBRANCH  23  24
ENDBRANCH  19  22
ENDBRANCH  12  13
ENDBRANCH  11  12
ENDBRANCH   9  10
ENDBRANCH   8   9
ENDBRANCH   7   8
ENDBRANCH   5   7
ENDBRANCH   4   5
ENDBRANCH   2   4
TORSDOF 13
ENDMDL
MODEL      355
REMARK 921   NORMALIZED FREE ENERGY PREDICTED BY IDOCK:    6.49 KCAL/MOL
REMARK 922        TOTAL FREE ENERGY PREDICTED BY IDOCK:    8.58 KCAL/MOL
REMARK 923 INTER-LIGAND FREE ENERGY PREDICTED BY IDOCK:    9.65 KCAL/MOL
REMARK 924 INTRA-LIGAND FREE ENERGY PREDICTED BY IDOCK:   -1.06 KCAL/MOL
REMARK 927      BINDING AFFINITY PREDICTED BY RF-SCORE:    0.00 PKD
ROOT
HETATM    1  C   UNL     1      -7.316  12.728  66.832  1.00  0.00     0.235 C  
HETATM    2  C   UNL     1      -6.371  12.154  65.781  1.00  0.00     2.480 C  
HETATM    3  C   UNL     1      -5.127  13.022  65.642  1.00  0.00     5.393 C  
ENDROOT
BRANCH   2   4
HETATM    4  O   UNL     1      -5.943  10.843  66.189  1.00  0.00    -0.119 OA 
BRANCH   4   5
HETATM    5  C   UNL     1      -5.808   9.932  65.185  1.00  0.00    -0.088 C  
HETATM    6  O   UNL     1      -5.694  10.199  63.997  1.00  0.00    -0.113 OA 
BRANCH   5   7
HETATM    7  C   UNL     1      -5.869   8.535  65.743  1.00  0.00    -0.047 C  
BRANCH   7   8
HETATM    8  C   UNL     1      -5.913   8.564  67.270  1.00  0.00    -0.051 C  
BRANCH   8   9
HETATM    9  C   UNL     1      -7.218   9.192  67.754  1.00  0.00    -0.080 C  
BRANCH   9  10
HETATM   10  C   UNL     1      -8.414   8.368  67.376  1.00  0.00    -0.124 C  
HETATM   11  C   UNL     1      -9.266   7.779  68.229  1.00  0.00    -0.139 C  
BRANCH  11  12
HETATM   12  C   UNL     1      -9.195   7.825  69.733  1.00  0.00    -0.150 C  
BRANCH  12  13
HETATM   13  C   UNL     1     -10.597   7.915  70.346  1.00  0.00    -0.228 C  
HETATM   14  C   UNL     1     -11.135   6.590  70.903  1.00  0.00    -0.292 C  
HETATM   15  C   UNL     1     -12.266   7.039  71.815  1.00  0.00    -0.387 C  
HETATM   16  O   UNL     1     -10.160   5.916  71.696  1.00  0.00    -0.182 OA 
HETATM   17  C   UNL     1     -11.669   8.242  72.544  1.00  0.00    -0.383 C  
HETATM   18  H   UNL     1     -10.493   5.095  72.041  1.00  0.00     0.000 HD 
HETATM   19  C   UNL     1     -10.668   8.890  71.552  1.00  0.00    -0.398 C  
HETATM   20  O   UNL     1     -10.974   7.801  73.712  1.00  0.00    -0.405 OA 
HETATM   21  H   UNL     1     -10.604   8.548  74.166  1.00  0.00     0.000 HD 
BRANCH  19  22
HETATM   22  C   UNL     1     -11.065  10.306  71.182  1.00  0.00     0.011 C  
HETATM   23  C   UNL     1     -11.170  10.775  69.925  1.00  0.00    -0.371 C  
BRANCH  23  24
HETATM   24  C   UNL     1     -11.685  12.145  69.554  1.00  0.00    -0.336 C  
HETATM   25  F   UNL     1     -12.939  12.319  70.054  1.00  0.00     0.095 F  
HETATM   26  F   UNL     1     -11.793  12.234  68.200  1.00  0.00    -0.349 F  
BRANCH  24  27
HETATM   27  C   UNL     1     -10.767  13.264  70.071  1.00  0.00     0.959 C  
BRANCH  27  28
HETATM   28  O   UNL     1     -10.125  13.943  68.982  1.00  0.00    -0.152 OA 
BRANCH  28  29
HETATM   29  C   UNL     1     -10.833  14.982  68.440  1.00  0.00    -0.256 A  
HETATM   30  C   UNL     1     -11.567  15.747  69.348  1.00  0.00    -0.371 A  
HETATM   31  C   UNL     1     -12.324  16.835  68.907  1.00  0.00     1.882 A  
HETATM   32  C   UNL     1     -12.338  17.170  67.555  1.00  0.00     3.063 A  
HETATM   33  C   UNL     1     -11.591  16.422  66.646  1.00  0.00     0.874 A  
HETATM   34  C   UNL     1     -10.837  15.330  67.086  1.00  0.00    -0.322 A  
ENDBRANCH  28  29
ENDBRANCH  27  28
ENDBRANCH  24  27
ENDBRANCH  23  24
ENDBRANCH  19  22
ENDBRANCH  12  13
ENDBRANCH  11  12
ENDBRANCH   9  10
ENDBRANCH   8   9
ENDBRANCH   7   8
ENDBRANCH   5   7
ENDBRANCH   4   5
ENDBRANCH   2   4
TORSDOF 13
ENDMDL
MODEL      356
REMARK 921   NORMALIZED FREE ENERGY PREDICTED BY IDOCK:    8.46 KCAL/MOL
REMARK 922        TOTAL FREE ENERGY PREDICTED BY IDOCK:   12.06 KCAL/MOL
REMARK 923 INTER-LIGAND FREE ENERGY PREDICTED BY IDOCK:   10.64 KCAL/MOL
REMARK 924 INTRA-LIGAND FREE ENERGY PREDICTED BY IDOCK:    1.42 KCAL/MOL
REMARK 927      BINDING AFFINITY PREDICTED BY RF-SCORE:    0.00 PKD
ROOT
HETATM    1  C   UNL     1      -7.896  19.431  69.273  1.00  0.00    -0.164 C  
HETATM    2  C   UNL     1      -8.716  19.396  70.559  1.00  0.00     2.076 C  
HETATM    3  C   UNL     1     -10.206  19.339  70.249  1.00  0.00     1.069 C  
ENDROOT
BRANCH   2   4
HETATM    4  O   UNL     1      -8.381  18.213  71.306  1.00  0.00     6.892 OA 
BRANCH   4   5
HETATM    5  C   UNL     1      -7.279  17.539  70.873  1.00  0.00     3.993 C  
HETATM    6  O   UNL     1      -6.121  17.838  71.125  1.00  0.00     0.716 OA 
BRANCH   5   7
HETATM    7  C   UNL     1      -7.690  16.390  69.990  1.00  0.00     1.042 C  
BRANCH   7   8
HETATM    8  C   UNL     1      -8.935  16.749  69.181  1.00  0.00    -0.115 C  
BRANCH   8   9
HETATM    9  C   UNL     1     -10.187  16.179  69.845  1.00  0.00    -0.146 C  
BRANCH   9  10
HETATM   10  C   UNL     1     -11.243  15.821  68.841  1.00  0.00    -0.332 C  
HETATM   11  C   UNL     1     -11.574  14.579  68.455  1.00  0.00    -0.356 C  
BRANCH  11  12
HETATM   12  C   UNL     1     -10.954  13.298  68.948  1.00  0.00    -0.278 C  
BRANCH  12  13
HETATM   13  C   UNL     1     -10.639  12.356  67.781  1.00  0.00    -0.236 C  
HETATM   14  C   UNL     1     -11.731  12.289  66.705  1.00  0.00    -0.349 C  
HETATM   15  C   UNL     1     -10.998  11.687  65.515  1.00  0.00    -0.327 C  
HETATM   16  O   UNL     1     -12.192  13.588  66.338  1.00  0.00    -0.415 OA 
HETATM   17  C   UNL     1      -9.663  12.431  65.516  1.00  0.00    -0.136 C  
HETATM   18  H   UNL     1     -12.868  13.546  65.672  1.00  0.00     0.000 HD 
HETATM   19  C   UNL     1      -9.361  12.765  67.000  1.00  0.00    -0.229 C  
HETATM   20  O   UNL     1      -9.784  13.639  64.763  1.00  0.00    -0.586 OA 
HETATM   21  H   UNL     1      -8.954  14.101  64.763  1.00  0.00     0.000 HD 
BRANCH  19  22
HETATM   22  C   UNL     1      -8.092  12.096  67.490  1.00  0.00    -0.163 C  
HETATM   23  C   UNL     1      -7.913  11.595  68.727  1.00  0.00    -0.086 C  
BRANCH  23  24
HETATM   24  C   UNL     1      -6.698  10.819  69.177  1.00  0.00    -0.074 C  
HETATM   25  F   UNL     1      -5.923  11.598  69.980  1.00  0.00    -0.090 F  
HETATM   26  F   UNL     1      -5.938  10.503  68.093  1.00  0.00    -0.044 F  
BRANCH  24  27
HETATM   27  C   UNL     1      -7.082   9.533  69.927  1.00  0.00    -0.084 C  
BRANCH  27  28
HETATM   28  O   UNL     1      -7.242   8.438  69.014  1.00  0.00    -0.067 OA 
BRANCH  28  29
HETATM   29  C   UNL     1      -8.342   8.506  68.203  1.00  0.00    -0.127 A  
HETATM   30  C   UNL     1      -9.568   8.615  68.861  1.00  0.00    -0.159 A  
HETATM   31  C   UNL     1     -10.757   8.694  68.133  1.00  0.00    -0.116 A  
HETATM   32  C   UNL     1     -10.723   8.680  66.740  1.00  0.00    -0.086 A  
HETATM   33  C   UNL     1      -9.500   8.593  66.077  1.00  0.00    -0.278 A  
HETATM   34  C   UNL     1      -8.310   8.508  66.805  1.00  0.00    -0.109 A  
ENDBRANCH  28  29
ENDBRANCH  27  28
ENDBRANCH  24  27
ENDBRANCH  23  24
ENDBRANCH  19  22
ENDBRANCH  12  13
ENDBRANCH  11  12
ENDBRANCH   9  10
ENDBRANCH   8   9
ENDBRANCH   7   8
ENDBRANCH   5   7
ENDBRANCH   4   5
ENDBRANCH   2   4
TORSDOF 13
ENDMDL
MODEL      357
REMARK 921   NORMALIZED FREE ENERGY PREDICTED BY IDOCK:   10.91 KCAL/MOL
REMARK 922        TOTAL FREE ENERGY PREDICTED BY IDOCK:   16.36 KCAL/MOL
REMARK 923 INTER-LIGAND FREE ENERGY PREDICTED BY IDOCK:   15.32 KCAL/MOL
REMARK 924 INTRA-LIGAND FREE ENERGY PREDICTED BY IDOCK:    1.04 KCAL/MOL
REMARK 927      BINDING AFFINITY PREDICTED BY RF-SCORE:    0.00 PKD
ROOT
HETATM    1  C   UNL     1     -13.376  14.036  70.692  1.00  0.00     0.024 C  
HETATM    2  C   UNL     1     -12.385  14.154  69.539  1.00  0.00    -0.231 C  
HETATM    3  C   UNL     1     -11.163  13.278  69.785  1.00  0.00    -0.029 C  
ENDROOT
BRANCH   2   4
HETATM    4  O   UNL     1     -13.008  13.698  68.325  1.00  0.00     1.106 OA 
BRANCH   4   5
HETATM    5  C   UNL     1     -12.411  14.109  67.171  1.00  0.00    -0.003 C  
HETATM    6  O   UNL     1     -12.539  15.213  66.661  1.00  0.00     0.543 OA 
BRANCH   5   7
HETATM    7  C   UNL     1     -11.604  12.984  66.579  1.00  0.00    -0.407 C  
BRANCH   7   8
HETATM    8  C   UNL     1     -10.971  13.411  65.256  1.00  0.00    -0.306 C  
BRANCH   8   9
HETATM    9  C   UNL     1      -9.793  14.350  65.506  1.00  0.00    -0.299 C  
BRANCH   9  10
HETATM   10  C   UNL     1     -10.008  15.212  66.716  1.00  0.00    -0.246 C  
HETATM   11  C   UNL     1      -9.556  16.465  66.880  1.00  0.00    -0.255 C  
BRANCH  11  12
HETATM   12  C   UNL     1      -8.744  17.256  65.888  1.00  0.00     0.012 C  
BRANCH  12  13
HETATM   13  C   UNL     1      -7.636  18.047  66.592  1.00  0.00    -0.264 C  
HETATM   14  C   UNL     1      -6.444  18.409  65.695  1.00  0.00    -0.279 C  
HETATM   15  C   UNL     1      -5.760  19.523  66.472  1.00  0.00    -0.167 C  
HETATM   16  O   UNL     1      -6.869  18.933  64.439  1.00  0.00     0.161 OA 
HETATM   17  C   UNL     1      -6.930  20.384  66.948  1.00  0.00    -0.268 C  
HETATM   18  H   UNL     1      -6.131  19.157  63.884  1.00  0.00     0.000 HD 
HETATM   19  C   UNL     1      -8.124  19.413  67.144  1.00  0.00    -0.293 C  
HETATM   20  O   UNL     1      -7.254  21.352  65.948  1.00  0.00    -0.168 OA 
HETATM   21  H   UNL     1      -7.981  21.887  66.244  1.00  0.00     0.000 HD 
BRANCH  19  22
HETATM   22  C   UNL     1      -8.594  19.368  68.585  1.00  0.00    -0.394 C  
HETATM   23  C   UNL     1      -7.962  19.950  69.621  1.00  0.00     0.401 C  
BRANCH  23  24
HETATM   24  C   UNL     1      -8.494  20.011  71.033  1.00  0.00     2.099 C  
HETATM   25  F   UNL     1      -9.465  20.961  71.120  1.00  0.00     0.810 F  
HETATM   26  F   UNL     1      -7.497  20.400  71.874  1.00  0.00     0.166 F  
BRANCH  24  27
HETATM   27  C   UNL     1      -9.058  18.658  71.495  1.00  0.00     7.527 C  
BRANCH  27  28
HETATM   28  O   UNL     1     -10.488  18.637  71.384  1.00  0.00     2.075 OA 
BRANCH  28  29
HETATM   29  C   UNL     1     -11.137  17.856  72.302  1.00  0.00     2.675 A  
HETATM   30  C   UNL     1     -11.275  16.510  71.956  1.00  0.00     0.421 A  
HETATM   31  C   UNL     1     -11.918  15.620  72.819  1.00  0.00    -0.590 A  
HETATM   32  C   UNL     1     -12.412  16.071  74.041  1.00  0.00    -0.742 A  
HETATM   33  C   UNL     1     -12.258  17.409  74.402  1.00  0.00     0.336 A  
HETATM   34  C   UNL     1     -11.620  18.301  73.536  1.00  0.00     1.906 A  
ENDBRANCH  28  29
ENDBRANCH  27  28
ENDBRANCH  24  27
ENDBRANCH  23  24
ENDBRANCH  19  22
ENDBRANCH  12  13
ENDBRANCH  11  12
ENDBRANCH   9  10
ENDBRANCH   8   9
ENDBRANCH   7   8
ENDBRANCH   5   7
ENDBRANCH   4   5
ENDBRANCH   2   4
TORSDOF 13
ENDMDL
MODEL      358
REMARK 921   NORMALIZED FREE ENERGY PREDICTED BY IDOCK:   16.63 KCAL/MOL
REMARK 922        TOTAL FREE ENERGY PREDICTED BY IDOCK:   26.44 KCAL/MOL
REMARK 923 INTER-LIGAND FREE ENERGY PREDICTED BY IDOCK:   18.30 KCAL/MOL
REMARK 924 INTRA-LIGAND FREE ENERGY PREDICTED BY IDOCK:    8.14 KCAL/MOL
REMARK 927      BINDING AFFINITY PREDICTED BY RF-SCORE:    0.00 PKD
ROOT
HETATM    1  C   UNL     1      -7.328  12.781  66.771  1.00  0.00     0.437 C  
HETATM    2  C   UNL     1      -6.517  12.378  65.544  1.00  0.00     4.327 C  
HETATM    3  C   UNL     1      -5.384  13.365  65.298  1.00  0.00     9.941 C  
ENDROOT
BRANCH   2   4
HETATM    4  O   UNL     1      -5.927  11.085  65.765  1.00  0.00    -0.125 OA 
BRANCH   4   5
HETATM    5  C   UNL     1      -5.923  10.251  64.688  1.00  0.00    -0.130 C  
HETATM    6  O   UNL     1      -6.090  10.594  63.526  1.00  0.00    -0.093 OA 
BRANCH   5   7
HETATM    7  C   UNL     1      -5.733   8.827  65.138  1.00  0.00    -0.047 C  
BRANCH   7   8
HETATM    8  C   UNL     1      -5.369   8.772  66.620  1.00  0.00    -0.039 C  
BRANCH   8   9
HETATM    9  C   UNL     1      -6.521   9.299  67.473  1.00  0.00    -0.063 C  
BRANCH   9  10
HETATM   10  C   UNL     1      -6.085   9.618  68.873  1.00  0.00    -0.042 C  
HETATM   11  C   UNL     1      -6.074  10.836  69.436  1.00  0.00    -0.053 C  
BRANCH  11  12
HETATM   12  C   UNL     1      -6.495  12.125  68.779  1.00  0.00    -0.078 C  
BRANCH  12  13
HETATM   13  C   UNL     1      -7.227  13.034  69.773  1.00  0.00     0.649 C  
HETATM   14  C   UNL     1      -6.368  14.166  70.351  1.00  0.00    -0.103 C  
HETATM   15  C   UNL     1      -7.407  15.131  70.905  1.00  0.00     1.359 C  
HETATM   16  O   UNL     1      -5.628  14.839  69.335  1.00  0.00    -0.093 OA 
HETATM   17  C   UNL     1      -8.470  15.165  69.808  1.00  0.00     0.053 C  
HETATM   18  H   UNL     1      -5.096  15.541  69.694  1.00  0.00     0.000 HD 
HETATM   19  C   UNL     1      -8.444  13.763  69.144  1.00  0.00     0.388 C  
HETATM   20  O   UNL     1      -8.134  16.164  68.842  1.00  0.00    -0.202 OA 
HETATM   21  H   UNL     1      -8.796  16.185  68.161  1.00  0.00     0.000 HD 
BRANCH  19  22
HETATM   22  C   UNL     1      -9.760  13.029  69.306  1.00  0.00     0.693 C  
HETATM   23  C   UNL     1      -9.893  11.780  69.791  1.00  0.00     1.338 C  
BRANCH  23  24
HETATM   24  C   UNL     1     -11.210  11.096  70.070  1.00  0.00    -0.181 C  
HETATM   25  F   UNL     1     -11.954  11.855  70.921  1.00  0.00    -0.431 F  
HETATM   26  F   UNL     1     -10.979   9.916  70.705  1.00  0.00    -0.320 F  
BRANCH  24  27
HETATM   27  C   UNL     1     -12.008  10.839  68.781  1.00  0.00    -0.087 C  
BRANCH  27  28
HETATM   28  O   UNL     1     -12.152   9.432  68.543  1.00  0.00     1.256 OA 
BRANCH  28  29
HETATM   29  C   UNL     1     -11.997   8.631  69.642  1.00  0.00     1.038 A  
HETATM   30  C   UNL     1     -11.367   7.407  69.410  1.00  0.00     0.135 A  
HETATM   31  C   UNL     1     -11.154   6.511  70.461  1.00  0.00    -0.375 A  
HETATM   32  C   UNL     1     -11.556   6.844  71.752  1.00  0.00    -0.322 A  
HETATM   33  C   UNL     1     -12.167   8.074  71.993  1.00  0.00    -0.374 A  
HETATM   34  C   UNL     1     -12.387   8.968  70.942  1.00  0.00    -0.159 A  
ENDBRANCH  28  29
ENDBRANCH  27  28
ENDBRANCH  24  27
ENDBRANCH  23  24
ENDBRANCH  19  22
ENDBRANCH  12  13
ENDBRANCH  11  12
ENDBRANCH   9  10
ENDBRANCH   8   9
ENDBRANCH   7   8
ENDBRANCH   5   7
ENDBRANCH   4   5
ENDBRANCH   2   4
TORSDOF 13
ENDMDL
MODEL      359
REMARK 921   NORMALIZED FREE ENERGY PREDICTED BY IDOCK:   16.71 KCAL/MOL
REMARK 922        TOTAL FREE ENERGY PREDICTED BY IDOCK:   26.58 KCAL/MOL
REMARK 923 INTER-LIGAND FREE ENERGY PREDICTED BY IDOCK:    5.71 KCAL/MOL
REMARK 924 INTRA-LIGAND FREE ENERGY PREDICTED BY IDOCK:   20.87 KCAL/MOL
REMARK 927      BINDING AFFINITY PREDICTED BY RF-SCORE:    0.00 PKD
ROOT
HETATM    1  C   UNL     1     -12.140  17.191  70.401  1.00  0.00     3.337 C  
HETATM    2  C   UNL     1     -11.177  16.918  71.552  1.00  0.00     0.716 C  
HETATM    3  C   UNL     1     -11.935  16.750  72.863  1.00  0.00    -0.177 C  
ENDROOT
BRANCH   2   4
HETATM    4  O   UNL     1     -10.467  15.693  71.300  1.00  0.00     0.158 OA 
BRANCH   4   5
HETATM    5  C   UNL     1      -9.649  15.703  70.210  1.00  0.00     0.442 C  
HETATM    6  O   UNL     1      -8.657  16.406  70.075  1.00  0.00     0.706 OA 
BRANCH   5   7
HETATM    7  C   UNL     1     -10.171  14.755  69.164  1.00  0.00    -0.224 C  
BRANCH   7   8
HETATM    8  C   UNL     1     -10.165  15.414  67.786  1.00  0.00    -0.241 C  
BRANCH   8   9
HETATM    9  C   UNL     1     -10.223  16.934  67.920  1.00  0.00    -0.308 C  
BRANCH   9  10
HETATM   10  C   UNL     1      -8.858  17.555  67.878  1.00  0.00    -0.247 C  
HETATM   11  C   UNL     1      -7.865  17.218  67.040  1.00  0.00    -0.243 C  
BRANCH  11  12
HETATM   12  C   UNL     1      -7.919  16.152  65.978  1.00  0.00     0.313 C  
BRANCH  12  13
HETATM   13  C   UNL     1      -7.538  14.783  66.554  1.00  0.00     1.061 C  
HETATM   14  C   UNL     1      -6.031  14.493  66.561  1.00  0.00     3.373 C  
HETATM   15  C   UNL     1      -5.910  13.347  67.554  1.00  0.00    -0.026 C  
HETATM   16  O   UNL     1      -5.283  15.600  67.061  1.00  0.00    -0.295 OA 
HETATM   17  C   UNL     1      -6.835  13.774  68.693  1.00  0.00    -0.102 C  
HETATM   18  H   UNL     1      -4.349  15.420  67.065  1.00  0.00     0.000 HD 
HETATM   19  C   UNL     1      -7.964  14.610  68.036  1.00  0.00    -0.137 C  
HETATM   20  O   UNL     1      -6.112  14.584  69.622  1.00  0.00    -0.102 OA 
HETATM   21  H   UNL     1      -6.686  14.850  70.331  1.00  0.00     0.000 HD 
BRANCH  19  22
HETATM   22  C   UNL     1      -9.328  13.973  68.220  1.00  0.00    -0.208 C  
HETATM   23  C   UNL     1      -9.551  12.651  68.349  1.00  0.00    -0.173 C  
BRANCH  23  24
HETATM   24  C   UNL     1     -10.891  12.027  68.656  1.00  0.00    -0.237 C  
HETATM   25  F   UNL     1     -11.891  12.878  68.295  1.00  0.00    -0.324 F  
HETATM   26  F   UNL     1     -11.006  11.843  69.999  1.00  0.00    -0.131 F  
BRANCH  24  27
HETATM   27  C   UNL     1     -11.078  10.682  67.935  1.00  0.00    -0.308 C  
BRANCH  27  28
HETATM   28  O   UNL     1     -10.979   9.590  68.859  1.00  0.00    -0.185 OA 
BRANCH  28  29
HETATM   29  C   UNL     1      -9.705   9.182  69.151  1.00  0.00    -0.163 A  
HETATM   30  C   UNL     1      -8.718  10.163  69.032  1.00  0.00    -0.161 A  
HETATM   31  C   UNL     1      -7.383   9.861  69.308  1.00  0.00    -0.084 A  
HETATM   32  C   UNL     1      -7.031   8.577  69.719  1.00  0.00    -0.047 A  
HETATM   33  C   UNL     1      -8.014   7.599  69.859  1.00  0.00    -0.115 A  
HETATM   34  C   UNL     1      -9.350   7.900  69.578  1.00  0.00    -0.156 A  
ENDBRANCH  28  29
ENDBRANCH  27  28
ENDBRANCH  24  27
ENDBRANCH  23  24
ENDBRANCH  19  22
ENDBRANCH  12  13
ENDBRANCH  11  12
ENDBRANCH   9  10
ENDBRANCH   8   9
ENDBRANCH   7   8
ENDBRANCH   5   7
ENDBRANCH   4   5
ENDBRANCH   2   4
TORSDOF 13
ENDMDL
MODEL      360
REMARK 921   NORMALIZED FREE ENERGY PREDICTED BY IDOCK:   17.74 KCAL/MOL
REMARK 922        TOTAL FREE ENERGY PREDICTED BY IDOCK:   28.39 KCAL/MOL
REMARK 923 INTER-LIGAND FREE ENERGY PREDICTED BY IDOCK:    2.86 KCAL/MOL
REMARK 924 INTRA-LIGAND FREE ENERGY PREDICTED BY IDOCK:   25.53 KCAL/MOL
REMARK 927      BINDING AFFINITY PREDICTED BY RF-SCORE:    0.00 PKD
ROOT
HETATM    1  C   UNL     1     -12.513   7.374  67.992  1.00  0.00     5.718 C  
HETATM    2  C   UNL     1     -11.845   7.575  69.348  1.00  0.00     0.867 C  
HETATM    3  C   UNL     1     -11.325   6.252  69.895  1.00  0.00    -0.504 C  
ENDROOT
BRANCH   2   4
HETATM    4  O   UNL     1     -10.718   8.457  69.199  1.00  0.00    -0.200 OA 
BRANCH   4   5
HETATM    5  C   UNL     1     -10.201   8.947  70.360  1.00  0.00    -0.200 C  
HETATM    6  O   UNL     1     -10.811   9.067  71.413  1.00  0.00    -0.274 OA 
BRANCH   5   7
HETATM    7  C   UNL     1      -8.771   9.371  70.151  1.00  0.00    -0.245 C  
BRANCH   7   8
HETATM    8  C   UNL     1      -7.891   8.164  69.832  1.00  0.00    -0.104 C  
BRANCH   8   9
HETATM    9  C   UNL     1      -7.003   7.821  71.026  1.00  0.00    -0.049 C  
BRANCH   9  10
HETATM   10  C   UNL     1      -5.679   7.257  70.599  1.00  0.00    -0.027 C  
HETATM   11  C   UNL     1      -5.211   6.035  70.896  1.00  0.00    -0.013 C  
BRANCH  11  12
HETATM   12  C   UNL     1      -5.915   4.986  71.716  1.00  0.00    -0.020 C  
BRANCH  12  13
HETATM   13  C   UNL     1      -7.437   5.103  71.566  1.00  0.00    -0.095 C  
HETATM   14  C   UNL     1      -8.187   5.360  72.880  1.00  0.00    -0.109 C  
HETATM   15  C   UNL     1      -9.539   5.871  72.404  1.00  0.00    -0.168 C  
HETATM   16  O   UNL     1      -7.566   6.385  73.651  1.00  0.00    -0.090 OA 
HETATM   17  C   UNL     1      -9.169   6.836  71.278  1.00  0.00    -0.154 C  
HETATM   18  H   UNL     1      -8.031   6.544  74.465  1.00  0.00     0.000 HD 
HETATM   19  C   UNL     1      -7.866   6.278  70.648  1.00  0.00    -0.107 C  
HETATM   20  O   UNL     1      -8.926   8.136  71.818  1.00  0.00    -0.134 OA 
HETATM   21  H   UNL     1      -8.697   8.736  71.118  1.00  0.00     0.000 HD 
BRANCH  19  22
HETATM   22  C   UNL     1      -8.053   5.893  69.193  1.00  0.00    -0.106 C  
HETATM   23  C   UNL     1      -9.061   5.136  68.719  1.00  0.00    -0.140 C  
BRANCH  23  24
HETATM   24  C   UNL     1      -9.318   4.857  67.258  1.00  0.00    -0.131 C  
HETATM   25  F   UNL     1     -10.632   4.554  67.069  1.00  0.00    -0.182 F  
HETATM   26  F   UNL     1      -8.609   3.759  66.877  1.00  0.00    -0.101 F  
BRANCH  24  27
HETATM   27  C   UNL     1      -8.934   6.050  66.367  1.00  0.00    -0.145 C  
BRANCH  27  28
HETATM   28  O   UNL     1      -7.549   5.987  65.998  1.00  0.00    -0.084 OA 
BRANCH  28  29
HETATM   29  C   UNL     1      -6.958   7.191  65.727  1.00  0.00    -0.061 A  
HETATM   30  C   UNL     1      -6.231   7.754  66.778  1.00  0.00    -0.049 A  
HETATM   31  C   UNL     1      -5.584   8.980  66.614  1.00  0.00    -0.039 A  
HETATM   32  C   UNL     1      -5.649   9.643  65.390  1.00  0.00    -0.055 A  
HETATM   33  C   UNL     1      -6.356   9.077  64.331  1.00  0.00    -0.071 A  
HETATM   34  C   UNL     1      -7.009   7.852  64.497  1.00  0.00    -0.071 A  
ENDBRANCH  28  29
ENDBRANCH  27  28
ENDBRANCH  24  27
ENDBRANCH  23  24
ENDBRANCH  19  22
ENDBRANCH  12  13
ENDBRANCH  11  12
ENDBRANCH   9  10
ENDBRANCH   8   9
ENDBRANCH   7   8
ENDBRANCH   5   7
ENDBRANCH   4   5
ENDBRANCH   2   4
TORSDOF 13
ENDMDL
MODEL      361
REMARK 921   NORMALIZED FREE ENERGY PREDICTED BY IDOCK:   29.20 KCAL/MOL
REMARK 922        TOTAL FREE ENERGY PREDICTED BY IDOCK:   48.56 KCAL/MOL
REMARK 923 INTER-LIGAND FREE ENERGY PREDICTED BY IDOCK:    0.15 KCAL/MOL
REMARK 924 INTRA-LIGAND FREE ENERGY PREDICTED BY IDOCK:   48.41 KCAL/MOL
REMARK 927      BINDING AFFINITY PREDICTED BY RF-SCORE:    0.00 PKD
ROOT
HETATM    1  C   UNL     1     -10.930   8.396  68.227  1.00  0.00     0.154 C  
HETATM    2  C   UNL     1     -10.199   8.403  69.565  1.00  0.00    -0.207 C  
HETATM    3  C   UNL     1      -9.987   6.982  70.073  1.00  0.00    -0.188 C  
ENDROOT
BRANCH   2   4
HETATM    4  O   UNL     1      -8.901   9.002  69.398  1.00  0.00    -0.137 OA 
BRANCH   4   5
HETATM    5  C   UNL     1      -8.223   9.262  70.551  1.00  0.00    -0.191 C  
HETATM    6  O   UNL     1      -8.728   9.631  71.602  1.00  0.00     0.082 OA 
BRANCH   5   7
HETATM    7  C   UNL     1      -6.745   9.078  70.333  1.00  0.00    -0.052 C  
BRANCH   7   8
HETATM    8  C   UNL     1      -6.427   7.625  69.986  1.00  0.00    -0.034 C  
BRANCH   8   9
HETATM    9  C   UNL     1      -5.702   6.945  71.145  1.00  0.00    -0.028 C  
BRANCH   9  10
HETATM   10  C   UNL     1      -5.128   5.616  70.748  1.00  0.00    -0.009 C  
HETATM   11  C   UNL     1      -5.424   4.432  71.307  1.00  0.00    -0.011 C  
BRANCH  11  12
HETATM   12  C   UNL     1      -6.386   4.199  72.442  1.00  0.00    -0.021 C  
BRANCH  12  13
HETATM   13  C   UNL     1      -7.464   5.288  72.481  1.00  0.00    -0.096 C  
HETATM   14  C   UNL     1      -7.253   6.354  73.565  1.00  0.00    -0.082 C  
HETATM   15  C   UNL     1      -8.147   7.493  73.099  1.00  0.00    -0.148 C  
HETATM   16  O   UNL     1      -5.906   6.822  73.590  1.00  0.00    -0.056 OA 
HETATM   17  C   UNL     1      -7.880   7.553  71.595  1.00  0.00    -0.086 C  
HETATM   18  H   UNL     1      -5.776   7.482  74.261  1.00  0.00     0.000 HD 
HETATM   19  C   UNL     1      -7.551   6.100  71.161  1.00  0.00    -0.093 C  
HETATM   20  O   UNL     1      -6.757   8.399  71.339  1.00  0.00    -0.051 OA 
HETATM   21  H   UNL     1      -6.592   8.437  70.404  1.00  0.00     0.000 HD 
BRANCH  19  22
HETATM   22  C   UNL     1      -8.558   5.560  70.165  1.00  0.00    -0.122 C  
HETATM   23  C   UNL     1      -9.892   5.549  70.344  1.00  0.00    -0.259 C  
BRANCH  23  24
HETATM   24  C   UNL     1     -10.901   5.126  69.303  1.00  0.00     0.369 C  
HETATM   25  F   UNL     1     -12.129   5.623  69.621  1.00  0.00     0.637 F  
HETATM   26  F   UNL     1     -11.018   3.771  69.312  1.00  0.00     1.700 F  
BRANCH  24  27
HETATM   27  C   UNL     1     -10.506   5.599  67.895  1.00  0.00    -0.211 C  
BRANCH  27  28
HETATM   28  O   UNL     1      -9.160   5.211  67.585  1.00  0.00    -0.109 OA 
BRANCH  28  29
HETATM   29  C   UNL     1      -8.680   5.665  66.386  1.00  0.00    -0.126 A  
HETATM   30  C   UNL     1      -9.116   4.963  65.260  1.00  0.00    -0.154 A  
HETATM   31  C   UNL     1      -8.692   5.340  63.984  1.00  0.00    -0.008 A  
HETATM   32  C   UNL     1      -7.841   6.432  63.827  1.00  0.00    -0.111 A  
HETATM   33  C   UNL     1      -7.419   7.149  64.946  1.00  0.00    -0.095 A  
HETATM   34  C   UNL     1      -7.839   6.769  66.224  1.00  0.00    -0.104 A  
ENDBRANCH  28  29
ENDBRANCH  27  28
ENDBRANCH  24  27
ENDBRANCH  23  24
ENDBRANCH  19  22
ENDBRANCH  12  13
ENDBRANCH  11  12
ENDBRANCH   9  10
ENDBRANCH   8   9
ENDBRANCH   7   8
ENDBRANCH   5   7
ENDBRANCH   4   5
ENDBRANCH   2   4
TORSDOF 13
ENDMDL
