MODEL        1
REMARK 921   NORMALIZED FREE ENERGY PREDICTED BY IDOCK:   -8.97 KCAL/MOL
REMARK 922        TOTAL FREE ENERGY PREDICTED BY IDOCK:  -10.69 KCAL/MOL
REMARK 923 INTER-LIGAND FREE ENERGY PREDICTED BY IDOCK:  -10.02 KCAL/MOL
REMARK 924 INTRA-LIGAND FREE ENERGY PREDICTED BY IDOCK:   -0.68 KCAL/MOL
REMARK 927      BINDING AFFINITY PREDICTED BY RF-SCORE:    0.00 PKD
ROOT
HETATM    1  C   UNL     1      -9.229  14.743  68.631  1.00  0.00    -0.194 C  
HETATM    2  N   UNL     1     -10.508  14.796  69.292  1.00  0.00    -0.237 NA 
HETATM    3  N   UNL     1     -10.767  15.806  70.145  1.00  0.00    -0.331 NA 
HETATM    4  C   UNL     1     -11.998  15.508  70.555  1.00  0.00    -0.371 A  
HETATM    5  N   UNL     1     -12.505  14.346  70.058  1.00  0.00    -0.330 NA 
HETATM    6  C   UNL     1     -11.561  13.915  69.239  1.00  0.00    -0.309 A  
ENDROOT
BRANCH   6   7
HETATM    7  C   UNL     1     -11.647  12.653  68.415  1.00  0.00    -0.370 C  
HETATM    8  C   UNL     1     -10.561  11.639  68.840  1.00  0.00    -0.193 C  
HETATM    9  N   UNL     1      -9.952  10.876  67.752  1.00  0.00    -0.173 NA 
HETATM   10  C   UNL     1      -9.611  10.290  65.450  1.00  0.00    -0.310 A  
HETATM   11  H   UNL     1      -9.320  10.114  67.995  1.00  0.00     0.000 HD 
HETATM   12  C   UNL     1     -10.180  11.125  66.419  1.00  0.00    -0.233 A  
HETATM   13  F   UNL     1      -9.337   9.649  63.195  1.00  0.00    -0.285 F  
HETATM   14  C   UNL     1     -11.047  12.123  65.975  1.00  0.00    -0.354 A  
HETATM   15  C   UNL     1      -9.881  10.478  64.094  1.00  0.00    -0.337 A  
HETATM   16  C   UNL     1     -10.705  11.505  63.662  1.00  0.00    -0.491 A  
HETATM   17  C   UNL     1     -11.753  12.975  66.936  1.00  0.00    -0.383 C  
HETATM   18  C   UNL     1     -11.284  12.336  64.618  1.00  0.00    -0.363 A  
HETATM   19  N   UNL     1     -12.528  13.954  66.564  1.00  0.00    -0.391 NA 
HETATM   20  O   UNL     1     -12.357  13.701  63.036  1.00  0.00    -0.672 OA 
HETATM   21  H   UNL     1     -13.222  15.024  64.976  1.00  0.00     0.000 HD 
HETATM   22  N   UNL     1     -12.672  14.205  65.237  1.00  0.00    -0.459 N  
HETATM   23  C   UNL     1     -12.145  13.454  64.215  1.00  0.00    -0.424 C  
BRANCH   8  24
HETATM   24  C   UNL     1     -11.187  10.656  69.838  1.00  0.00    -0.378 A  
HETATM   25  C   UNL     1     -10.855   9.004  71.593  1.00  0.00    -0.437 A  
HETATM   26  F   UNL     1     -12.623   8.526  73.078  1.00  0.00    -0.381 F  
HETATM   27  C   UNL     1     -12.171   9.181  72.000  1.00  0.00    -0.373 A  
HETATM   28  C   UNL     1     -13.019  10.045  71.323  1.00  0.00    -0.495 A  
HETATM   29  C   UNL     1     -12.529  10.783  70.244  1.00  0.00    -0.395 A  
HETATM   30  C   UNL     1     -10.366   9.730  70.507  1.00  0.00    -0.348 A  
ENDBRANCH   8  24
ENDBRANCH   6   7
TORSDOF 2
ENDMDL
MODEL        2
REMARK 921   NORMALIZED FREE ENERGY PREDICTED BY IDOCK:   -8.47 KCAL/MOL
REMARK 922        TOTAL FREE ENERGY PREDICTED BY IDOCK:  -10.14 KCAL/MOL
REMARK 923 INTER-LIGAND FREE ENERGY PREDICTED BY IDOCK:   -9.18 KCAL/MOL
REMARK 924 INTRA-LIGAND FREE ENERGY PREDICTED BY IDOCK:   -0.96 KCAL/MOL
REMARK 927      BINDING AFFINITY PREDICTED BY RF-SCORE:    0.00 PKD
ROOT
HETATM    1  C   UNL     1      -9.228  15.592  66.041  1.00  0.00    -0.326 C  
HETATM    2  N   UNL     1     -10.509  15.109  65.591  1.00  0.00    -0.332 NA 
HETATM    3  N   UNL     1     -11.118  15.723  64.558  1.00  0.00    -0.453 NA 
HETATM    4  C   UNL     1     -12.248  15.026  64.454  1.00  0.00    -0.337 A  
HETATM    5  N   UNL     1     -12.412  14.052  65.391  1.00  0.00    -0.478 NA 
HETATM    6  C   UNL     1     -11.292  14.097  66.092  1.00  0.00    -0.337 A  
ENDROOT
BRANCH   6   7
HETATM    7  C   UNL     1     -10.967  13.191  67.255  1.00  0.00    -0.288 C  
HETATM    8  C   UNL     1     -11.280  11.716  66.912  1.00  0.00    -0.313 C  
HETATM    9  N   UNL     1     -11.842  10.922  68.004  1.00  0.00    -0.759 NA 
HETATM   10  C   UNL     1     -12.685  10.594  70.226  1.00  0.00    -0.277 A  
HETATM   11  H   UNL     1     -11.951   9.918  67.861  1.00  0.00     0.000 HD 
HETATM   12  C   UNL     1     -12.231  11.448  69.214  1.00  0.00    -0.204 A  
HETATM   13  F   UNL     1     -13.434  10.246  72.437  1.00  0.00    -0.492 F  
HETATM   14  C   UNL     1     -12.101  12.800  69.526  1.00  0.00    -0.265 A  
HETATM   15  C   UNL     1     -13.023  11.092  71.485  1.00  0.00    -0.437 A  
HETATM   16  C   UNL     1     -12.936  12.446  71.768  1.00  0.00    -0.422 A  
HETATM   17  C   UNL     1     -11.543  13.738  68.548  1.00  0.00    -0.338 C  
HETATM   18  C   UNL     1     -12.476  13.303  70.771  1.00  0.00    -0.403 A  
HETATM   19  N   UNL     1     -11.454  15.017  68.779  1.00  0.00    -0.302 NA 
HETATM   20  O   UNL     1     -12.736  15.241  72.072  1.00  0.00    -0.309 OA 
HETATM   21  H   UNL     1     -11.903  16.514  70.086  1.00  0.00     0.000 HD 
HETATM   22  N   UNL     1     -11.912  15.501  69.963  1.00  0.00    -0.344 N  
HETATM   23  C   UNL     1     -12.387  14.748  71.009  1.00  0.00    -0.330 C  
BRANCH   8  24
HETATM   24  C   UNL     1      -9.983  11.050  66.436  1.00  0.00    -0.264 A  
HETATM   25  C   UNL     1      -8.814   9.817  64.694  1.00  0.00    -0.244 A  
HETATM   26  F   UNL     1      -6.457   9.857  64.635  1.00  0.00    -0.091 F  
HETATM   27  C   UNL     1      -7.599  10.204  65.245  1.00  0.00    -0.144 A  
HETATM   28  C   UNL     1      -7.549  10.966  66.403  1.00  0.00    -0.146 A  
HETATM   29  C   UNL     1      -8.738  11.389  66.998  1.00  0.00    -0.160 A  
HETATM   30  C   UNL     1     -10.005  10.228  65.294  1.00  0.00    -0.387 A  
ENDBRANCH   8  24
ENDBRANCH   6   7
TORSDOF 2
ENDMDL
MODEL        3
REMARK 921   NORMALIZED FREE ENERGY PREDICTED BY IDOCK:   -8.39 KCAL/MOL
REMARK 922        TOTAL FREE ENERGY PREDICTED BY IDOCK:  -10.05 KCAL/MOL
REMARK 923 INTER-LIGAND FREE ENERGY PREDICTED BY IDOCK:   -9.17 KCAL/MOL
REMARK 924 INTRA-LIGAND FREE ENERGY PREDICTED BY IDOCK:   -0.88 KCAL/MOL
REMARK 927      BINDING AFFINITY PREDICTED BY RF-SCORE:    0.00 PKD
ROOT
HETATM    1  C   UNL     1      -7.968  15.992  67.586  1.00  0.00    -0.143 C  
HETATM    2  N   UNL     1      -9.066  16.915  67.717  1.00  0.00    -0.227 NA 
HETATM    3  N   UNL     1      -8.822  18.239  67.680  1.00  0.00    -0.254 NA 
HETATM    4  C   UNL     1     -10.041  18.747  67.848  1.00  0.00    -0.366 A  
HETATM    5  N   UNL     1     -11.026  17.827  68.043  1.00  0.00    -0.204 NA 
HETATM    6  C   UNL     1     -10.400  16.667  67.934  1.00  0.00    -0.310 A  
ENDROOT
BRANCH   6   7
HETATM    7  C   UNL     1     -11.064  15.316  68.055  1.00  0.00    -0.312 C  
HETATM    8  C   UNL     1     -10.553  14.557  69.300  1.00  0.00    -0.212 C  
HETATM    9  N   UNL     1     -10.374  13.116  69.128  1.00  0.00    -0.431 NA 
HETATM   10  C   UNL     1     -10.372  11.073  67.871  1.00  0.00    -0.213 A  
HETATM   11  H   UNL     1     -10.155  12.558  69.954  1.00  0.00     0.000 HD 
HETATM   12  C   UNL     1     -10.484  12.468  67.921  1.00  0.00    -0.217 A  
HETATM   13  F   UNL     1     -10.453   9.048  66.661  1.00  0.00    -0.327 F  
HETATM   14  C   UNL     1     -10.807  13.127  66.737  1.00  0.00    -0.289 A  
HETATM   15  C   UNL     1     -10.546  10.383  66.670  1.00  0.00    -0.178 A  
HETATM   16  C   UNL     1     -10.819  11.055  65.490  1.00  0.00    -0.159 A  
HETATM   17  C   UNL     1     -11.033  14.575  66.731  1.00  0.00    -0.316 C  
HETATM   18  C   UNL     1     -10.941  12.443  65.530  1.00  0.00    -0.328 A  
HETATM   19  N   UNL     1     -11.282  15.240  65.638  1.00  0.00    -0.297 NA 
HETATM   20  O   UNL     1     -11.298  12.654  63.218  1.00  0.00    -0.460 OA 
HETATM   21  H   UNL     1     -11.437  15.121  63.610  1.00  0.00     0.000 HD 
HETATM   22  N   UNL     1     -11.317  14.566  64.458  1.00  0.00    -0.349 N  
HETATM   23  C   UNL     1     -11.205  13.206  64.305  1.00  0.00    -0.388 C  
BRANCH   8  24
HETATM   24  C   UNL     1     -11.543  14.797  70.447  1.00  0.00    -0.333 A  
HETATM   25  C   UNL     1     -12.154  16.101  72.408  1.00  0.00    -0.630 A  
HETATM   26  F   UNL     1     -14.397  16.104  73.139  1.00  0.00    -0.623 F  
HETATM   27  C   UNL     1     -13.462  15.645  72.296  1.00  0.00    -0.495 A  
HETATM   28  C   UNL     1     -13.821  14.739  71.308  1.00  0.00    -0.460 A  
HETATM   29  C   UNL     1     -12.864  14.316  70.384  1.00  0.00    -0.276 A  
HETATM   30  C   UNL     1     -11.193  15.669  71.494  1.00  0.00    -0.373 A  
ENDBRANCH   8  24
ENDBRANCH   6   7
TORSDOF 2
ENDMDL
MODEL        4
REMARK 921   NORMALIZED FREE ENERGY PREDICTED BY IDOCK:   -8.34 KCAL/MOL
REMARK 922        TOTAL FREE ENERGY PREDICTED BY IDOCK:   -9.99 KCAL/MOL
REMARK 923 INTER-LIGAND FREE ENERGY PREDICTED BY IDOCK:   -9.09 KCAL/MOL
REMARK 924 INTRA-LIGAND FREE ENERGY PREDICTED BY IDOCK:   -0.90 KCAL/MOL
REMARK 927      BINDING AFFINITY PREDICTED BY RF-SCORE:    0.00 PKD
ROOT
HETATM    1  C   UNL     1     -10.019   8.825  66.359  1.00  0.00    -0.275 C  
HETATM    2  N   UNL     1      -9.099   9.585  67.167  1.00  0.00    -0.133 NA 
HETATM    3  N   UNL     1      -7.806   9.214  67.219  1.00  0.00    -0.099 NA 
HETATM    4  C   UNL     1      -7.296  10.116  68.055  1.00  0.00    -0.086 A  
HETATM    5  N   UNL     1      -8.198  10.995  68.573  1.00  0.00    -0.139 NA 
HETATM    6  C   UNL     1      -9.335  10.665  67.985  1.00  0.00    -0.147 A  
ENDROOT
BRANCH   6   7
HETATM    7  C   UNL     1     -10.656  11.361  68.210  1.00  0.00    -0.224 C  
HETATM    8  C   UNL     1     -10.516  12.888  68.019  1.00  0.00    -0.230 C  
HETATM    9  N   UNL     1     -11.292  13.712  68.945  1.00  0.00    -0.272 NA 
HETATM   10  C   UNL     1     -12.759  14.071  70.809  1.00  0.00    -0.396 A  
HETATM   11  H   UNL     1     -11.326  14.718  68.780  1.00  0.00     0.000 HD 
HETATM   12  C   UNL     1     -11.980  13.211  70.025  1.00  0.00    -0.321 A  
HETATM   13  F   UNL     1     -14.270  14.425  72.587  1.00  0.00    -0.511 F  
HETATM   14  C   UNL     1     -12.025  11.851  70.327  1.00  0.00    -0.416 A  
HETATM   15  C   UNL     1     -13.521  13.579  71.870  1.00  0.00    -0.442 A  
HETATM   16  C   UNL     1     -13.519  12.231  72.191  1.00  0.00    -0.431 A  
HETATM   17  C   UNL     1     -11.311  10.881  69.492  1.00  0.00    -0.283 C  
HETATM   18  C   UNL     1     -12.754  11.365  71.411  1.00  0.00    -0.489 A  
HETATM   19  N   UNL     1     -11.281   9.608  69.770  1.00  0.00    -0.211 NA 
HETATM   20  O   UNL     1     -13.291   9.464  72.681  1.00  0.00    -0.395 OA 
HETATM   21  H   UNL     1     -11.817   8.181  71.120  1.00  0.00     0.000 HD 
HETATM   22  N   UNL     1     -11.921   9.168  70.884  1.00  0.00    -0.272 N  
HETATM   23  C   UNL     1     -12.696   9.932  71.721  1.00  0.00    -0.428 C  
BRANCH   8  24
HETATM   24  C   UNL     1     -10.937  13.232  66.584  1.00  0.00    -0.297 A  
HETATM   25  C   UNL     1     -10.668  12.826  64.200  1.00  0.00    -0.441 A  
HETATM   26  F   UNL     1     -12.403  13.433  62.723  1.00  0.00    -0.498 F  
HETATM   27  C   UNL     1     -11.907  13.410  63.967  1.00  0.00    -0.445 A  
HETATM   28  C   UNL     1     -12.651  13.946  65.008  1.00  0.00    -0.422 A  
HETATM   29  C   UNL     1     -12.169  13.857  66.315  1.00  0.00    -0.498 A  
HETATM   30  C   UNL     1     -10.177  12.748  65.504  1.00  0.00    -0.293 A  
ENDBRANCH   8  24
ENDBRANCH   6   7
TORSDOF 2
ENDMDL
MODEL        5
REMARK 921   NORMALIZED FREE ENERGY PREDICTED BY IDOCK:   -8.28 KCAL/MOL
REMARK 922        TOTAL FREE ENERGY PREDICTED BY IDOCK:   -9.93 KCAL/MOL
REMARK 923 INTER-LIGAND FREE ENERGY PREDICTED BY IDOCK:   -9.10 KCAL/MOL
REMARK 924 INTRA-LIGAND FREE ENERGY PREDICTED BY IDOCK:   -0.83 KCAL/MOL
REMARK 927      BINDING AFFINITY PREDICTED BY RF-SCORE:    0.00 PKD
ROOT
HETATM    1  C   UNL     1     -11.914  14.081  65.979  1.00  0.00    -0.416 C  
HETATM    2  N   UNL     1     -11.543  13.164  67.027  1.00  0.00    -0.339 NA 
HETATM    3  N   UNL     1     -11.784  11.849  66.866  1.00  0.00    -0.589 NA 
HETATM    4  C   UNL     1     -11.334  11.346  68.014  1.00  0.00    -0.303 A  
HETATM    5  N   UNL     1     -10.878  12.268  68.906  1.00  0.00    -0.218 NA 
HETATM    6  C   UNL     1     -10.992  13.416  68.260  1.00  0.00    -0.259 A  
ENDROOT
BRANCH   6   7
HETATM    7  C   UNL     1     -10.596  14.762  68.819  1.00  0.00    -0.251 C  
HETATM    8  C   UNL     1     -11.837  15.657  69.038  1.00  0.00    -0.364 C  
HETATM    9  N   UNL     1     -11.652  17.074  68.728  1.00  0.00     0.094 NA 
HETATM   10  C   UNL     1     -10.409  18.971  67.946  1.00  0.00    -0.485 A  
HETATM   11  H   UNL     1     -12.403  17.720  68.971  1.00  0.00     0.000 HD 
HETATM   12  C   UNL     1     -10.525  17.588  68.130  1.00  0.00    -0.386 A  
HETATM   13  F   UNL     1      -9.162  20.854  67.260  1.00  0.00    -0.502 F  
HETATM   14  C   UNL     1      -9.429  16.801  67.783  1.00  0.00    -0.228 A  
HETATM   15  C   UNL     1      -9.249  19.527  67.403  1.00  0.00    -0.315 A  
HETATM   16  C   UNL     1      -8.185  18.728  67.017  1.00  0.00    -0.271 A  
HETATM   17  C   UNL     1      -9.442  15.358  68.035  1.00  0.00    -0.201 C  
HETATM   18  C   UNL     1      -8.287  17.351  67.205  1.00  0.00    -0.232 A  
HETATM   19  N   UNL     1      -8.462  14.577  67.677  1.00  0.00    -0.170 NA 
HETATM   20  O   UNL     1      -6.192  16.889  66.248  1.00  0.00    -0.257 OA 
HETATM   21  H   UNL     1      -6.682  14.476  66.692  1.00  0.00     0.000 HD 
HETATM   22  N   UNL     1      -7.398  15.120  67.030  1.00  0.00    -0.100 N  
HETATM   23  C   UNL     1      -7.199  16.457  66.790  1.00  0.00    -0.210 C  
BRANCH   8  24
HETATM   24  C   UNL     1     -12.270  15.526  70.503  1.00  0.00    -0.444 A  
HETATM   25  C   UNL     1     -13.299  14.166  72.239  1.00  0.00    -0.555 A  
HETATM   26  F   UNL     1     -12.844  14.645  74.502  1.00  0.00    -0.125 F  
HETATM   27  C   UNL     1     -12.697  14.958  73.208  1.00  0.00    -0.509 A  
HETATM   28  C   UNL     1     -11.923  16.055  72.856  1.00  0.00    -0.611 A  
HETATM   29  C   UNL     1     -11.708  16.339  71.506  1.00  0.00    -0.467 A  
HETATM   30  C   UNL     1     -13.097  14.455  70.889  1.00  0.00    -0.390 A  
ENDBRANCH   8  24
ENDBRANCH   6   7
TORSDOF 2
ENDMDL
MODEL        6
REMARK 921   NORMALIZED FREE ENERGY PREDICTED BY IDOCK:   -8.09 KCAL/MOL
REMARK 922        TOTAL FREE ENERGY PREDICTED BY IDOCK:   -9.72 KCAL/MOL
REMARK 923 INTER-LIGAND FREE ENERGY PREDICTED BY IDOCK:   -8.88 KCAL/MOL
REMARK 924 INTRA-LIGAND FREE ENERGY PREDICTED BY IDOCK:   -0.84 KCAL/MOL
REMARK 927      BINDING AFFINITY PREDICTED BY RF-SCORE:    0.00 PKD
ROOT
HETATM    1  C   UNL     1      -9.462  11.303  64.491  1.00  0.00    -0.185 C  
HETATM    2  N   UNL     1     -10.826  11.764  64.554  1.00  0.00    -0.305 NA 
HETATM    3  N   UNL     1     -11.588  11.718  63.444  1.00  0.00    -0.383 NA 
HETATM    4  C   UNL     1     -12.737  12.229  63.881  1.00  0.00    -0.382 A  
HETATM    5  N   UNL     1     -12.727  12.643  65.178  1.00  0.00    -0.732 NA 
HETATM    6  C   UNL     1     -11.517  12.321  65.602  1.00  0.00    -0.368 A  
ENDROOT
BRANCH   6   7
HETATM    7  C   UNL     1     -11.004  12.559  67.003  1.00  0.00    -0.306 C  
HETATM    8  C   UNL     1     -11.739  11.657  68.021  1.00  0.00    -0.281 C  
HETATM    9  N   UNL     1     -12.030  12.277  69.314  1.00  0.00    -0.283 NA 
HETATM   10  C   UNL     1     -12.065  14.093  70.881  1.00  0.00    -0.416 A  
HETATM   11  H   UNL     1     -12.403  11.685  70.056  1.00  0.00     0.000 HD 
HETATM   12  C   UNL     1     -11.830  13.609  69.589  1.00  0.00    -0.335 A  
HETATM   13  F   UNL     1     -12.023  15.851  72.456  1.00  0.00    -0.427 F  
HETATM   14  C   UNL     1     -11.298  14.500  68.658  1.00  0.00    -0.300 A  
HETATM   15  C   UNL     1     -11.806  15.426  71.205  1.00  0.00    -0.380 A  
HETATM   16  C   UNL     1     -11.324  16.314  70.258  1.00  0.00    -0.299 A  
HETATM   17  C   UNL     1     -10.938  14.043  67.313  1.00  0.00    -0.295 C  
HETATM   18  C   UNL     1     -11.078  15.841  68.970  1.00  0.00    -0.282 A  
HETATM   19  N   UNL     1     -10.491  14.853  66.395  1.00  0.00    -0.290 NA 
HETATM   20  O   UNL     1     -10.414  17.934  68.138  1.00  0.00    -0.374 OA 
HETATM   21  H   UNL     1     -10.093  16.796  65.934  1.00  0.00     0.000 HD 
HETATM   22  N   UNL     1     -10.371  16.173  66.692  1.00  0.00    -0.291 N  
HETATM   23  C   UNL     1     -10.591  16.744  67.922  1.00  0.00    -0.350 C  
BRANCH   8  24
HETATM   24  C   UNL     1     -10.884  10.406  68.257  1.00  0.00    -0.299 A  
HETATM   25  C   UNL     1      -9.838   8.890  69.847  1.00  0.00    -0.190 A  
HETATM   26  F   UNL     1      -9.259   6.711  69.155  1.00  0.00    -0.136 F  
HETATM   27  C   UNL     1      -9.742   7.924  68.853  1.00  0.00    -0.158 A  
HETATM   28  C   UNL     1     -10.162   8.187  67.558  1.00  0.00    -0.309 A  
HETATM   29  C   UNL     1     -10.733   9.425  67.259  1.00  0.00    -0.258 A  
HETATM   30  C   UNL     1     -10.396  10.133  69.548  1.00  0.00    -0.263 A  
ENDBRANCH   8  24
ENDBRANCH   6   7
TORSDOF 2
ENDMDL
MODEL        7
REMARK 921   NORMALIZED FREE ENERGY PREDICTED BY IDOCK:   -7.95 KCAL/MOL
REMARK 922        TOTAL FREE ENERGY PREDICTED BY IDOCK:   -9.55 KCAL/MOL
REMARK 923 INTER-LIGAND FREE ENERGY PREDICTED BY IDOCK:   -8.65 KCAL/MOL
REMARK 924 INTRA-LIGAND FREE ENERGY PREDICTED BY IDOCK:   -0.90 KCAL/MOL
REMARK 927      BINDING AFFINITY PREDICTED BY RF-SCORE:    0.00 PKD
ROOT
HETATM    1  C   UNL     1      -9.197  11.213  65.463  1.00  0.00    -0.216 C  
HETATM    2  N   UNL     1     -10.540  11.729  65.372  1.00  0.00    -0.268 NA 
HETATM    3  N   UNL     1     -11.165  11.730  64.180  1.00  0.00    -0.357 NA 
HETATM    4  C   UNL     1     -12.337  12.282  64.487  1.00  0.00    -0.384 A  
HETATM    5  N   UNL     1     -12.465  12.677  65.783  1.00  0.00    -0.579 NA 
HETATM    6  C   UNL     1     -11.329  12.300  66.342  1.00  0.00    -0.354 A  
ENDROOT
BRANCH   6   7
HETATM    7  C   UNL     1     -10.978  12.497  67.798  1.00  0.00    -0.270 C  
HETATM    8  C   UNL     1     -11.822  11.569  68.701  1.00  0.00    -0.318 C  
HETATM    9  N   UNL     1     -12.257  12.153  69.969  1.00  0.00    -0.241 NA 
HETATM   10  C   UNL     1     -12.471  13.924  71.573  1.00  0.00    -0.384 A  
HETATM   11  H   UNL     1     -12.712  11.542  70.647  1.00  0.00     0.000 HD 
HETATM   12  C   UNL     1     -12.090  13.476  70.302  1.00  0.00    -0.355 A  
HETATM   13  F   UNL     1     -12.608  15.637  73.191  1.00  0.00    -0.397 F  
HETATM   14  C   UNL     1     -11.458  14.392  69.463  1.00  0.00    -0.333 A  
HETATM   15  C   UNL     1     -12.251  15.246  71.962  1.00  0.00    -0.367 A  
HETATM   16  C   UNL     1     -11.666  16.160  71.100  1.00  0.00    -0.454 A  
HETATM   17  C   UNL     1     -10.947  13.971  68.155  1.00  0.00    -0.252 C  
HETATM   18  C   UNL     1     -11.275  15.722  69.836  1.00  0.00    -0.335 A  
HETATM   19  N   UNL     1     -10.400  14.805  67.317  1.00  0.00    -0.246 NA 
HETATM   20  O   UNL     1     -10.522  17.836  69.144  1.00  0.00    -0.312 OA 
HETATM   21  H   UNL     1      -9.953  16.760  66.958  1.00  0.00     0.000 HD 
HETATM   22  N   UNL     1     -10.315  16.116  67.663  1.00  0.00    -0.281 N  
HETATM   23  C   UNL     1     -10.673  16.653  68.875  1.00  0.00    -0.337 C  
BRANCH   8  24
HETATM   24  C   UNL     1     -10.998  10.309  68.996  1.00  0.00    -0.274 A  
HETATM   25  C   UNL     1      -9.986   8.847  70.657  1.00  0.00    -0.265 A  
HETATM   26  F   UNL     1      -9.466   6.623  70.073  1.00  0.00    -0.155 F  
HETATM   27  C   UNL     1      -9.919   7.831  69.712  1.00  0.00    -0.189 A  
HETATM   28  C   UNL     1     -10.337   8.040  68.406  1.00  0.00    -0.236 A  
HETATM   29  C   UNL     1     -10.877   9.276  68.048  1.00  0.00    -0.166 A  
HETATM   30  C   UNL     1     -10.513  10.088  70.298  1.00  0.00    -0.331 A  
ENDBRANCH   8  24
ENDBRANCH   6   7
TORSDOF 2
ENDMDL
MODEL        8
REMARK 921   NORMALIZED FREE ENERGY PREDICTED BY IDOCK:   -7.83 KCAL/MOL
REMARK 922        TOTAL FREE ENERGY PREDICTED BY IDOCK:   -9.42 KCAL/MOL
REMARK 923 INTER-LIGAND FREE ENERGY PREDICTED BY IDOCK:   -8.59 KCAL/MOL
REMARK 924 INTRA-LIGAND FREE ENERGY PREDICTED BY IDOCK:   -0.83 KCAL/MOL
REMARK 927      BINDING AFFINITY PREDICTED BY RF-SCORE:    0.00 PKD
ROOT
HETATM    1  C   UNL     1     -10.381  14.209  65.229  1.00  0.00    -0.388 C  
HETATM    2  N   UNL     1      -9.963  13.334  66.295  1.00  0.00    -0.286 NA 
HETATM    3  N   UNL     1      -9.855  12.013  66.057  1.00  0.00    -0.233 NA 
HETATM    4  C   UNL     1      -9.477  11.552  67.248  1.00  0.00    -0.169 A  
HETATM    5  N   UNL     1      -9.396  12.492  68.230  1.00  0.00    -0.207 NA 
HETATM    6  C   UNL     1      -9.683  13.623  67.609  1.00  0.00    -0.228 A  
ENDROOT
BRANCH   6   7
HETATM    7  C   UNL     1      -9.710  14.983  68.265  1.00  0.00    -0.215 C  
HETATM    8  C   UNL     1     -11.162  15.482  68.442  1.00  0.00    -0.341 C  
HETATM    9  N   UNL     1     -11.366  16.913  68.222  1.00  0.00    -0.110 NA 
HETATM   10  C   UNL     1     -10.665  19.131  67.631  1.00  0.00    -0.514 A  
HETATM   11  H   UNL     1     -12.280  17.308  68.445  1.00  0.00     0.000 HD 
HETATM   12  C   UNL     1     -10.398  17.760  67.733  1.00  0.00    -0.380 A  
HETATM   13  F   UNL     1      -9.961  21.328  67.135  1.00  0.00    -0.521 F  
HETATM   14  C   UNL     1      -9.109  17.333  67.424  1.00  0.00    -0.227 A  
HETATM   15  C   UNL     1      -9.680  20.022  67.202  1.00  0.00    -0.411 A  
HETATM   16  C   UNL     1      -8.415  19.578  66.850  1.00  0.00    -0.327 A  
HETATM   17  C   UNL     1      -8.729  15.928  67.597  1.00  0.00    -0.167 C  
HETATM   18  C   UNL     1      -8.137  18.217  66.957  1.00  0.00    -0.239 A  
HETATM   19  N   UNL     1      -7.552  15.476  67.268  1.00  0.00    -0.201 NA 
HETATM   20  O   UNL     1      -5.949  18.421  66.128  1.00  0.00    -0.154 OA 
HETATM   21  H   UNL     1      -5.765  15.941  66.408  1.00  0.00     0.000 HD 
HETATM   22  N   UNL     1      -6.650  16.337  66.728  1.00  0.00    -0.084 N  
HETATM   23  C   UNL     1      -6.822  17.690  66.574  1.00  0.00    -0.242 C  
BRANCH   8  24
HETATM   24  C   UNL     1     -11.618  15.134  69.864  1.00  0.00    -0.329 A  
HETATM   25  C   UNL     1     -11.983  15.870  72.154  1.00  0.00    -0.612 A  
HETATM   26  F   UNL     1     -13.469  14.665  73.532  1.00  0.00    -0.448 F  
HETATM   27  C   UNL     1     -12.833  14.791  72.360  1.00  0.00    -0.348 A  
HETATM   28  C   UNL     1     -13.054  13.855  71.360  1.00  0.00    -0.413 A  
HETATM   29  C   UNL     1     -12.449  14.025  70.114  1.00  0.00    -0.380 A  
HETATM   30  C   UNL     1     -11.366  16.036  70.914  1.00  0.00    -0.421 A  
ENDBRANCH   8  24
ENDBRANCH   6   7
TORSDOF 2
ENDMDL
MODEL        9
REMARK 921   NORMALIZED FREE ENERGY PREDICTED BY IDOCK:   -7.71 KCAL/MOL
REMARK 922        TOTAL FREE ENERGY PREDICTED BY IDOCK:   -9.29 KCAL/MOL
REMARK 923 INTER-LIGAND FREE ENERGY PREDICTED BY IDOCK:   -8.69 KCAL/MOL
REMARK 924 INTRA-LIGAND FREE ENERGY PREDICTED BY IDOCK:   -0.60 KCAL/MOL
REMARK 927      BINDING AFFINITY PREDICTED BY RF-SCORE:    0.00 PKD
ROOT
HETATM    1  C   UNL     1      -6.946  12.572  67.229  1.00  0.00    -0.112 C  
HETATM    2  N   UNL     1      -7.289  13.570  68.209  1.00  0.00    -0.104 NA 
HETATM    3  N   UNL     1      -6.307  14.188  68.892  1.00  0.00    -0.086 NA 
HETATM    4  C   UNL     1      -6.998  15.000  69.689  1.00  0.00    -0.191 A  
HETATM    5  N   UNL     1      -8.351  14.890  69.589  1.00  0.00    -0.036 NA 
HETATM    6  C   UNL     1      -8.526  13.998  68.630  1.00  0.00    -0.103 A  
ENDROOT
BRANCH   6   7
HETATM    7  C   UNL     1      -9.869  13.532  68.121  1.00  0.00    -0.237 C  
HETATM    8  C   UNL     1      -9.918  11.991  68.018  1.00  0.00    -0.197 C  
HETATM    9  N   UNL     1     -10.642  11.460  66.864  1.00  0.00    -0.240 NA 
HETATM   10  C   UNL     1     -11.869  11.645  64.811  1.00  0.00    -0.066 A  
HETATM   11  H   UNL     1     -10.803  10.454  66.820  1.00  0.00     0.000 HD 
HETATM   12  C   UNL     1     -11.119  12.237  65.834  1.00  0.00    -0.322 A  
HETATM   13  F   UNL     1     -13.152  11.825  62.838  1.00  0.00    -0.578 F  
HETATM   14  C   UNL     1     -10.980  13.623  65.808  1.00  0.00    -0.281 A  
HETATM   15  C   UNL     1     -12.423  12.419  63.790  1.00  0.00    -0.492 A  
HETATM   16  C   UNL     1     -12.236  13.791  63.747  1.00  0.00    -0.364 A  
HETATM   17  C   UNL     1     -10.289  14.321  66.895  1.00  0.00    -0.268 C  
HETATM   18  C   UNL     1     -11.499  14.391  64.766  1.00  0.00    -0.402 A  
HETATM   19  N   UNL     1     -10.088  15.609  66.883  1.00  0.00    -0.257 NA 
HETATM   20  O   UNL     1     -11.655  16.547  63.849  1.00  0.00    -1.175 OA 
HETATM   21  H   UNL     1     -10.282  17.319  65.793  1.00  0.00     0.000 HD 
HETATM   22  N   UNL     1     -10.520  16.327  65.813  1.00  0.00    -0.363 N  
HETATM   23  C   UNL     1     -11.249  15.837  64.757  1.00  0.00    -0.366 C  
BRANCH   8  24
HETATM   24  C   UNL     1     -10.565  11.446  69.298  1.00  0.00    -0.148 A  
HETATM   25  C   UNL     1     -12.482  11.429  70.796  1.00  0.00    -0.460 A  
HETATM   26  F   UNL     1     -12.798   9.596  72.245  1.00  0.00    -0.441 F  
HETATM   27  C   UNL     1     -12.051  10.218  71.324  1.00  0.00    -0.382 A  
HETATM   28  C   UNL     1     -10.870   9.630  70.893  1.00  0.00    -0.409 A  
HETATM   29  C   UNL     1     -10.128  10.241  69.881  1.00  0.00    -0.219 A  
HETATM   30  C   UNL     1     -11.735  12.049  69.794  1.00  0.00    -0.390 A  
ENDBRANCH   8  24
ENDBRANCH   6   7
TORSDOF 2
ENDMDL
MODEL       10
REMARK 921   NORMALIZED FREE ENERGY PREDICTED BY IDOCK:   -7.68 KCAL/MOL
REMARK 922        TOTAL FREE ENERGY PREDICTED BY IDOCK:   -9.26 KCAL/MOL
REMARK 923 INTER-LIGAND FREE ENERGY PREDICTED BY IDOCK:   -8.39 KCAL/MOL
REMARK 924 INTRA-LIGAND FREE ENERGY PREDICTED BY IDOCK:   -0.87 KCAL/MOL
REMARK 927      BINDING AFFINITY PREDICTED BY RF-SCORE:    0.00 PKD
ROOT
HETATM    1  C   UNL     1      -8.767  10.706  64.585  1.00  0.00    -0.152 C  
HETATM    2  N   UNL     1     -10.044  11.369  64.495  1.00  0.00    -0.267 NA 
HETATM    3  N   UNL     1     -10.536  11.688  63.283  1.00  0.00    -0.395 NA 
HETATM    4  C   UNL     1     -11.683  12.283  63.602  1.00  0.00    -0.504 A  
HETATM    5  N   UNL     1     -11.915  12.406  64.938  1.00  0.00    -0.397 NA 
HETATM    6  C   UNL     1     -10.881  11.801  65.496  1.00  0.00    -0.297 A  
ENDROOT
BRANCH   6   7
HETATM    7  C   UNL     1     -10.672  11.648  66.983  1.00  0.00    -0.292 C  
HETATM    8  C   UNL     1     -11.281  10.323  67.494  1.00  0.00    -0.117 C  
HETATM    9  N   UNL     1     -11.923  10.390  68.806  1.00  0.00    -0.715 NA 
HETATM   10  C   UNL     1     -12.688  11.515  70.783  1.00  0.00    -0.318 A  
HETATM   11  H   UNL     1     -12.232   9.518  69.235  1.00  0.00     0.000 HD 
HETATM   12  C   UNL     1     -12.136  11.560  69.497  1.00  0.00    -0.284 A  
HETATM   13  F   UNL     1     -13.365  12.599  72.767  1.00  0.00    -0.517 F  
HETATM   14  C   UNL     1     -11.730  12.804  69.018  1.00  0.00    -0.371 A  
HETATM   15  C   UNL     1     -12.853  12.680  71.533  1.00  0.00    -0.268 A  
HETATM   16  C   UNL     1     -12.490  13.917  71.026  1.00  0.00    -0.452 A  
HETATM   17  C   UNL     1     -11.057  12.917  67.720  1.00  0.00    -0.259 C  
HETATM   18  C   UNL     1     -11.931  13.972  69.751  1.00  0.00    -0.393 A  
HETATM   19  N   UNL     1     -10.711  14.065  67.210  1.00  0.00    -0.276 NA 
HETATM   20  O   UNL     1     -11.739  16.313  69.745  1.00  0.00    -0.237 OA 
HETATM   21  H   UNL     1     -10.789  16.087  67.442  1.00  0.00     0.000 HD 
HETATM   22  N   UNL     1     -11.001  15.199  67.899  1.00  0.00    -0.292 N  
HETATM   23  C   UNL     1     -11.552  15.259  69.155  1.00  0.00    -0.332 C  
BRANCH   8  24
HETATM   24  C   UNL     1     -10.166   9.271  67.546  1.00  0.00    -0.300 A  
HETATM   25  C   UNL     1      -9.135   7.305  66.551  1.00  0.00    -0.186 A  
HETATM   26  F   UNL     1      -6.882   6.810  67.041  1.00  0.00    -0.058 F  
HETATM   27  C   UNL     1      -7.961   7.579  67.240  1.00  0.00    -0.118 A  
HETATM   28  C   UNL     1      -7.879   8.655  68.113  1.00  0.00    -0.103 A  
HETATM   29  C   UNL     1      -8.979   9.500  68.266  1.00  0.00    -0.124 A  
HETATM   30  C   UNL     1     -10.241   8.140  66.712  1.00  0.00    -0.372 A  
ENDBRANCH   8  24
ENDBRANCH   6   7
TORSDOF 2
ENDMDL
MODEL       11
REMARK 921   NORMALIZED FREE ENERGY PREDICTED BY IDOCK:   -7.66 KCAL/MOL
REMARK 922        TOTAL FREE ENERGY PREDICTED BY IDOCK:   -9.23 KCAL/MOL
REMARK 923 INTER-LIGAND FREE ENERGY PREDICTED BY IDOCK:   -8.33 KCAL/MOL
REMARK 924 INTRA-LIGAND FREE ENERGY PREDICTED BY IDOCK:   -0.90 KCAL/MOL
REMARK 927      BINDING AFFINITY PREDICTED BY RF-SCORE:    0.00 PKD
ROOT
HETATM    1  C   UNL     1      -7.202  10.768  66.108  1.00  0.00    -0.126 C  
HETATM    2  N   UNL     1      -7.274  11.861  67.044  1.00  0.00    -0.139 NA 
HETATM    3  N   UNL     1      -6.225  12.695  67.164  1.00  0.00    -0.252 NA 
HETATM    4  C   UNL     1      -6.649  13.534  68.107  1.00  0.00    -0.121 A  
HETATM    5  N   UNL     1      -7.875  13.245  68.625  1.00  0.00    -0.105 NA 
HETATM    6  C   UNL     1      -8.273  12.196  67.926  1.00  0.00    -0.155 A  
ENDROOT
BRANCH   6   7
HETATM    7  C   UNL     1      -9.598  11.494  68.107  1.00  0.00    -0.187 C  
HETATM    8  C   UNL     1     -10.759  12.512  68.175  1.00  0.00    -0.227 C  
HETATM    9  N   UNL     1     -11.823  12.189  69.125  1.00  0.00    -0.312 NA 
HETATM   10  C   UNL     1     -12.861  10.875  70.843  1.00  0.00    -0.418 A  
HETATM   11  H   UNL     1     -12.664  12.766  69.118  1.00  0.00     0.000 HD 
HETATM   12  C   UNL     1     -11.758  11.153  70.027  1.00  0.00    -0.356 A  
HETATM   13  F   UNL     1     -13.927   9.538  72.470  1.00  0.00    -0.455 F  
HETATM   14  C   UNL     1     -10.670  10.286  70.103  1.00  0.00    -0.334 A  
HETATM   15  C   UNL     1     -12.848   9.789  71.719  1.00  0.00    -0.434 A  
HETATM   16  C   UNL     1     -11.741   8.963  71.821  1.00  0.00    -0.432 A  
HETATM   17  C   UNL     1      -9.518  10.459  69.213  1.00  0.00    -0.198 C  
HETATM   18  C   UNL     1     -10.640   9.225  71.007  1.00  0.00    -0.386 A  
HETATM   19  N   UNL     1      -8.457   9.706  69.288  1.00  0.00    -0.139 NA 
HETATM   20  O   UNL     1      -9.346   7.477  71.892  1.00  0.00    -0.142 OA 
HETATM   21  H   UNL     1      -7.539   8.213  70.327  1.00  0.00     0.000 HD 
HETATM   22  N   UNL     1      -8.411   8.736  70.239  1.00  0.00    -0.137 N  
HETATM   23  C   UNL     1      -9.432   8.397  71.093  1.00  0.00    -0.179 C  
BRANCH   8  24
HETATM   24  C   UNL     1     -11.371  12.635  66.774  1.00  0.00    -0.373 A  
HETATM   25  C   UNL     1     -12.494  14.031  65.128  1.00  0.00    -0.472 A  
HETATM   26  F   UNL     1     -12.394  13.435  62.848  1.00  0.00    -0.575 F  
HETATM   27  C   UNL     1     -12.104  13.152  64.125  1.00  0.00    -0.430 A  
HETATM   28  C   UNL     1     -11.394  11.998  64.423  1.00  0.00    -0.411 A  
HETATM   29  C   UNL     1     -11.027  11.739  65.745  1.00  0.00    -0.353 A  
HETATM   30  C   UNL     1     -12.140  13.768  66.452  1.00  0.00    -0.483 A  
ENDBRANCH   8  24
ENDBRANCH   6   7
TORSDOF 2
ENDMDL
MODEL       12
REMARK 921   NORMALIZED FREE ENERGY PREDICTED BY IDOCK:   -7.59 KCAL/MOL
REMARK 922        TOTAL FREE ENERGY PREDICTED BY IDOCK:   -9.15 KCAL/MOL
REMARK 923 INTER-LIGAND FREE ENERGY PREDICTED BY IDOCK:   -8.45 KCAL/MOL
REMARK 924 INTRA-LIGAND FREE ENERGY PREDICTED BY IDOCK:   -0.70 KCAL/MOL
REMARK 927      BINDING AFFINITY PREDICTED BY RF-SCORE:    0.00 PKD
ROOT
HETATM    1  C   UNL     1      -7.805  10.271  69.925  1.00  0.00    -0.104 C  
HETATM    2  N   UNL     1      -9.151   9.758  69.972  1.00  0.00    -0.230 NA 
HETATM    3  N   UNL     1      -9.404   8.637  70.673  1.00  0.00    -0.172 NA 
HETATM    4  C   UNL     1     -10.709   8.476  70.468  1.00  0.00    -0.221 A  
HETATM    5  N   UNL     1     -11.279   9.392  69.638  1.00  0.00    -0.139 NA 
HETATM    6  C   UNL     1     -10.287  10.215  69.348  1.00  0.00    -0.232 A  
ENDROOT
BRANCH   6   7
HETATM    7  C   UNL     1     -10.408  11.431  68.460  1.00  0.00    -0.219 C  
HETATM    8  C   UNL     1     -11.784  12.111  68.638  1.00  0.00    -0.330 C  
HETATM    9  N   UNL     1     -12.384  12.646  67.417  1.00  0.00    -0.209 NA 
HETATM   10  C   UNL     1     -12.476  13.058  65.055  1.00  0.00    -0.534 A  
HETATM   11  H   UNL     1     -13.231  13.208  67.504  1.00  0.00     0.000 HD 
HETATM   12  C   UNL     1     -11.874  12.439  66.157  1.00  0.00    -0.376 A  
HETATM   13  F   UNL     1     -12.527  13.542  62.745  1.00  0.00    -0.445 F  
HETATM   14  C   UNL     1     -10.707  11.712  65.925  1.00  0.00    -0.328 A  
HETATM   15  C   UNL     1     -11.940  12.920  63.774  1.00  0.00    -0.512 A  
HETATM   16  C   UNL     1     -10.807  12.154  63.549  1.00  0.00    -0.518 A  
HETATM   17  C   UNL     1      -9.970  11.115  67.042  1.00  0.00    -0.192 C  
HETATM   18  C   UNL     1     -10.195  11.540  64.641  1.00  0.00    -0.334 A  
HETATM   19  N   UNL     1      -8.907  10.382  66.866  1.00  0.00    -0.133 NA 
HETATM   20  O   UNL     1      -8.540  10.491  63.345  1.00  0.00    -0.174 OA 
HETATM   21  H   UNL     1      -7.690   9.510  65.484  1.00  0.00     0.000 HD 
HETATM   22  N   UNL     1      -8.477  10.149  65.598  1.00  0.00    -0.147 N  
HETATM   23  C   UNL     1      -9.007  10.698  64.456  1.00  0.00    -0.196 C  
BRANCH   8  24
HETATM   24  C   UNL     1     -11.627  13.253  69.650  1.00  0.00    -0.329 A  
HETATM   25  C   UNL     1     -10.885  15.527  70.098  1.00  0.00    -0.346 A  
HETATM   26  F   UNL     1     -11.773  16.687  71.949  1.00  0.00    -0.519 F  
HETATM   27  C   UNL     1     -11.689  15.560  71.230  1.00  0.00    -0.401 A  
HETATM   28  C   UNL     1     -12.428  14.450  71.615  1.00  0.00    -0.427 A  
HETATM   29  C   UNL     1     -12.398  13.299  70.827  1.00  0.00    -0.425 A  
HETATM   30  C   UNL     1     -10.843  14.372  69.315  1.00  0.00    -0.261 A  
ENDBRANCH   8  24
ENDBRANCH   6   7
TORSDOF 2
ENDMDL
MODEL       13
REMARK 921   NORMALIZED FREE ENERGY PREDICTED BY IDOCK:   -7.53 KCAL/MOL
REMARK 922        TOTAL FREE ENERGY PREDICTED BY IDOCK:   -9.09 KCAL/MOL
REMARK 923 INTER-LIGAND FREE ENERGY PREDICTED BY IDOCK:   -8.28 KCAL/MOL
REMARK 924 INTRA-LIGAND FREE ENERGY PREDICTED BY IDOCK:   -0.81 KCAL/MOL
REMARK 927      BINDING AFFINITY PREDICTED BY RF-SCORE:    0.00 PKD
ROOT
HETATM    1  C   UNL     1      -7.885  10.525  69.521  1.00  0.00    -0.127 C  
HETATM    2  N   UNL     1      -8.295   9.626  68.472  1.00  0.00    -0.116 NA 
HETATM    3  N   UNL     1      -7.403   8.754  67.965  1.00  0.00    -0.087 NA 
HETATM    4  C   UNL     1      -8.126   8.131  67.037  1.00  0.00    -0.108 A  
HETATM    5  N   UNL     1      -9.398   8.595  66.892  1.00  0.00    -0.159 NA 
HETATM    6  C   UNL     1      -9.503   9.527  67.824  1.00  0.00    -0.131 A  
ENDROOT
BRANCH   6   7
HETATM    7  C   UNL     1     -10.746  10.342  68.091  1.00  0.00    -0.287 C  
HETATM    8  C   UNL     1     -10.519  11.829  67.736  1.00  0.00    -0.194 C  
HETATM    9  N   UNL     1     -11.147  12.793  68.638  1.00  0.00    -0.252 NA 
HETATM   10  C   UNL     1     -12.407  13.437  70.576  1.00  0.00    -0.401 A  
HETATM   11  H   UNL     1     -11.127  13.779  68.377  1.00  0.00     0.000 HD 
HETATM   12  C   UNL     1     -11.765  12.450  69.818  1.00  0.00    -0.291 A  
HETATM   13  F   UNL     1     -13.719  14.072  72.432  1.00  0.00    -0.468 F  
HETATM   14  C   UNL     1     -11.876  11.132  70.257  1.00  0.00    -0.455 A  
HETATM   15  C   UNL     1     -13.099  13.107  71.742  1.00  0.00    -0.383 A  
HETATM   16  C   UNL     1     -13.161  11.799  72.194  1.00  0.00    -0.308 A  
HETATM   17  C   UNL     1     -11.312  10.036  69.465  1.00  0.00    -0.169 C  
HETATM   18  C   UNL     1     -12.533  10.808  71.442  1.00  0.00    -0.478 A  
HETATM   19  N   UNL     1     -11.344   8.796  69.865  1.00  0.00    -0.050 NA 
HETATM   20  O   UNL     1     -13.081   9.081  72.937  1.00  0.00    -0.334 OA 
HETATM   21  H   UNL     1     -11.850   7.547  71.392  1.00  0.00     0.000 HD 
HETATM   22  N   UNL     1     -11.907   8.513  71.068  1.00  0.00    -0.280 N  
HETATM   23  C   UNL     1     -12.546   9.410  71.888  1.00  0.00    -0.401 C  
BRANCH   8  24
HETATM   24  C   UNL     1     -11.047  12.068  66.316  1.00  0.00    -0.363 A  
HETATM   25  C   UNL     1     -12.659  13.181  64.873  1.00  0.00    -0.468 A  
HETATM   26  F   UNL     1     -12.168  13.446  62.582  1.00  0.00    -0.357 F  
HETATM   27  C   UNL     1     -11.827  12.959  63.783  1.00  0.00    -0.504 A  
HETATM   28  C   UNL     1     -10.635  12.263  63.923  1.00  0.00    -0.462 A  
HETATM   29  C   UNL     1     -10.244  11.818  65.187  1.00  0.00    -0.309 A  
HETATM   30  C   UNL     1     -12.277  12.726  66.136  1.00  0.00    -0.340 A  
ENDBRANCH   8  24
ENDBRANCH   6   7
TORSDOF 2
ENDMDL
MODEL       14
REMARK 921   NORMALIZED FREE ENERGY PREDICTED BY IDOCK:   -7.52 KCAL/MOL
REMARK 922        TOTAL FREE ENERGY PREDICTED BY IDOCK:   -9.08 KCAL/MOL
REMARK 923 INTER-LIGAND FREE ENERGY PREDICTED BY IDOCK:   -8.12 KCAL/MOL
REMARK 924 INTRA-LIGAND FREE ENERGY PREDICTED BY IDOCK:   -0.96 KCAL/MOL
REMARK 927      BINDING AFFINITY PREDICTED BY RF-SCORE:    0.00 PKD
ROOT
HETATM    1  C   UNL     1      -8.971   9.945  64.843  1.00  0.00    -0.207 C  
HETATM    2  N   UNL     1      -8.231  10.073  66.073  1.00  0.00    -0.123 NA 
HETATM    3  N   UNL     1      -6.925   9.748  66.091  1.00  0.00    -0.092 NA 
HETATM    4  C   UNL     1      -6.606   9.973  67.364  1.00  0.00    -0.069 A  
HETATM    5  N   UNL     1      -7.641  10.365  68.156  1.00  0.00    -0.090 NA 
HETATM    6  C   UNL     1      -8.663  10.448  67.322  1.00  0.00    -0.125 A  
ENDROOT
BRANCH   6   7
HETATM    7  C   UNL     1     -10.061  10.868  67.711  1.00  0.00    -0.203 C  
HETATM    8  C   UNL     1     -10.156  12.403  67.863  1.00  0.00    -0.208 C  
HETATM    9  N   UNL     1     -11.003  12.875  68.958  1.00  0.00    -0.371 NA 
HETATM   10  C   UNL     1     -12.422  12.588  70.871  1.00  0.00    -0.361 A  
HETATM   11  H   UNL     1     -11.191  13.875  69.022  1.00  0.00     0.000 HD 
HETATM   12  C   UNL     1     -11.561  12.051  69.906  1.00  0.00    -0.238 A  
HETATM   13  F   UNL     1     -13.889  12.308  72.698  1.00  0.00    -0.461 F  
HETATM   14  C   UNL     1     -11.392  10.667  69.898  1.00  0.00    -0.386 A  
HETATM   15  C   UNL     1     -13.056  11.765  71.803  1.00  0.00    -0.375 A  
HETATM   16  C   UNL     1     -12.841  10.396  71.815  1.00  0.00    -0.561 A  
HETATM   17  C   UNL     1     -10.581  10.024  68.860  1.00  0.00    -0.218 C  
HETATM   18  C   UNL     1     -11.993   9.850  70.854  1.00  0.00    -0.434 A  
HETATM   19  N   UNL     1     -10.352   8.741  68.847  1.00  0.00    -0.211 NA 
HETATM   20  O   UNL     1     -12.188   7.658  71.674  1.00  0.00    -0.293 OA 
HETATM   21  H   UNL     1     -10.612   6.988  69.851  1.00  0.00     0.000 HD 
HETATM   22  N   UNL     1     -10.870   7.975  69.842  1.00  0.00    -0.242 N  
HETATM   23  C   UNL     1     -11.711   8.410  70.837  1.00  0.00    -0.246 C  
BRANCH   8  24
HETATM   24  C   UNL     1     -10.686  12.983  66.546  1.00  0.00    -0.290 A  
HETATM   25  C   UNL     1     -12.557  13.255  65.015  1.00  0.00    -0.483 A  
HETATM   26  F   UNL     1     -12.533  15.034  63.467  1.00  0.00    -0.150 F  
HETATM   27  C   UNL     1     -11.915  14.340  64.433  1.00  0.00    -0.456 A  
HETATM   28  C   UNL     1     -10.652  14.734  64.853  1.00  0.00    -0.431 A  
HETATM   29  C   UNL     1     -10.038  14.058  65.908  1.00  0.00    -0.336 A  
HETATM   30  C   UNL     1     -11.940  12.569  66.062  1.00  0.00    -0.456 A  
ENDBRANCH   8  24
ENDBRANCH   6   7
TORSDOF 2
ENDMDL
MODEL       15
REMARK 921   NORMALIZED FREE ENERGY PREDICTED BY IDOCK:   -7.52 KCAL/MOL
REMARK 922        TOTAL FREE ENERGY PREDICTED BY IDOCK:   -9.07 KCAL/MOL
REMARK 923 INTER-LIGAND FREE ENERGY PREDICTED BY IDOCK:   -8.27 KCAL/MOL
REMARK 924 INTRA-LIGAND FREE ENERGY PREDICTED BY IDOCK:   -0.81 KCAL/MOL
REMARK 927      BINDING AFFINITY PREDICTED BY RF-SCORE:    0.00 PKD
ROOT
HETATM    1  C   UNL     1     -12.459  12.776  64.848  1.00  0.00    -0.497 C  
HETATM    2  N   UNL     1     -11.242  12.025  64.670  1.00  0.00    -0.319 NA 
HETATM    3  N   UNL     1     -10.972  11.485  63.466  1.00  0.00    -0.404 NA 
HETATM    4  C   UNL     1      -9.812  10.873  63.695  1.00  0.00    -0.351 A  
HETATM    5  N   UNL     1      -9.366  10.948  64.980  1.00  0.00    -0.218 NA 
HETATM    6  C   UNL     1     -10.269  11.701  65.584  1.00  0.00    -0.243 A  
ENDROOT
BRANCH   6   7
HETATM    7  C   UNL     1     -10.221  12.101  67.039  1.00  0.00    -0.225 C  
HETATM    8  C   UNL     1     -11.316  11.372  67.850  1.00  0.00    -0.303 C  
HETATM    9  N   UNL     1     -11.960  12.168  68.894  1.00  0.00    -0.282 NA 
HETATM   10  C   UNL     1     -12.357  14.175  70.147  1.00  0.00    -0.413 A  
HETATM   11  H   UNL     1     -12.601  11.695  69.532  1.00  0.00     0.000 HD 
HETATM   12  C   UNL     1     -11.754  13.516  69.069  1.00  0.00    -0.327 A  
HETATM   13  F   UNL     1     -12.687  16.123  71.438  1.00  0.00    -0.495 F  
HETATM   14  C   UNL     1     -10.880  14.255  68.274  1.00  0.00    -0.256 A  
HETATM   15  C   UNL     1     -12.111  15.528  70.387  1.00  0.00    -0.392 A  
HETATM   16  C   UNL     1     -11.278  16.264  69.560  1.00  0.00    -0.308 A  
HETATM   17  C   UNL     1     -10.140  13.609  67.186  1.00  0.00    -0.245 C  
HETATM   18  C   UNL     1     -10.665  15.615  68.489  1.00  0.00    -0.264 A  
HETATM   19  N   UNL     1      -9.355  14.273  66.384  1.00  0.00    -0.272 NA 
HETATM   20  O   UNL     1      -9.601  17.553  67.696  1.00  0.00    -0.259 OA 
HETATM   21  H   UNL     1      -8.674  16.121  65.866  1.00  0.00     0.000 HD 
HETATM   22  N   UNL     1      -9.233  15.615  66.554  1.00  0.00    -0.267 N  
HETATM   23  C   UNL     1      -9.793  16.352  67.568  1.00  0.00    -0.239 C  
BRANCH   8  24
HETATM   24  C   UNL     1     -10.688  10.131  68.496  1.00  0.00    -0.264 A  
HETATM   25  C   UNL     1      -9.971   8.999  70.527  1.00  0.00    -0.263 A  
HETATM   26  F   UNL     1      -9.728   6.653  70.516  1.00  0.00    -0.172 F  
HETATM   27  C   UNL     1      -9.993   7.785  69.851  1.00  0.00    -0.191 A  
HETATM   28  C   UNL     1     -10.311   7.724  68.502  1.00  0.00    -0.226 A  
HETATM   29  C   UNL     1     -10.659   8.893  67.824  1.00  0.00    -0.266 A  
HETATM   30  C   UNL     1     -10.305  10.172  69.849  1.00  0.00    -0.308 A  
ENDBRANCH   8  24
ENDBRANCH   6   7
TORSDOF 2
ENDMDL
MODEL       16
REMARK 921   NORMALIZED FREE ENERGY PREDICTED BY IDOCK:   -7.41 KCAL/MOL
REMARK 922        TOTAL FREE ENERGY PREDICTED BY IDOCK:   -8.96 KCAL/MOL
REMARK 923 INTER-LIGAND FREE ENERGY PREDICTED BY IDOCK:   -8.82 KCAL/MOL
REMARK 924 INTRA-LIGAND FREE ENERGY PREDICTED BY IDOCK:   -0.14 KCAL/MOL
REMARK 927      BINDING AFFINITY PREDICTED BY RF-SCORE:    0.00 PKD
ROOT
HETATM    1  C   UNL     1     -10.027   9.079  71.636  1.00  0.00    -0.313 C  
HETATM    2  N   UNL     1     -11.437   9.347  71.504  1.00  0.00    -0.376 NA 
HETATM    3  N   UNL     1     -12.313   8.645  72.248  1.00  0.00    -0.379 NA 
HETATM    4  C   UNL     1     -13.478   9.147  71.844  1.00  0.00    -0.430 A  
HETATM    5  N   UNL     1     -13.391  10.079  70.855  1.00  0.00    -0.325 NA 
HETATM    6  C   UNL     1     -12.091  10.216  70.664  1.00  0.00    -0.319 A  
ENDROOT
BRANCH   6   7
HETATM    7  C   UNL     1     -11.462  11.160  69.667  1.00  0.00    -0.383 C  
HETATM    8  C   UNL     1     -12.406  12.342  69.353  1.00  0.00     0.095 C  
HETATM    9  N   UNL     1     -12.410  12.791  67.961  1.00  0.00    -0.047 NA 
HETATM   10  C   UNL     1     -11.760  12.685  65.654  1.00  0.00    -0.458 A  
HETATM   11  H   UNL     1     -12.924  13.642  67.733  1.00  0.00     0.000 HD 
HETATM   12  C   UNL     1     -11.762  12.134  66.941  1.00  0.00    -0.301 A  
HETATM   13  F   UNL     1     -11.056  12.639  63.402  1.00  0.00    -0.454 F  
HETATM   14  C   UNL     1     -11.008  10.980  67.146  1.00  0.00    -0.344 A  
HETATM   15  C   UNL     1     -11.054  12.076  64.616  1.00  0.00    -0.322 A  
HETATM   16  C   UNL     1     -10.348  10.901  64.820  1.00  0.00    -0.391 A  
HETATM   17  C   UNL     1     -10.886  10.400  68.486  1.00  0.00    -0.237 C  
HETATM   18  C   UNL     1     -10.336  10.350  66.100  1.00  0.00    -0.269 A  
HETATM   19  N   UNL     1     -10.238   9.293  68.713  1.00  0.00    -0.199 NA 
HETATM   20  O   UNL     1      -9.049   8.487  65.476  1.00  0.00    -0.175 OA 
HETATM   21  H   UNL     1      -9.234   7.741  67.856  1.00  0.00     0.000 HD 
HETATM   22  N   UNL     1      -9.669   8.644  67.664  1.00  0.00    -0.152 N  
HETATM   23  C   UNL     1      -9.625   9.094  66.367  1.00  0.00    -0.245 C  
BRANCH   8  24
HETATM   24  C   UNL     1     -12.010  13.523  70.249  1.00  0.00    -0.386 A  
HETATM   25  C   UNL     1     -11.135  15.787  70.412  1.00  0.00    -0.380 A  
HETATM   26  F   UNL     1     -11.581  17.061  72.346  1.00  0.00    -0.495 F  
HETATM   27  C   UNL     1     -11.679  15.899  71.685  1.00  0.00    -0.485 A  
HETATM   28  C   UNL     1     -12.347  14.835  72.273  1.00  0.00    -0.403 A  
HETATM   29  C   UNL     1     -12.513  13.648  71.557  1.00  0.00    -0.330 A  
HETATM   30  C   UNL     1     -11.288  14.598  69.699  1.00  0.00    -0.317 A  
ENDBRANCH   8  24
ENDBRANCH   6   7
TORSDOF 2
ENDMDL
MODEL       17
REMARK 921   NORMALIZED FREE ENERGY PREDICTED BY IDOCK:   -7.41 KCAL/MOL
REMARK 922        TOTAL FREE ENERGY PREDICTED BY IDOCK:   -8.95 KCAL/MOL
REMARK 923 INTER-LIGAND FREE ENERGY PREDICTED BY IDOCK:   -8.07 KCAL/MOL
REMARK 924 INTRA-LIGAND FREE ENERGY PREDICTED BY IDOCK:   -0.88 KCAL/MOL
REMARK 927      BINDING AFFINITY PREDICTED BY RF-SCORE:    0.00 PKD
ROOT
HETATM    1  C   UNL     1      -8.231  10.748  67.794  1.00  0.00    -0.112 C  
HETATM    2  N   UNL     1      -9.579  10.787  67.285  1.00  0.00    -0.159 NA 
HETATM    3  N   UNL     1      -9.811  10.435  66.007  1.00  0.00    -0.219 NA 
HETATM    4  C   UNL     1     -11.127  10.613  65.909  1.00  0.00     0.271 A  
HETATM    5  N   UNL     1     -11.726  11.106  67.027  1.00  0.00    -0.389 NA 
HETATM    6  C   UNL     1     -10.739  11.190  67.902  1.00  0.00    -0.216 A  
ENDROOT
BRANCH   6   7
HETATM    7  C   UNL     1     -10.889  11.673  69.326  1.00  0.00    -0.203 C  
HETATM    8  C   UNL     1     -12.019  10.909  70.053  1.00  0.00    -0.350 C  
HETATM    9  N   UNL     1     -12.833  11.710  70.965  1.00  0.00    -0.295 NA 
HETATM   10  C   UNL     1     -13.510  13.748  72.036  1.00  0.00    -0.559 A  
HETATM   11  H   UNL     1     -13.510  11.226  71.555  1.00  0.00     0.000 HD 
HETATM   12  C   UNL     1     -12.741  13.078  71.076  1.00  0.00    -0.262 A  
HETATM   13  F   UNL     1     -14.120  15.734  73.156  1.00  0.00    -0.587 F  
HETATM   14  C   UNL     1     -11.832  13.835  70.340  1.00  0.00    -0.323 A  
HETATM   15  C   UNL     1     -13.386  15.127  72.216  1.00  0.00    -0.408 A  
HETATM   16  C   UNL     1     -12.514  15.877  71.443  1.00  0.00    -0.459 A  
HETATM   17  C   UNL     1     -10.928  13.188  69.385  1.00  0.00     0.001 C  
HETATM   18  C   UNL     1     -11.738  15.218  70.492  1.00  0.00    -0.355 A  
HETATM   19  N   UNL     1     -10.103  13.864  68.636  1.00  0.00    -0.225 NA 
HETATM   20  O   UNL     1     -10.723  17.183  69.702  1.00  0.00    -0.226 OA 
HETATM   21  H   UNL     1      -9.494  15.727  68.082  1.00  0.00     0.000 HD 
HETATM   22  N   UNL     1     -10.093  15.219  68.733  1.00  0.00    -0.212 N  
HETATM   23  C   UNL     1     -10.817  15.966  69.629  1.00  0.00    -0.314 C  
BRANCH   8  24
HETATM   24  C   UNL     1     -11.387   9.756  70.842  1.00  0.00    -0.439 A  
HETATM   25  C   UNL     1      -9.364   8.652  71.622  1.00  0.00    -0.333 A  
HETATM   26  F   UNL     1      -9.479   7.215  73.488  1.00  0.00    -0.168 F  
HETATM   27  C   UNL     1     -10.103   8.001  72.601  1.00  0.00    -0.301 A  
HETATM   28  C   UNL     1     -11.477   8.173  72.691  1.00  0.00    -0.454 A  
HETATM   29  C   UNL     1     -12.119   9.049  71.815  1.00  0.00    -0.438 A  
HETATM   30  C   UNL     1     -10.005   9.518  70.735  1.00  0.00    -0.334 A  
ENDBRANCH   8  24
ENDBRANCH   6   7
TORSDOF 2
ENDMDL
MODEL       18
REMARK 921   NORMALIZED FREE ENERGY PREDICTED BY IDOCK:   -7.38 KCAL/MOL
REMARK 922        TOTAL FREE ENERGY PREDICTED BY IDOCK:   -8.92 KCAL/MOL
REMARK 923 INTER-LIGAND FREE ENERGY PREDICTED BY IDOCK:   -7.92 KCAL/MOL
REMARK 924 INTRA-LIGAND FREE ENERGY PREDICTED BY IDOCK:   -1.00 KCAL/MOL
REMARK 927      BINDING AFFINITY PREDICTED BY RF-SCORE:    0.00 PKD
ROOT
HETATM    1  C   UNL     1      -8.256  10.225  65.573  1.00  0.00    -0.158 C  
HETATM    2  N   UNL     1      -7.804  10.922  66.750  1.00  0.00    -0.134 NA 
HETATM    3  N   UNL     1      -6.528  11.345  66.815  1.00  0.00    -0.138 NA 
HETATM    4  C   UNL     1      -6.488  11.907  68.022  1.00  0.00    -0.055 A  
HETATM    5  N   UNL     1      -7.642  11.815  68.738  1.00  0.00    -0.123 NA 
HETATM    6  C   UNL     1      -8.478  11.209  67.913  1.00  0.00    -0.131 A  
ENDROOT
BRANCH   6   7
HETATM    7  C   UNL     1      -9.918  10.883  68.232  1.00  0.00    -0.187 C  
HETATM    8  C   UNL     1     -10.670  12.135  68.736  1.00  0.00    -0.219 C  
HETATM    9  N   UNL     1     -11.634  11.899  69.810  1.00  0.00    -0.420 NA 
HETATM   10  C   UNL     1     -12.782  10.546  71.426  1.00  0.00    -0.547 A  
HETATM   11  H   UNL     1     -12.239  12.671  70.091  1.00  0.00     0.000 HD 
HETATM   12  C   UNL     1     -11.776  10.697  70.464  1.00  0.00    -0.356 A  
HETATM   13  F   UNL     1     -13.975   9.203  72.957  1.00  0.00    -0.426 F  
HETATM   14  C   UNL     1     -11.022   9.570  70.143  1.00  0.00    -0.302 A  
HETATM   15  C   UNL     1     -12.991   9.319  72.057  1.00  0.00    -0.425 A  
HETATM   16  C   UNL     1     -12.203   8.218  71.764  1.00  0.00    -0.367 A  
HETATM   17  C   UNL     1     -10.016   9.628  69.079  1.00  0.00    -0.185 C  
HETATM   18  C   UNL     1     -11.204   8.355  70.801  1.00  0.00    -0.290 A  
HETATM   19  N   UNL     1      -9.252   8.614  68.784  1.00  0.00    -0.142 NA 
HETATM   20  O   UNL     1     -10.424   6.153  71.043  1.00  0.00    -0.212 OA 
HETATM   21  H   UNL     1      -8.720   6.717  69.301  1.00  0.00     0.000 HD 
HETATM   22  N   UNL     1      -9.382   7.468  69.501  1.00  0.00    -0.153 N  
HETATM   23  C   UNL     1     -10.325   7.228  70.470  1.00  0.00    -0.206 C  
BRANCH   8  24
HETATM   24  C   UNL     1     -11.404  12.765  67.546  1.00  0.00    -0.361 A  
HETATM   25  C   UNL     1     -12.029  14.783  66.339  1.00  0.00    -0.179 A  
HETATM   26  F   UNL     1     -12.652  14.625  64.070  1.00  0.00    -0.485 F  
HETATM   27  C   UNL     1     -12.293  14.018  65.210  1.00  0.00    -0.465 A  
HETATM   28  C   UNL     1     -12.166  12.637  65.236  1.00  0.00    -0.532 A  
HETATM   29  C   UNL     1     -11.722  12.010  66.401  1.00  0.00    -0.326 A  
HETATM   30  C   UNL     1     -11.597  14.158  67.509  1.00  0.00    -0.396 A  
ENDBRANCH   8  24
ENDBRANCH   6   7
TORSDOF 2
ENDMDL
MODEL       19
REMARK 921   NORMALIZED FREE ENERGY PREDICTED BY IDOCK:   -7.37 KCAL/MOL
REMARK 922        TOTAL FREE ENERGY PREDICTED BY IDOCK:   -8.91 KCAL/MOL
REMARK 923 INTER-LIGAND FREE ENERGY PREDICTED BY IDOCK:   -8.30 KCAL/MOL
REMARK 924 INTRA-LIGAND FREE ENERGY PREDICTED BY IDOCK:   -0.60 KCAL/MOL
REMARK 927      BINDING AFFINITY PREDICTED BY RF-SCORE:    0.00 PKD
ROOT
HETATM    1  C   UNL     1      -9.814  14.456  68.468  1.00  0.00    -0.233 C  
HETATM    2  N   UNL     1     -10.867  13.942  69.306  1.00  0.00    -0.186 NA 
HETATM    3  N   UNL     1     -11.314  14.688  70.334  1.00  0.00    -0.221 NA 
HETATM    4  C   UNL     1     -12.241  13.893  70.866  1.00  0.00    -0.361 A  
HETATM    5  N   UNL     1     -12.365  12.675  70.270  1.00  0.00    -0.246 NA 
HETATM    6  C   UNL     1     -11.506  12.725  69.267  1.00  0.00    -0.289 A  
ENDROOT
BRANCH   6   7
HETATM    7  C   UNL     1     -11.273  11.610  68.276  1.00  0.00    -0.320 C  
HETATM    8  C   UNL     1      -9.939  10.884  68.562  1.00  0.00    -0.182 C  
HETATM    9  N   UNL     1      -9.182  10.471  67.381  1.00  0.00    -0.142 NA 
HETATM   10  C   UNL     1      -8.772  10.314  65.023  1.00  0.00    -0.195 A  
HETATM   11  H   UNL     1      -8.359   9.885  67.520  1.00  0.00     0.000 HD 
HETATM   12  C   UNL     1      -9.514  10.825  66.095  1.00  0.00    -0.187 A  
HETATM   13  F   UNL     1      -8.409  10.082  62.702  1.00  0.00    -0.128 F  
HETATM   14  C   UNL     1     -10.633  11.598  65.789  1.00  0.00    -0.320 A  
HETATM   15  C   UNL     1      -9.127  10.602  63.704  1.00  0.00    -0.232 A  
HETATM   16  C   UNL     1     -10.213  11.413  63.414  1.00  0.00    -0.457 A  
HETATM   17  C   UNL     1     -11.511  12.087  66.855  1.00  0.00    -0.337 C  
HETATM   18  C   UNL     1     -10.964  11.918  64.474  1.00  0.00    -0.376 A  
HETATM   19  N   UNL     1     -12.535  12.858  66.618  1.00  0.00    -0.284 NA 
HETATM   20  O   UNL     1     -12.419  13.138  63.090  1.00  0.00    -0.686 OA 
HETATM   21  H   UNL     1     -13.546  13.900  65.189  1.00  0.00     0.000 HD 
HETATM   22  N   UNL     1     -12.786  13.235  65.338  1.00  0.00    -0.467 N  
HETATM   23  C   UNL     1     -12.109  12.802  64.224  1.00  0.00    -0.425 C  
BRANCH   8  24
HETATM   24  C   UNL     1     -10.242   9.643  69.411  1.00  0.00    -0.220 A  
HETATM   25  C   UNL     1     -11.147   8.724  71.474  1.00  0.00    -0.377 A  
HETATM   26  F   UNL     1     -11.817   6.463  71.534  1.00  0.00    -0.334 F  
HETATM   27  C   UNL     1     -11.264   7.482  70.862  1.00  0.00    -0.269 A  
HETATM   28  C   UNL     1     -10.839   7.286  69.556  1.00  0.00    -0.224 A  
HETATM   29  C   UNL     1     -10.329   8.364  68.831  1.00  0.00    -0.231 A  
HETATM   30  C   UNL     1     -10.626   9.800  70.756  1.00  0.00    -0.371 A  
ENDBRANCH   8  24
ENDBRANCH   6   7
TORSDOF 2
ENDMDL
MODEL       20
REMARK 921   NORMALIZED FREE ENERGY PREDICTED BY IDOCK:   -7.34 KCAL/MOL
REMARK 922        TOTAL FREE ENERGY PREDICTED BY IDOCK:   -8.88 KCAL/MOL
REMARK 923 INTER-LIGAND FREE ENERGY PREDICTED BY IDOCK:   -8.21 KCAL/MOL
REMARK 924 INTRA-LIGAND FREE ENERGY PREDICTED BY IDOCK:   -0.67 KCAL/MOL
REMARK 927      BINDING AFFINITY PREDICTED BY RF-SCORE:    0.00 PKD
ROOT
HETATM    1  C   UNL     1      -7.850  10.838  69.784  1.00  0.00     0.143 C  
HETATM    2  N   UNL     1      -8.185  10.080  68.605  1.00  0.00    -0.106 NA 
HETATM    3  N   UNL     1      -7.261   9.266  68.061  1.00  0.00    -0.078 NA 
HETATM    4  C   UNL     1      -7.917   8.771  67.013  1.00  0.00    -0.095 A  
HETATM    5  N   UNL     1      -9.172   9.266  66.833  1.00  0.00    -0.140 NA 
HETATM    6  C   UNL     1      -9.342  10.078  67.863  1.00  0.00    -0.140 A  
ENDROOT
BRANCH   6   7
HETATM    7  C   UNL     1     -10.598  10.870  68.137  1.00  0.00    -0.233 C  
HETATM    8  C   UNL     1     -10.340  12.386  67.982  1.00  0.00    -0.216 C  
HETATM    9  N   UNL     1     -11.028  13.243  68.948  1.00  0.00    -0.281 NA 
HETATM   10  C   UNL     1     -12.423  13.665  70.854  1.00  0.00    -0.448 A  
HETATM   11  H   UNL     1     -10.984  14.253  68.810  1.00  0.00     0.000 HD 
HETATM   12  C   UNL     1     -11.732  12.768  70.030  1.00  0.00    -0.209 A  
HETATM   13  F   UNL     1     -13.864  14.087  72.674  1.00  0.00    -0.535 F  
HETATM   14  C   UNL     1     -11.880  11.408  70.296  1.00  0.00    -0.438 A  
HETATM   15  C   UNL     1     -13.200  13.205  71.919  1.00  0.00    -0.431 A  
HETATM   16  C   UNL     1     -13.299  11.853  72.203  1.00  0.00    -0.361 A  
HETATM   17  C   UNL     1     -11.263  10.408  69.420  1.00  0.00    -0.259 C  
HETATM   18  C   UNL     1     -12.623  10.952  71.383  1.00  0.00    -0.508 A  
HETATM   19  N   UNL     1     -11.330   9.130  69.663  1.00  0.00    -0.006 NA 
HETATM   20  O   UNL     1     -13.285   9.064  72.615  1.00  0.00    -0.443 OA 
HETATM   21  H   UNL     1     -11.951   7.712  70.987  1.00  0.00     0.000 HD 
HETATM   22  N   UNL     1     -11.980   8.711  70.779  1.00  0.00    -0.189 N  
HETATM   23  C   UNL     1     -12.674   9.510  71.654  1.00  0.00    -0.388 C  
BRANCH   8  24
HETATM   24  C   UNL     1     -10.761  12.803  66.568  1.00  0.00    -0.277 A  
HETATM   25  C   UNL     1     -10.541  12.474  64.167  1.00  0.00    -0.425 A  
HETATM   26  F   UNL     1     -12.262  13.217  62.737  1.00  0.00    -0.509 F  
HETATM   27  C   UNL     1     -11.753  13.124  63.973  1.00  0.00    -0.439 A  
HETATM   28  C   UNL     1     -12.459  13.656  65.043  1.00  0.00    -0.454 A  
HETATM   29  C   UNL     1     -11.965  13.495  66.338  1.00  0.00    -0.459 A  
HETATM   30  C   UNL     1     -10.038  12.324  65.460  1.00  0.00    -0.279 A  
ENDBRANCH   8  24
ENDBRANCH   6   7
TORSDOF 2
ENDMDL
MODEL       21
REMARK 921   NORMALIZED FREE ENERGY PREDICTED BY IDOCK:   -7.24 KCAL/MOL
REMARK 922        TOTAL FREE ENERGY PREDICTED BY IDOCK:   -8.77 KCAL/MOL
REMARK 923 INTER-LIGAND FREE ENERGY PREDICTED BY IDOCK:   -7.96 KCAL/MOL
REMARK 924 INTRA-LIGAND FREE ENERGY PREDICTED BY IDOCK:   -0.80 KCAL/MOL
REMARK 927      BINDING AFFINITY PREDICTED BY RF-SCORE:    0.00 PKD
ROOT
HETATM    1  C   UNL     1     -10.773   7.333  68.806  1.00  0.00    -0.139 C  
HETATM    2  N   UNL     1     -10.300   7.885  70.050  1.00  0.00    -0.216 NA 
HETATM    3  N   UNL     1     -10.064   7.061  71.089  1.00  0.00    -0.188 NA 
HETATM    4  C   UNL     1      -9.671   7.915  72.031  1.00  0.00    -0.187 A  
HETATM    5  N   UNL     1      -9.699   9.227  71.667  1.00  0.00    -0.269 NA 
HETATM    6  C   UNL     1     -10.076   9.195  70.400  1.00  0.00    -0.218 A  
ENDROOT
BRANCH   6   7
HETATM    7  C   UNL     1     -10.244  10.411  69.521  1.00  0.00    -0.258 C  
HETATM    8  C   UNL     1     -11.739  10.743  69.316  1.00  0.00    -0.303 C  
HETATM    9  N   UNL     1     -12.101  11.212  67.979  1.00  0.00    -0.711 NA 
HETATM   10  C   UNL     1     -11.656  11.760  65.686  1.00  0.00    -0.190 A  
HETATM   11  H   UNL     1     -13.050  11.557  67.832  1.00  0.00     0.000 HD 
HETATM   12  C   UNL     1     -11.239  11.218  66.908  1.00  0.00    -0.230 A  
HETATM   13  F   UNL     1     -11.203  12.383  63.455  1.00  0.00    -0.444 F  
HETATM   14  C   UNL     1      -9.914  10.797  67.003  1.00  0.00    -0.236 A  
HETATM   15  C   UNL     1     -10.780  11.840  64.602  1.00  0.00    -0.310 A  
HETATM   16  C   UNL     1      -9.479  11.373  64.695  1.00  0.00    -0.171 A  
HETATM   17  C   UNL     1      -9.381  10.306  68.277  1.00  0.00    -0.138 C  
HETATM   18  C   UNL     1      -9.051  10.839  65.910  1.00  0.00    -0.208 A  
HETATM   19  N   UNL     1      -8.165   9.851  68.398  1.00  0.00    -0.104 NA 
HETATM   20  O   UNL     1      -6.909  10.293  65.117  1.00  0.00    -0.130 OA 
HETATM   21  H   UNL     1      -6.451   9.383  67.401  1.00  0.00     0.000 HD 
HETATM   22  N   UNL     1      -7.370   9.815  67.297  1.00  0.00    -0.087 N  
HETATM   23  C   UNL     1      -7.691  10.308  66.056  1.00  0.00    -0.130 C  
BRANCH   8  24
HETATM   24  C   UNL     1     -12.137  11.815  70.337  1.00  0.00    -0.440 A  
HETATM   25  C   UNL     1     -12.545  14.167  70.810  1.00  0.00    -0.432 A  
HETATM   26  F   UNL     1     -13.878  14.758  72.663  1.00  0.00    -0.471 F  
HETATM   27  C   UNL     1     -13.274  13.808  71.936  1.00  0.00    -0.403 A  
HETATM   28  C   UNL     1     -13.410  12.477  72.306  1.00  0.00    -0.475 A  
HETATM   29  C   UNL     1     -12.844  11.482  71.509  1.00  0.00    -0.485 A  
HETATM   30  C   UNL     1     -11.966  13.174  70.018  1.00  0.00    -0.391 A  
ENDBRANCH   8  24
ENDBRANCH   6   7
TORSDOF 2
ENDMDL
MODEL       22
REMARK 921   NORMALIZED FREE ENERGY PREDICTED BY IDOCK:   -7.23 KCAL/MOL
REMARK 922        TOTAL FREE ENERGY PREDICTED BY IDOCK:   -8.75 KCAL/MOL
REMARK 923 INTER-LIGAND FREE ENERGY PREDICTED BY IDOCK:   -8.03 KCAL/MOL
REMARK 924 INTRA-LIGAND FREE ENERGY PREDICTED BY IDOCK:   -0.71 KCAL/MOL
REMARK 927      BINDING AFFINITY PREDICTED BY RF-SCORE:    0.00 PKD
ROOT
HETATM    1  C   UNL     1     -13.509   9.974  71.825  1.00  0.00    -0.328 C  
HETATM    2  N   UNL     1     -12.972  11.242  71.400  1.00  0.00    -0.415 NA 
HETATM    3  N   UNL     1     -13.418  12.373  71.979  1.00  0.00    -0.454 NA 
HETATM    4  C   UNL     1     -12.724  13.305  71.329  1.00  0.00    -0.323 A  
HETATM    5  N   UNL     1     -11.913  12.834  70.342  1.00  0.00    -0.307 NA 
HETATM    6  C   UNL     1     -12.059  11.522  70.412  1.00  0.00    -0.382 A  
ENDROOT
BRANCH   6   7
HETATM    7  C   UNL     1     -11.346  10.528  69.527  1.00  0.00    -0.341 C  
HETATM    8  C   UNL     1     -10.090   9.964  70.228  1.00  0.00    -0.237 C  
HETATM    9  N   UNL     1      -8.931   9.746  69.363  1.00  0.00    -0.176 NA 
HETATM   10  C   UNL     1      -7.743   9.829  67.280  1.00  0.00    -0.095 A  
HETATM   11  H   UNL     1      -8.123   9.264  69.756  1.00  0.00     0.000 HD 
HETATM   12  C   UNL     1      -8.867  10.152  68.051  1.00  0.00    -0.125 A  
HETATM   13  F   UNL     1      -6.600   9.827  65.215  1.00  0.00    -0.077 F  
HETATM   14  C   UNL     1      -9.923  10.793  67.406  1.00  0.00    -0.214 A  
HETATM   15  C   UNL     1      -7.680  10.170  65.928  1.00  0.00    -0.127 A  
HETATM   16  C   UNL     1      -8.717  10.850  65.311  1.00  0.00    -0.147 A  
HETATM   17  C   UNL     1     -11.168  11.078  68.124  1.00  0.00    -0.302 C  
HETATM   18  C   UNL     1      -9.843  11.169  66.066  1.00  0.00    -0.270 A  
HETATM   19  N   UNL     1     -12.159  11.724  67.576  1.00  0.00    -0.550 NA 
HETATM   20  O   UNL     1     -10.922  12.291  64.307  1.00  0.00    -0.298 OA 
HETATM   21  H   UNL     1     -12.782  12.733  65.920  1.00  0.00     0.000 HD 
HETATM   22  N   UNL     1     -12.024  12.164  66.298  1.00  0.00    -0.259 N  
HETATM   23  C   UNL     1     -10.959  11.911  65.468  1.00  0.00    -0.297 C  
BRANCH   8  24
HETATM   24  C   UNL     1     -10.467   8.631  70.888  1.00  0.00    -0.265 A  
HETATM   25  C   UNL     1     -10.840   7.376  72.939  1.00  0.00    -0.402 A  
HETATM   26  F   UNL     1     -12.154   5.419  72.872  1.00  0.00    -0.342 F  
HETATM   27  C   UNL     1     -11.568   6.434  72.223  1.00  0.00    -0.299 A  
HETATM   28  C   UNL     1     -11.721   6.543  70.848  1.00  0.00    -0.416 A  
HETATM   29  C   UNL     1     -11.172   7.639  70.181  1.00  0.00    -0.193 A  
HETATM   30  C   UNL     1     -10.279   8.466  72.272  1.00  0.00    -0.396 A  
ENDBRANCH   8  24
ENDBRANCH   6   7
TORSDOF 2
ENDMDL
MODEL       23
REMARK 921   NORMALIZED FREE ENERGY PREDICTED BY IDOCK:   -7.21 KCAL/MOL
REMARK 922        TOTAL FREE ENERGY PREDICTED BY IDOCK:   -8.73 KCAL/MOL
REMARK 923 INTER-LIGAND FREE ENERGY PREDICTED BY IDOCK:   -7.75 KCAL/MOL
REMARK 924 INTRA-LIGAND FREE ENERGY PREDICTED BY IDOCK:   -0.98 KCAL/MOL
REMARK 927      BINDING AFFINITY PREDICTED BY RF-SCORE:    0.00 PKD
ROOT
HETATM    1  C   UNL     1     -10.726   7.370  67.118  1.00  0.00    -0.330 C  
HETATM    2  N   UNL     1      -9.675   8.079  67.802  1.00  0.00    -0.151 NA 
HETATM    3  N   UNL     1      -8.464   7.504  67.923  1.00  0.00    -0.122 NA 
HETATM    4  C   UNL     1      -7.790   8.426  68.608  1.00  0.00    -0.116 A  
HETATM    5  N   UNL     1      -8.518   9.519  68.970  1.00  0.00    -0.123 NA 
HETATM    6  C   UNL     1      -9.705   9.300  68.433  1.00  0.00    -0.154 A  
ENDROOT
BRANCH   6   7
HETATM    7  C   UNL     1     -10.883  10.240  68.533  1.00  0.00    -0.281 C  
HETATM    8  C   UNL     1     -10.463  11.689  68.196  1.00  0.00    -0.195 C  
HETATM    9  N   UNL     1     -11.098  12.731  69.002  1.00  0.00    -0.330 NA 
HETATM   10  C   UNL     1     -12.517  13.541  70.759  1.00  0.00    -0.428 A  
HETATM   11  H   UNL     1     -10.945  13.704  68.736  1.00  0.00     0.000 HD 
HETATM   12  C   UNL     1     -11.890  12.478  70.098  1.00  0.00    -0.258 A  
HETATM   13  F   UNL     1     -13.979  14.344  72.428  1.00  0.00    -0.467 F  
HETATM   14  C   UNL     1     -12.188  11.188  70.531  1.00  0.00    -0.475 A  
HETATM   15  C   UNL     1     -13.380  13.308  71.831  1.00  0.00    -0.451 A  
HETATM   16  C   UNL     1     -13.630  12.023  72.285  1.00  0.00    -0.164 A  
HETATM   17  C   UNL     1     -11.644  10.023  69.828  1.00  0.00    -0.134 C  
HETATM   18  C   UNL     1     -13.018  10.957  71.627  1.00  0.00    -0.569 A  
HETATM   19  N   UNL     1     -11.852   8.802  70.232  1.00  0.00     0.044 NA 
HETATM   20  O   UNL     1     -13.920   9.327  73.058  1.00  0.00    -0.333 OA 
HETATM   21  H   UNL     1     -12.669   7.644  71.695  1.00  0.00     0.000 HD 
HETATM   22  N   UNL     1     -12.586   8.603  71.358  1.00  0.00    -0.309 N  
HETATM   23  C   UNL     1     -13.228   9.578  72.082  1.00  0.00    -0.451 C  
BRANCH   8  24
HETATM   24  C   UNL     1     -10.782  11.948  66.718  1.00  0.00    -0.282 A  
HETATM   25  C   UNL     1     -12.450  12.485  65.029  1.00  0.00    -0.494 A  
HETATM   26  F   UNL     1     -11.754  13.400  62.970  1.00  0.00    -0.391 F  
HETATM   27  C   UNL     1     -11.438  12.886  64.166  1.00  0.00    -0.396 A  
HETATM   28  C   UNL     1     -10.103  12.787  64.534  1.00  0.00    -0.267 A  
HETATM   29  C   UNL     1      -9.775  12.320  65.808  1.00  0.00    -0.228 A  
HETATM   30  C   UNL     1     -12.124  12.005  66.298  1.00  0.00     0.103 A  
ENDBRANCH   8  24
ENDBRANCH   6   7
TORSDOF 2
ENDMDL
MODEL       24
REMARK 921   NORMALIZED FREE ENERGY PREDICTED BY IDOCK:   -7.14 KCAL/MOL
REMARK 922        TOTAL FREE ENERGY PREDICTED BY IDOCK:   -8.65 KCAL/MOL
REMARK 923 INTER-LIGAND FREE ENERGY PREDICTED BY IDOCK:   -7.86 KCAL/MOL
REMARK 924 INTRA-LIGAND FREE ENERGY PREDICTED BY IDOCK:   -0.79 KCAL/MOL
REMARK 927      BINDING AFFINITY PREDICTED BY RF-SCORE:    0.00 PKD
ROOT
HETATM    1  C   UNL     1      -9.935  16.752  69.606  1.00  0.00     0.044 C  
HETATM    2  N   UNL     1     -10.971  15.750  69.602  1.00  0.00    -0.278 NA 
HETATM    3  N   UNL     1     -11.891  15.752  70.585  1.00  0.00    -0.360 NA 
HETATM    4  C   UNL     1     -12.641  14.701  70.258  1.00  0.00    -0.318 A  
HETATM    5  N   UNL     1     -12.217  14.009  69.166  1.00  0.00    -0.323 NA 
HETATM    6  C   UNL     1     -11.171  14.696  68.743  1.00  0.00    -0.267 A  
ENDROOT
BRANCH   6   7
HETATM    7  C   UNL     1     -10.343  14.346  67.529  1.00  0.00    -0.251 C  
HETATM    8  C   UNL     1     -10.833  15.117  66.283  1.00  0.00    -0.333 C  
HETATM    9  N   UNL     1     -10.806  14.366  65.028  1.00  0.00    -0.382 NA 
HETATM   10  C   UNL     1     -10.449  12.409  63.688  1.00  0.00    -0.460 A  
HETATM   11  H   UNL     1     -11.005  14.870  64.164  1.00  0.00     0.000 HD 
HETATM   12  C   UNL     1     -10.528  13.022  64.944  1.00  0.00    -0.339 A  
HETATM   13  F   UNL     1     -10.016  10.511  62.353  1.00  0.00    -0.248 F  
HETATM   14  C   UNL     1     -10.215  12.245  66.058  1.00  0.00    -0.267 A  
HETATM   15  C   UNL     1     -10.102  11.062  63.569  1.00  0.00    -0.373 A  
HETATM   16  C   UNL     1      -9.841  10.287  64.688  1.00  0.00    -0.396 A  
HETATM   17  C   UNL     1     -10.184  12.843  67.396  1.00  0.00    -0.230 C  
HETATM   18  C   UNL     1      -9.908  10.891  65.943  1.00  0.00    -0.285 A  
HETATM   19  N   UNL     1      -9.950  12.142  68.469  1.00  0.00    -0.202 NA 
HETATM   20  O   UNL     1      -9.425   8.913  67.114  1.00  0.00    -0.146 OA 
HETATM   21  H   UNL     1      -9.642  10.267  69.205  1.00  0.00     0.000 HD 
HETATM   22  N   UNL     1      -9.746  10.804  68.344  1.00  0.00    -0.168 N  
HETATM   23  C   UNL     1      -9.665  10.110  67.161  1.00  0.00    -0.173 C  
BRANCH   8  24
HETATM   24  C   UNL     1      -9.965  16.372  66.124  1.00  0.00    -0.360 A  
HETATM   25  C   UNL     1      -9.800  18.796  66.242  1.00  0.00    -0.382 A  
HETATM   26  F   UNL     1      -7.679  19.798  66.488  1.00  0.00    -0.245 F  
HETATM   27  C   UNL     1      -8.417  18.692  66.323  1.00  0.00    -0.224 A  
HETATM   28  C   UNL     1      -7.788  17.457  66.261  1.00  0.00    -0.330 A  
HETATM   29  C   UNL     1      -8.560  16.298  66.163  1.00  0.00    -0.342 A  
HETATM   30  C   UNL     1     -10.573  17.640  66.130  1.00  0.00    -0.220 A  
ENDBRANCH   8  24
ENDBRANCH   6   7
TORSDOF 2
ENDMDL
MODEL       25
REMARK 921   NORMALIZED FREE ENERGY PREDICTED BY IDOCK:   -7.13 KCAL/MOL
REMARK 922        TOTAL FREE ENERGY PREDICTED BY IDOCK:   -8.64 KCAL/MOL
REMARK 923 INTER-LIGAND FREE ENERGY PREDICTED BY IDOCK:   -7.77 KCAL/MOL
REMARK 924 INTRA-LIGAND FREE ENERGY PREDICTED BY IDOCK:   -0.87 KCAL/MOL
REMARK 927      BINDING AFFINITY PREDICTED BY RF-SCORE:    0.00 PKD
ROOT
HETATM    1  C   UNL     1      -7.397  10.498  66.045  1.00  0.00    -0.137 C  
HETATM    2  N   UNL     1      -7.179  10.527  67.469  1.00  0.00    -0.089 NA 
HETATM    3  N   UNL     1      -6.103   9.903  67.983  1.00  0.00    -0.053 NA 
HETATM    4  C   UNL     1      -6.253  10.130  69.287  1.00  0.00    -0.044 A  
HETATM    5  N   UNL     1      -7.384  10.807  69.627  1.00  0.00    -0.135 NA 
HETATM    6  C   UNL     1      -7.952  11.076  68.464  1.00  0.00    -0.137 A  
ENDROOT
BRANCH   6   7
HETATM    7  C   UNL     1      -9.243  11.840  68.293  1.00  0.00    -0.188 C  
HETATM    8  C   UNL     1     -10.371  10.914  67.784  1.00  0.00    -0.187 C  
HETATM    9  N   UNL     1     -11.288  11.513  66.815  1.00  0.00    -0.416 NA 
HETATM   10  C   UNL     1     -12.077  13.274  65.388  1.00  0.00    -0.464 A  
HETATM   11  H   UNL     1     -12.115  10.981  66.544  1.00  0.00     0.000 HD 
HETATM   12  C   UNL     1     -11.102  12.752  66.247  1.00  0.00    -0.288 A  
HETATM   13  F   UNL     1     -12.907  15.032  64.050  1.00  0.00    -0.320 F  
HETATM   14  C   UNL     1     -10.023  13.575  66.567  1.00  0.00    -0.287 A  
HETATM   15  C   UNL     1     -11.947  14.556  64.851  1.00  0.00    -0.422 A  
HETATM   16  C   UNL     1     -10.845  15.345  65.138  1.00  0.00    -0.447 A  
HETATM   17  C   UNL     1      -9.013  13.133  67.533  1.00  0.00    -0.197 C  
HETATM   18  C   UNL     1      -9.873  14.839  66.000  1.00  0.00    -0.350 A  
HETATM   19  N   UNL     1      -7.961  13.846  67.819  1.00  0.00    -0.155 NA 
HETATM   20  O   UNL     1      -8.481  16.722  65.819  1.00  0.00    -0.472 OA 
HETATM   21  H   UNL     1      -6.916  15.536  67.368  1.00  0.00     0.000 HD 
HETATM   22  N   UNL     1      -7.785  15.035  67.184  1.00  0.00    -0.202 N  
HETATM   23  C   UNL     1      -8.674  15.623  66.317  1.00  0.00    -0.290 C  
BRANCH   8  24
HETATM   24  C   UNL     1     -11.181  10.435  68.995  1.00  0.00    -0.289 A  
HETATM   25  C   UNL     1     -11.438   8.823  70.799  1.00  0.00    -0.309 A  
HETATM   26  F   UNL     1     -12.738   9.395  72.682  1.00  0.00    -0.411 F  
HETATM   27  C   UNL     1     -12.271   9.712  71.467  1.00  0.00    -0.399 A  
HETATM   28  C   UNL     1     -12.607  10.936  70.905  1.00  0.00    -0.494 A  
HETATM   29  C   UNL     1     -12.063  11.298  69.672  1.00  0.00    -0.391 A  
HETATM   30  C   UNL     1     -10.903   9.176  69.560  1.00  0.00    -0.194 A  
ENDBRANCH   8  24
ENDBRANCH   6   7
TORSDOF 2
ENDMDL
MODEL       26
REMARK 921   NORMALIZED FREE ENERGY PREDICTED BY IDOCK:   -7.06 KCAL/MOL
REMARK 922        TOTAL FREE ENERGY PREDICTED BY IDOCK:   -8.56 KCAL/MOL
REMARK 923 INTER-LIGAND FREE ENERGY PREDICTED BY IDOCK:   -8.00 KCAL/MOL
REMARK 924 INTRA-LIGAND FREE ENERGY PREDICTED BY IDOCK:   -0.57 KCAL/MOL
REMARK 927      BINDING AFFINITY PREDICTED BY RF-SCORE:    0.00 PKD
ROOT
HETATM    1  C   UNL     1      -9.293  15.650  65.953  1.00  0.00    -0.321 C  
HETATM    2  N   UNL     1     -10.606  15.287  65.484  1.00  0.00    -0.344 NA 
HETATM    3  N   UNL     1     -11.221  16.070  64.578  1.00  0.00    -0.545 NA 
HETATM    4  C   UNL     1     -12.381  15.438  64.414  1.00  0.00    -0.077 A  
HETATM    5  N   UNL     1     -12.555  14.340  65.200  1.00  0.00    -0.574 NA 
HETATM    6  C   UNL     1     -11.413  14.239  65.858  1.00  0.00    -0.335 A  
ENDROOT
BRANCH   6   7
HETATM    7  C   UNL     1     -11.088  13.157  66.860  1.00  0.00    -0.308 C  
HETATM    8  C   UNL     1     -10.440  13.754  68.129  1.00  0.00    -0.249 C  
HETATM    9  N   UNL     1      -9.369  12.955  68.724  1.00  0.00    -0.410 NA 
HETATM   10  C   UNL     1      -7.866  11.088  68.823  1.00  0.00    -0.138 A  
HETATM   11  H   UNL     1      -8.996  13.249  69.627  1.00  0.00     0.000 HD 
HETATM   12  C   UNL     1      -8.835  11.831  68.139  1.00  0.00    -0.169 A  
HETATM   13  F   UNL     1      -6.445   9.209  68.973  1.00  0.00    -0.045 F  
HETATM   14  C   UNL     1      -9.289  11.326  66.922  1.00  0.00    -0.190 A  
HETATM   15  C   UNL     1      -7.356   9.906  68.284  1.00  0.00    -0.079 A  
HETATM   16  C   UNL     1      -7.780   9.440  67.050  1.00  0.00    -0.091 A  
HETATM   17  C   UNL     1     -10.369  11.998  66.195  1.00  0.00    -0.224 C  
HETATM   18  C   UNL     1      -8.751  10.167  66.364  1.00  0.00    -0.140 A  
HETATM   19  N   UNL     1     -10.786  11.591  65.029  1.00  0.00    -0.293 NA 
HETATM   20  O   UNL     1      -8.753   8.741  64.498  1.00  0.00    -0.148 OA 
HETATM   21  H   UNL     1     -10.476  10.265  63.515  1.00  0.00     0.000 HD 
HETATM   22  N   UNL     1     -10.184  10.515  64.460  1.00  0.00    -0.337 N  
HETATM   23  C   UNL     1      -9.218   9.732  65.043  1.00  0.00    -0.249 C  
BRANCH   8  24
HETATM   24  C   UNL     1     -11.540  13.960  69.178  1.00  0.00    -0.359 A  
HETATM   25  C   UNL     1     -12.783  13.065  71.069  1.00  0.00    -0.347 A  
HETATM   26  F   UNL     1     -13.901  14.548  72.522  1.00  0.00    -0.458 F  
HETATM   27  C   UNL     1     -13.175  14.352  71.413  1.00  0.00    -0.348 A  
HETATM   28  C   UNL     1     -12.805  15.443  70.639  1.00  0.00    -0.484 A  
HETATM   29  C   UNL     1     -11.989  15.249  69.524  1.00  0.00    -0.356 A  
HETATM   30  C   UNL     1     -11.978  12.866  69.947  1.00  0.00    -0.377 A  
ENDBRANCH   8  24
ENDBRANCH   6   7
TORSDOF 2
ENDMDL
MODEL       27
REMARK 921   NORMALIZED FREE ENERGY PREDICTED BY IDOCK:   -7.01 KCAL/MOL
REMARK 922        TOTAL FREE ENERGY PREDICTED BY IDOCK:   -8.51 KCAL/MOL
REMARK 923 INTER-LIGAND FREE ENERGY PREDICTED BY IDOCK:   -7.78 KCAL/MOL
REMARK 924 INTRA-LIGAND FREE ENERGY PREDICTED BY IDOCK:   -0.73 KCAL/MOL
REMARK 927      BINDING AFFINITY PREDICTED BY RF-SCORE:    0.00 PKD
ROOT
HETATM    1  C   UNL     1     -12.270  13.518  68.040  1.00  0.00    -0.123 C  
HETATM    2  N   UNL     1     -11.656  14.373  69.024  1.00  0.00    -0.278 NA 
HETATM    3  N   UNL     1     -12.018  14.255  70.316  1.00  0.00    -0.308 NA 
HETATM    4  C   UNL     1     -11.271  15.193  70.895  1.00  0.00    -0.284 A  
HETATM    5  N   UNL     1     -10.507  15.928  70.042  1.00  0.00    -0.307 NA 
HETATM    6  C   UNL     1     -10.739  15.384  68.860  1.00  0.00    -0.244 A  
ENDROOT
BRANCH   6   7
HETATM    7  C   UNL     1     -10.107  15.833  67.565  1.00  0.00    -0.245 C  
HETATM    8  C   UNL     1      -8.876  14.965  67.220  1.00  0.00    -0.201 C  
HETATM    9  N   UNL     1      -7.749  15.681  66.623  1.00  0.00    -0.243 NA 
HETATM   10  C   UNL     1      -6.596  17.639  65.852  1.00  0.00    -0.239 A  
HETATM   11  H   UNL     1      -6.965  15.133  66.269  1.00  0.00     0.000 HD 
HETATM   12  C   UNL     1      -7.683  17.050  66.510  1.00  0.00    -0.292 A  
HETATM   13  F   UNL     1      -5.494  19.550  65.012  1.00  0.00    -0.167 F  
HETATM   14  C   UNL     1      -8.709  17.893  66.934  1.00  0.00    -0.258 A  
HETATM   15  C   UNL     1      -6.536  19.021  65.663  1.00  0.00    -0.269 A  
HETATM   16  C   UNL     1      -7.540  19.853  66.133  1.00  0.00    -0.338 A  
HETATM   17  C   UNL     1      -9.920  17.339  67.545  1.00  0.00    -0.296 C  
HETATM   18  C   UNL     1      -8.630  19.276  66.781  1.00  0.00    -0.326 A  
HETATM   19  N   UNL     1     -10.878  18.093  68.005  1.00  0.00    -0.269 NA 
HETATM   20  O   UNL     1      -9.669  21.332  67.240  1.00  0.00    -0.230 OA 
HETATM   21  H   UNL     1     -11.468  20.009  68.367  1.00  0.00     0.000 HD 
HETATM   22  N   UNL     1     -10.740  19.442  67.931  1.00  0.00    -0.378 N  
HETATM   23  C   UNL     1      -9.709  20.113  67.320  1.00  0.00    -0.437 C  
BRANCH   8  24
HETATM   24  C   UNL     1      -9.323  13.861  66.254  1.00  0.00    -0.180 A  
HETATM   25  C   UNL     1      -9.693  11.489  65.858  1.00  0.00    -0.260 A  
HETATM   26  F   UNL     1     -11.158  10.821  64.135  1.00  0.00    -0.339 F  
HETATM   27  C   UNL     1     -10.526  11.803  64.792  1.00  0.00    -0.293 A  
HETATM   28  C   UNL     1     -10.735  13.121  64.412  1.00  0.00    -0.426 A  
HETATM   29  C   UNL     1     -10.136  14.149  65.141  1.00  0.00    -0.348 A  
HETATM   30  C   UNL     1      -9.082  12.514  66.581  1.00  0.00    -0.203 A  
ENDBRANCH   8  24
ENDBRANCH   6   7
TORSDOF 2
ENDMDL
MODEL       28
REMARK 921   NORMALIZED FREE ENERGY PREDICTED BY IDOCK:   -6.94 KCAL/MOL
REMARK 922        TOTAL FREE ENERGY PREDICTED BY IDOCK:   -8.43 KCAL/MOL
REMARK 923 INTER-LIGAND FREE ENERGY PREDICTED BY IDOCK:   -7.45 KCAL/MOL
REMARK 924 INTRA-LIGAND FREE ENERGY PREDICTED BY IDOCK:   -0.98 KCAL/MOL
REMARK 927      BINDING AFFINITY PREDICTED BY RF-SCORE:    0.00 PKD
ROOT
HETATM    1  C   UNL     1     -11.066   7.131  68.781  1.00  0.00     0.033 C  
HETATM    2  N   UNL     1     -10.203   7.805  69.718  1.00  0.00    -0.206 NA 
HETATM    3  N   UNL     1      -9.438   7.075  70.551  1.00  0.00    -0.166 NA 
HETATM    4  C   UNL     1      -8.817   8.021  71.252  1.00  0.00    -0.139 A  
HETATM    5  N   UNL     1      -9.186   9.297  70.949  1.00  0.00    -0.251 NA 
HETATM    6  C   UNL     1     -10.047   9.149  69.958  1.00  0.00    -0.206 A  
ENDROOT
BRANCH   6   7
HETATM    7  C   UNL     1     -10.742  10.284  69.245  1.00  0.00    -0.265 C  
HETATM    8  C   UNL     1      -9.749  11.076  68.365  1.00  0.00    -0.180 C  
HETATM    9  N   UNL     1      -9.952  12.524  68.333  1.00  0.00    -0.258 NA 
HETATM   10  C   UNL     1     -11.025  14.570  68.980  1.00  0.00    -0.272 A  
HETATM   11  H   UNL     1      -9.399  13.072  67.675  1.00  0.00     0.000 HD 
HETATM   12  C   UNL     1     -10.846  13.191  69.139  1.00  0.00    -0.094 A  
HETATM   13  F   UNL     1     -12.134  16.576  69.545  1.00  0.00    -0.052 F  
HETATM   14  C   UNL     1     -11.671  12.538  70.052  1.00  0.00    -0.297 A  
HETATM   15  C   UNL     1     -11.973  15.261  69.737  1.00  0.00    -0.347 A  
HETATM   16  C   UNL     1     -12.754  14.609  70.677  1.00  0.00    -0.417 A  
HETATM   17  C   UNL     1     -11.605  11.082  70.204  1.00  0.00    -0.334 C  
HETATM   18  C   UNL     1     -12.589  13.234  70.837  1.00  0.00    -0.386 A  
HETATM   19  N   UNL     1     -12.318  10.438  71.085  1.00  0.00    -0.364 NA 
HETATM   20  O   UNL     1     -14.166  13.069  72.570  1.00  0.00    -0.597 OA 
HETATM   21  H   UNL     1     -13.627  10.627  72.635  1.00  0.00     0.000 HD 
HETATM   22  N   UNL     1     -13.139  11.146  71.904  1.00  0.00    -0.478 N  
HETATM   23  C   UNL     1     -13.372  12.498  71.836  1.00  0.00    -0.368 C  
BRANCH   8  24
HETATM   24  C   UNL     1      -9.841  10.536  66.932  1.00  0.00    -0.235 A  
HETATM   25  C   UNL     1     -10.474  10.925  64.616  1.00  0.00    -0.384 A  
HETATM   26  F   UNL     1      -9.510   9.603  62.917  1.00  0.00    -0.296 F  
HETATM   27  C   UNL     1      -9.654   9.876  64.221  1.00  0.00    -0.151 A  
HETATM   28  C   UNL     1      -8.960   9.120  65.156  1.00  0.00    -0.238 A  
HETATM   29  C   UNL     1      -9.052   9.449  66.509  1.00  0.00    -0.188 A  
HETATM   30  C   UNL     1     -10.578  11.248  65.969  1.00  0.00    -0.314 A  
ENDBRANCH   8  24
ENDBRANCH   6   7
TORSDOF 2
ENDMDL
MODEL       29
REMARK 921   NORMALIZED FREE ENERGY PREDICTED BY IDOCK:   -6.93 KCAL/MOL
REMARK 922        TOTAL FREE ENERGY PREDICTED BY IDOCK:   -8.42 KCAL/MOL
REMARK 923 INTER-LIGAND FREE ENERGY PREDICTED BY IDOCK:   -7.69 KCAL/MOL
REMARK 924 INTRA-LIGAND FREE ENERGY PREDICTED BY IDOCK:   -0.73 KCAL/MOL
REMARK 927      BINDING AFFINITY PREDICTED BY RF-SCORE:    0.00 PKD
ROOT
HETATM    1  C   UNL     1     -12.644   6.892  71.818  1.00  0.00    -0.344 C  
HETATM    2  N   UNL     1     -11.389   7.496  72.185  1.00  0.00    -0.269 NA 
HETATM    3  N   UNL     1     -10.737   7.050  73.276  1.00  0.00    -0.325 NA 
HETATM    4  C   UNL     1      -9.666   7.841  73.297  1.00  0.00    -0.294 A  
HETATM    5  N   UNL     1      -9.633   8.790  72.321  1.00  0.00    -0.295 NA 
HETATM    6  C   UNL     1     -10.718   8.547  71.607  1.00  0.00    -0.281 A  
ENDROOT
BRANCH   6   7
HETATM    7  C   UNL     1     -11.134   9.325  70.381  1.00  0.00    -0.300 C  
HETATM    8  C   UNL     1      -9.992   9.369  69.340  1.00  0.00    -0.183 C  
HETATM    9  N   UNL     1      -9.849  10.633  68.618  1.00  0.00    -0.172 NA 
HETATM   10  C   UNL     1     -10.400  12.915  68.125  1.00  0.00    -0.243 A  
HETATM   11  H   UNL     1      -9.190  10.669  67.840  1.00  0.00     0.000 HD 
HETATM   12  C   UNL     1     -10.549  11.776  68.925  1.00  0.00    -0.180 A  
HETATM   13  F   UNL     1     -10.997  15.132  67.577  1.00  0.00    -0.277 F  
HETATM   14  C   UNL     1     -11.493  11.830  69.948  1.00  0.00    -0.285 A  
HETATM   15  C   UNL     1     -11.148  14.067  68.373  1.00  0.00    -0.253 A  
HETATM   16  C   UNL     1     -12.049  14.125  69.424  1.00  0.00    -0.372 A  
HETATM   17  C   UNL     1     -11.772  10.646  70.766  1.00  0.00    -0.335 C  
HETATM   18  C   UNL     1     -12.212  12.993  70.221  1.00  0.00    -0.368 A  
HETATM   19  N   UNL     1     -12.606  10.668  71.767  1.00  0.00    -0.364 NA 
HETATM   20  O   UNL     1     -13.761  14.014  71.661  1.00  0.00    -0.357 OA 
HETATM   21  H   UNL     1     -13.813  11.847  72.909  1.00  0.00     0.000 HD 
HETATM   22  N   UNL     1     -13.226  11.837  72.074  1.00  0.00    -0.464 N  
HETATM   23  C   UNL     1     -13.134  13.008  71.362  1.00  0.00    -0.248 C  
BRANCH   8  24
HETATM   24  C   UNL     1     -10.227   8.246  68.323  1.00  0.00    -0.246 A  
HETATM   25  C   UNL     1      -9.595   7.201  66.218  1.00  0.00    -0.098 A  
HETATM   26  F   UNL     1     -10.157   4.943  65.835  1.00  0.00    -0.178 F  
HETATM   27  C   UNL     1     -10.220   6.027  66.620  1.00  0.00    -0.189 A  
HETATM   28  C   UNL     1     -10.886   5.952  67.834  1.00  0.00    -0.323 A  
HETATM   29  C   UNL     1     -10.890   7.058  68.685  1.00  0.00    -0.191 A  
HETATM   30  C   UNL     1      -9.608   8.313  67.061  1.00  0.00    -0.249 A  
ENDBRANCH   8  24
ENDBRANCH   6   7
TORSDOF 2
ENDMDL
MODEL       30
REMARK 921   NORMALIZED FREE ENERGY PREDICTED BY IDOCK:   -6.92 KCAL/MOL
REMARK 922        TOTAL FREE ENERGY PREDICTED BY IDOCK:   -8.41 KCAL/MOL
REMARK 923 INTER-LIGAND FREE ENERGY PREDICTED BY IDOCK:   -7.57 KCAL/MOL
REMARK 924 INTRA-LIGAND FREE ENERGY PREDICTED BY IDOCK:   -0.83 KCAL/MOL
REMARK 927      BINDING AFFINITY PREDICTED BY RF-SCORE:    0.00 PKD
ROOT
HETATM    1  C   UNL     1      -8.142   9.607  65.092  1.00  0.00    -0.124 C  
HETATM    2  N   UNL     1      -9.219  10.469  64.674  1.00  0.00    -0.217 NA 
HETATM    3  N   UNL     1      -9.450  10.643  63.359  1.00  0.00    -0.288 NA 
HETATM    4  C   UNL     1     -10.475  11.492  63.373  1.00  0.00    -0.406 A  
HETATM    5  N   UNL     1     -10.865  11.904  64.610  1.00  0.00    -0.298 NA 
HETATM    6  C   UNL     1     -10.078  11.230  65.430  1.00  0.00    -0.264 A  
ENDROOT
BRANCH   6   7
HETATM    7  C   UNL     1     -10.124  11.320  66.937  1.00  0.00    -0.246 C  
HETATM    8  C   UNL     1     -11.279  10.467  67.507  1.00  0.00    -0.224 C  
HETATM    9  N   UNL     1     -11.983  11.046  68.651  1.00  0.00    -0.672 NA 
HETATM   10  C   UNL     1     -12.439  12.761  70.265  1.00  0.00    -0.176 A  
HETATM   11  H   UNL     1     -12.670  10.468  69.134  1.00  0.00     0.000 HD 
HETATM   12  C   UNL     1     -11.773  12.323  69.114  1.00  0.00    -0.323 A  
HETATM   13  F   UNL     1     -12.833  14.407  71.910  1.00  0.00    -0.360 F  
HETATM   14  C   UNL     1     -10.838  13.188  68.548  1.00  0.00    -0.285 A  
HETATM   15  C   UNL     1     -12.195  14.028  70.797  1.00  0.00    -0.367 A  
HETATM   16  C   UNL     1     -11.299  14.897  70.195  1.00  0.00    -0.299 A  
HETATM   17  C   UNL     1     -10.034  12.763  67.398  1.00  0.00    -0.212 C  
HETATM   18  C   UNL     1     -10.623  14.468  69.054  1.00  0.00    -0.250 A  
HETATM   19  N   UNL     1      -9.190  13.557  66.804  1.00  0.00    -0.251 NA 
HETATM   20  O   UNL     1      -9.485  16.500  68.751  1.00  0.00    -0.229 OA 
HETATM   21  H   UNL     1      -8.454  15.455  66.725  1.00  0.00     0.000 HD 
HETATM   22  N   UNL     1      -9.064  14.832  67.256  1.00  0.00    -0.195 N  
HETATM   23  C   UNL     1      -9.682  15.358  68.364  1.00  0.00    -0.211 C  
BRANCH   8  24
HETATM   24  C   UNL     1     -10.710   9.103  67.919  1.00  0.00    -0.224 A  
HETATM   25  C   UNL     1     -10.168   7.548  69.710  1.00  0.00    -0.211 A  
HETATM   26  F   UNL     1      -9.932   5.255  69.215  1.00  0.00    -0.198 F  
HETATM   27  C   UNL     1     -10.138   6.508  68.789  1.00  0.00    -0.161 A  
HETATM   28  C   UNL     1     -10.343   6.744  67.437  1.00  0.00    -0.286 A  
HETATM   29  C   UNL     1     -10.630   8.038  67.002  1.00  0.00    -0.364 A  
HETATM   30  C   UNL     1     -10.441   8.846  69.275  1.00  0.00    -0.234 A  
ENDBRANCH   8  24
ENDBRANCH   6   7
TORSDOF 2
ENDMDL
MODEL       31
REMARK 921   NORMALIZED FREE ENERGY PREDICTED BY IDOCK:   -6.91 KCAL/MOL
REMARK 922        TOTAL FREE ENERGY PREDICTED BY IDOCK:   -8.39 KCAL/MOL
REMARK 923 INTER-LIGAND FREE ENERGY PREDICTED BY IDOCK:   -7.53 KCAL/MOL
REMARK 924 INTRA-LIGAND FREE ENERGY PREDICTED BY IDOCK:   -0.86 KCAL/MOL
REMARK 927      BINDING AFFINITY PREDICTED BY RF-SCORE:    0.00 PKD
ROOT
HETATM    1  C   UNL     1      -8.983   7.948  73.324  1.00  0.00    -0.264 C  
HETATM    2  N   UNL     1      -9.925   6.860  73.250  1.00  0.00    -0.193 NA 
HETATM    3  N   UNL     1      -9.927   5.925  74.219  1.00  0.00    -0.227 NA 
HETATM    4  C   UNL     1     -10.890   5.104  73.804  1.00  0.00    -0.287 A  
HETATM    5  N   UNL     1     -11.453   5.435  72.609  1.00  0.00    -0.273 NA 
HETATM    6  C   UNL     1     -10.850   6.564  72.278  1.00  0.00    -0.232 A  
ENDROOT
BRANCH   6   7
HETATM    7  C   UNL     1     -11.137   7.359  71.027  1.00  0.00    -0.277 C  
HETATM    8  C   UNL     1      -9.906   7.385  70.093  1.00  0.00    -0.180 C  
HETATM    9  N   UNL     1      -9.670   8.649  69.398  1.00  0.00    -0.174 NA 
HETATM   10  C   UNL     1     -10.124  10.947  68.877  1.00  0.00    -0.211 A  
HETATM   11  H   UNL     1      -8.943   8.676  68.683  1.00  0.00     0.000 HD 
HETATM   12  C   UNL     1     -10.370   9.806  69.650  1.00  0.00    -0.238 A  
HETATM   13  F   UNL     1     -10.620  13.180  68.296  1.00  0.00    -0.219 F  
HETATM   14  C   UNL     1     -11.401   9.875  70.585  1.00  0.00    -0.413 A  
HETATM   15  C   UNL     1     -10.866  12.114  69.066  1.00  0.00    -0.162 A  
HETATM   16  C   UNL     1     -11.856  12.185  70.033  1.00  0.00    -0.383 A  
HETATM   17  C   UNL     1     -11.778   8.692  71.364  1.00  0.00    -0.297 C  
HETATM   18  C   UNL     1     -12.115  11.052  70.802  1.00  0.00    -0.467 A  
HETATM   19  N   UNL     1     -12.698   8.727  72.287  1.00  0.00    -0.394 NA 
HETATM   20  O   UNL     1     -13.765  12.099  72.106  1.00  0.00    -0.345 OA 
HETATM   21  H   UNL     1     -13.977   9.925  73.325  1.00  0.00     0.000 HD 
HETATM   22  N   UNL     1     -13.317   9.908  72.547  1.00  0.00    -0.217 N  
HETATM   23  C   UNL     1     -13.135  11.081  71.856  1.00  0.00    -0.419 C  
BRANCH   8  24
HETATM   24  C   UNL     1     -10.073   6.274  69.049  1.00  0.00    -0.206 A  
HETATM   25  C   UNL     1     -10.708   5.646  66.786  1.00  0.00    -0.358 A  
HETATM   26  F   UNL     1      -9.901   3.625  65.878  1.00  0.00    -0.179 F  
HETATM   27  C   UNL     1      -9.996   4.461  66.920  1.00  0.00    -0.177 A  
HETATM   28  C   UNL     1      -9.358   4.142  68.111  1.00  0.00    -0.212 A  
HETATM   29  C   UNL     1      -9.395   5.046  69.173  1.00  0.00    -0.174 A  
HETATM   30  C   UNL     1     -10.758   6.546  67.851  1.00  0.00    -0.357 A  
ENDBRANCH   8  24
ENDBRANCH   6   7
TORSDOF 2
ENDMDL
MODEL       32
REMARK 921   NORMALIZED FREE ENERGY PREDICTED BY IDOCK:   -6.90 KCAL/MOL
REMARK 922        TOTAL FREE ENERGY PREDICTED BY IDOCK:   -8.39 KCAL/MOL
REMARK 923 INTER-LIGAND FREE ENERGY PREDICTED BY IDOCK:   -7.54 KCAL/MOL
REMARK 924 INTRA-LIGAND FREE ENERGY PREDICTED BY IDOCK:   -0.85 KCAL/MOL
REMARK 927      BINDING AFFINITY PREDICTED BY RF-SCORE:    0.00 PKD
ROOT
HETATM    1  C   UNL     1      -9.720  11.213  64.096  1.00  0.00    -0.276 C  
HETATM    2  N   UNL     1     -11.008  11.817  64.322  1.00  0.00    -0.336 NA 
HETATM    3  N   UNL     1     -11.946  11.748  63.358  1.00  0.00    -0.431 NA 
HETATM    4  C   UNL     1     -12.957  12.413  63.913  1.00  0.00    -0.158 A  
HETATM    5  N   UNL     1     -12.694  12.942  65.139  1.00  0.00    -0.722 NA 
HETATM    6  C   UNL     1     -11.463  12.538  65.401  1.00  0.00    -0.344 A  
ENDROOT
BRANCH   6   7
HETATM    7  C   UNL     1     -10.705  12.849  66.669  1.00  0.00    -0.280 C  
HETATM    8  C   UNL     1      -9.557  13.848  66.396  1.00  0.00    -0.277 C  
HETATM    9  N   UNL     1      -8.323  13.606  67.143  1.00  0.00    -0.318 NA 
HETATM   10  C   UNL     1      -6.917  12.389  68.658  1.00  0.00    -0.091 A  
HETATM   11  H   UNL     1      -7.584  14.306  67.087  1.00  0.00     0.000 HD 
HETATM   12  C   UNL     1      -8.101  12.492  67.918  1.00  0.00    -0.163 A  
HETATM   13  F   UNL     1      -5.561  11.243  70.214  1.00  0.00    -0.070 F  
HETATM   14  C   UNL     1      -9.053  11.489  68.088  1.00  0.00    -0.181 A  
HETATM   15  C   UNL     1      -6.695  11.301  69.505  1.00  0.00    -0.128 A  
HETATM   16  C   UNL     1      -7.628  10.285  69.627  1.00  0.00    -0.167 A  
HETATM   17  C   UNL     1     -10.354  11.578  67.419  1.00  0.00    -0.207 C  
HETATM   18  C   UNL     1      -8.814  10.383  68.902  1.00  0.00    -0.161 A  
HETATM   19  N   UNL     1     -11.251  10.636  67.506  1.00  0.00    -0.382 NA 
HETATM   20  O   UNL     1      -9.648   8.319  69.650  1.00  0.00    -0.166 OA 
HETATM   21  H   UNL     1     -11.648   8.770  68.217  1.00  0.00     0.000 HD 
HETATM   22  N   UNL     1     -10.961   9.524  68.229  1.00  0.00    -0.139 N  
HETATM   23  C   UNL     1      -9.826   9.323  68.976  1.00  0.00    -0.166 C  
BRANCH   8  24
HETATM   24  C   UNL     1     -10.062  15.259  66.722  1.00  0.00    -0.262 A  
HETATM   25  C   UNL     1     -10.527  16.945  68.414  1.00  0.00    -0.355 A  
HETATM   26  F   UNL     1     -10.659  19.212  67.778  1.00  0.00    -0.422 F  
HETATM   27  C   UNL     1     -10.512  17.926  67.431  1.00  0.00    -0.383 A  
HETATM   28  C   UNL     1     -10.321  17.599  66.096  1.00  0.00    -0.334 A  
HETATM   29  C   UNL     1     -10.096  16.268  65.741  1.00  0.00    -0.373 A  
HETATM   30  C   UNL     1     -10.315  15.612  68.060  1.00  0.00    -0.246 A  
ENDBRANCH   8  24
ENDBRANCH   6   7
TORSDOF 2
ENDMDL
MODEL       33
REMARK 921   NORMALIZED FREE ENERGY PREDICTED BY IDOCK:   -6.76 KCAL/MOL
REMARK 922        TOTAL FREE ENERGY PREDICTED BY IDOCK:   -8.23 KCAL/MOL
REMARK 923 INTER-LIGAND FREE ENERGY PREDICTED BY IDOCK:   -7.21 KCAL/MOL
REMARK 924 INTRA-LIGAND FREE ENERGY PREDICTED BY IDOCK:   -1.02 KCAL/MOL
REMARK 927      BINDING AFFINITY PREDICTED BY RF-SCORE:    0.00 PKD
ROOT
HETATM    1  C   UNL     1      -9.332  14.157  67.127  1.00  0.00    -0.237 C  
HETATM    2  N   UNL     1     -10.541  13.618  66.558  1.00  0.00    -0.280 NA 
HETATM    3  N   UNL     1     -11.481  14.461  66.091  1.00  0.00    -0.351 NA 
HETATM    4  C   UNL     1     -12.423  13.616  65.677  1.00  0.00    -0.496 A  
HETATM    5  N   UNL     1     -12.158  12.300  65.906  1.00  0.00    -0.620 NA 
HETATM    6  C   UNL     1     -10.950  12.311  66.443  1.00  0.00    -0.287 A  
ENDROOT
BRANCH   6   7
HETATM    7  C   UNL     1     -10.185  11.080  66.867  1.00  0.00    -0.263 C  
HETATM    8  C   UNL     1     -10.119  10.047  65.720  1.00  0.00    -0.250 C  
HETATM    9  N   UNL     1     -10.235   8.647  66.127  1.00  0.00    -0.395 NA 
HETATM   10  C   UNL     1     -10.555   6.877  67.716  1.00  0.00    -0.305 A  
HETATM   11  H   UNL     1     -10.076   7.927  65.422  1.00  0.00     0.000 HD 
HETATM   12  C   UNL     1     -10.544   8.242  67.405  1.00  0.00    -0.253 A  
HETATM   13  F   UNL     1     -10.782   5.130  69.286  1.00  0.00    -0.298 F  
HETATM   14  C   UNL     1     -10.752   9.139  68.451  1.00  0.00    -0.163 A  
HETATM   15  C   UNL     1     -10.799   6.441  69.019  1.00  0.00    -0.327 A  
HETATM   16  C   UNL     1     -11.054   7.342  70.041  1.00  0.00    -0.262 A  
HETATM   17  C   UNL     1     -10.662  10.584  68.220  1.00  0.00    -0.229 C  
HETATM   18  C   UNL     1     -11.036   8.703  69.744  1.00  0.00    -0.132 A  
HETATM   19  N   UNL     1     -10.903  11.458  69.156  1.00  0.00    -0.223 NA 
HETATM   20  O   UNL     1     -11.609   9.364  71.923  1.00  0.00    -0.378 OA 
HETATM   21  H   UNL     1     -11.528  11.717  71.077  1.00  0.00     0.000 HD 
HETATM   22  N   UNL     1     -11.270  11.012  70.386  1.00  0.00    -0.149 N  
HETATM   23  C   UNL     1     -11.323   9.699  70.783  1.00  0.00    -0.340 C  
BRANCH   8  24
HETATM   24  C   UNL     1      -8.788  10.235  64.982  1.00  0.00    -0.209 A  
HETATM   25  C   UNL     1      -6.381   9.884  64.942  1.00  0.00    -0.110 A  
HETATM   26  F   UNL     1      -5.237   9.956  62.881  1.00  0.00    -0.080 F  
HETATM   27  C   UNL     1      -6.379  10.092  63.569  1.00  0.00    -0.138 A  
HETATM   28  C   UNL     1      -7.547  10.415  62.893  1.00  0.00    -0.120 A  
HETATM   29  C   UNL     1      -8.750  10.486  63.597  1.00  0.00    -0.184 A  
HETATM   30  C   UNL     1      -7.580   9.967  65.651  1.00  0.00    -0.137 A  
ENDBRANCH   8  24
ENDBRANCH   6   7
TORSDOF 2
ENDMDL
MODEL       34
REMARK 921   NORMALIZED FREE ENERGY PREDICTED BY IDOCK:   -6.75 KCAL/MOL
REMARK 922        TOTAL FREE ENERGY PREDICTED BY IDOCK:   -8.22 KCAL/MOL
REMARK 923 INTER-LIGAND FREE ENERGY PREDICTED BY IDOCK:   -7.18 KCAL/MOL
REMARK 924 INTRA-LIGAND FREE ENERGY PREDICTED BY IDOCK:   -1.04 KCAL/MOL
REMARK 927      BINDING AFFINITY PREDICTED BY RF-SCORE:    0.00 PKD
ROOT
HETATM    1  C   UNL     1     -11.060  15.392  72.549  1.00  0.00     0.217 C  
HETATM    2  N   UNL     1     -12.317  15.421  71.845  1.00  0.00    -0.337 NA 
HETATM    3  N   UNL     1     -13.455  15.613  72.539  1.00  0.00    -0.505 NA 
HETATM    4  C   UNL     1     -14.373  15.559  71.576  1.00  0.00    -0.336 A  
HETATM    5  N   UNL     1     -13.889  15.290  70.332  1.00  0.00     0.098 NA 
HETATM    6  C   UNL     1     -12.580  15.229  70.510  1.00  0.00    -0.399 A  
ENDROOT
BRANCH   6   7
HETATM    7  C   UNL     1     -11.574  14.968  69.415  1.00  0.00    -0.337 C  
HETATM    8  C   UNL     1     -11.672  16.040  68.306  1.00  0.00    -0.135 C  
HETATM    9  N   UNL     1     -11.489  15.550  66.940  1.00  0.00    -0.096 NA 
HETATM   10  C   UNL     1     -11.143  13.852  65.281  1.00  0.00    -0.318 A  
HETATM   11  H   UNL     1     -11.425  16.237  66.189  1.00  0.00     0.000 HD 
HETATM   12  C   UNL     1     -11.396  14.219  66.608  1.00  0.00    -0.349 A  
HETATM   13  F   UNL     1     -10.715  12.197  63.654  1.00  0.00    -0.343 F  
HETATM   14  C   UNL     1     -11.442  13.200  67.558  1.00  0.00    -0.371 A  
HETATM   15  C   UNL     1     -10.977  12.512  64.928  1.00  0.00    -0.300 A  
HETATM   16  C   UNL     1     -11.073  11.504  65.873  1.00  0.00    -0.274 A  
HETATM   17  C   UNL     1     -11.609  13.515  68.979  1.00  0.00    -0.311 C  
HETATM   18  C   UNL     1     -11.316  11.859  67.199  1.00  0.00    -0.393 A  
HETATM   19  N   UNL     1     -11.712  12.592  69.893  1.00  0.00    -0.289 NA 
HETATM   20  O   UNL     1     -11.382   9.640  67.965  1.00  0.00    -0.048 OA 
HETATM   21  H   UNL     1     -11.840  10.588  70.234  1.00  0.00     0.000 HD 
HETATM   22  N   UNL     1     -11.680  11.288  69.510  1.00  0.00    -0.313 N  
HETATM   23  C   UNL     1     -11.452  10.830  68.236  1.00  0.00    -0.280 C  
BRANCH   8  24
HETATM   24  C   UNL     1     -10.619  17.119  68.587  1.00  0.00    -0.352 A  
HETATM   25  C   UNL     1      -8.270  17.686  68.869  1.00  0.00    -0.151 A  
HETATM   26  F   UNL     1      -7.579  19.923  68.580  1.00  0.00    -0.347 F  
HETATM   27  C   UNL     1      -8.569  19.021  68.629  1.00  0.00    -0.354 A  
HETATM   28  C   UNL     1      -9.877  19.432  68.413  1.00  0.00    -0.513 A  
HETATM   29  C   UNL     1     -10.900  18.484  68.391  1.00  0.00     0.188 A  
HETATM   30  C   UNL     1      -9.293  16.737  68.861  1.00  0.00    -0.233 A  
ENDBRANCH   8  24
ENDBRANCH   6   7
TORSDOF 2
ENDMDL
MODEL       35
REMARK 921   NORMALIZED FREE ENERGY PREDICTED BY IDOCK:   -6.66 KCAL/MOL
REMARK 922        TOTAL FREE ENERGY PREDICTED BY IDOCK:   -8.12 KCAL/MOL
REMARK 923 INTER-LIGAND FREE ENERGY PREDICTED BY IDOCK:   -7.18 KCAL/MOL
REMARK 924 INTRA-LIGAND FREE ENERGY PREDICTED BY IDOCK:   -0.94 KCAL/MOL
REMARK 927      BINDING AFFINITY PREDICTED BY RF-SCORE:    0.00 PKD
ROOT
HETATM    1  C   UNL     1      -7.669   9.622  67.164  1.00  0.00    -0.091 C  
HETATM    2  N   UNL     1      -8.883  10.083  66.539  1.00  0.00    -0.138 NA 
HETATM    3  N   UNL     1      -8.993  10.030  65.198  1.00  0.00    -0.177 NA 
HETATM    4  C   UNL     1     -10.206  10.544  65.004  1.00  0.00    -0.295 A  
HETATM    5  N   UNL     1     -10.839  10.967  66.132  1.00  0.00    -0.197 NA 
HETATM    6  C   UNL     1     -10.001  10.648  67.103  1.00  0.00    -0.195 A  
ENDROOT
BRANCH   6   7
HETATM    7  C   UNL     1     -10.250  10.896  68.572  1.00  0.00    -0.197 C  
HETATM    8  C   UNL     1     -11.143   9.788  69.176  1.00  0.00    -0.123 C  
HETATM    9  N   UNL     1     -12.121  10.239  70.165  1.00  0.00    -0.428 NA 
HETATM   10  C   UNL     1     -13.274  11.892  71.466  1.00  0.00    -0.283 A  
HETATM   11  H   UNL     1     -12.647   9.531  70.677  1.00  0.00     0.000 HD 
HETATM   12  C   UNL     1     -12.374  11.561  70.446  1.00  0.00    -0.305 A  
HETATM   13  F   UNL     1     -14.351  13.505  72.813  1.00  0.00    -0.519 F  
HETATM   14  C   UNL     1     -11.694  12.608  69.828  1.00  0.00    -0.354 A  
HETATM   15  C   UNL     1     -13.499  13.224  71.819  1.00  0.00    -0.354 A  
HETATM   16  C   UNL     1     -12.853  14.259  71.162  1.00  0.00    -0.429 A  
HETATM   17  C   UNL     1     -10.668  12.333  68.817  1.00  0.00    -0.214 C  
HETATM   18  C   UNL     1     -11.948  13.940  70.152  1.00  0.00    -0.402 A  
HETATM   19  N   UNL     1     -10.048  13.283  68.175  1.00  0.00    -0.235 NA 
HETATM   20  O   UNL     1     -11.469  16.180  69.633  1.00  0.00    -0.327 OA 
HETATM   21  H   UNL     1      -9.933  15.293  67.868  1.00  0.00     0.000 HD 
HETATM   22  N   UNL     1     -10.378  14.574  68.439  1.00  0.00    -0.235 N  
HETATM   23  C   UNL     1     -11.255  14.998  69.407  1.00  0.00    -0.284 C  
BRANCH   8  24
HETATM   24  C   UNL     1     -10.232   8.741  69.828  1.00  0.00    -0.205 A  
HETATM   25  C   UNL     1      -9.048   7.984  71.815  1.00  0.00    -0.207 A  
HETATM   26  F   UNL     1      -8.428   5.716  71.995  1.00  0.00    -0.121 F  
HETATM   27  C   UNL     1      -8.971   6.707  71.274  1.00  0.00    -0.144 A  
HETATM   28  C   UNL     1      -9.469   6.434  70.008  1.00  0.00    -0.165 A  
HETATM   29  C   UNL     1     -10.100   7.448  69.286  1.00  0.00    -0.186 A  
HETATM   30  C   UNL     1      -9.666   9.003  71.089  1.00  0.00    -0.369 A  
ENDBRANCH   8  24
ENDBRANCH   6   7
TORSDOF 2
ENDMDL
MODEL       36
REMARK 921   NORMALIZED FREE ENERGY PREDICTED BY IDOCK:   -6.65 KCAL/MOL
REMARK 922        TOTAL FREE ENERGY PREDICTED BY IDOCK:   -8.10 KCAL/MOL
REMARK 923 INTER-LIGAND FREE ENERGY PREDICTED BY IDOCK:   -7.63 KCAL/MOL
REMARK 924 INTRA-LIGAND FREE ENERGY PREDICTED BY IDOCK:   -0.47 KCAL/MOL
REMARK 927      BINDING AFFINITY PREDICTED BY RF-SCORE:    0.00 PKD
ROOT
HETATM    1  C   UNL     1     -10.810  13.429  64.586  1.00  0.00    -0.392 C  
HETATM    2  N   UNL     1      -9.951  12.529  65.314  1.00  0.00    -0.246 NA 
HETATM    3  N   UNL     1      -9.539  11.391  64.725  1.00  0.00    -0.232 NA 
HETATM    4  C   UNL     1      -8.805  10.836  65.686  1.00  0.00    -0.190 A  
HETATM    5  N   UNL     1      -8.776  11.526  66.859  1.00  0.00    -0.174 NA 
HETATM    6  C   UNL     1      -9.486  12.611  66.605  1.00  0.00    -0.244 A  
ENDROOT
BRANCH   6   7
HETATM    7  C   UNL     1      -9.744  13.724  67.593  1.00  0.00    -0.227 C  
HETATM    8  C   UNL     1     -11.239  14.115  67.608  1.00  0.00    -0.297 C  
HETATM    9  N   UNL     1     -11.513  15.544  67.758  1.00  0.00    -0.292 NA 
HETATM   10  C   UNL     1     -10.897  17.854  67.958  1.00  0.00    -0.206 A  
HETATM   11  H   UNL     1     -12.481  15.835  67.894  1.00  0.00     0.000 HD 
HETATM   12  C   UNL     1     -10.544  16.519  67.727  1.00  0.00    -0.332 A  
HETATM   13  F   UNL     1     -10.293  20.118  68.243  1.00  0.00    -0.526 F  
HETATM   14  C   UNL     1      -9.189  16.231  67.575  1.00  0.00    -0.206 A  
HETATM   15  C   UNL     1      -9.925  18.855  67.999  1.00  0.00    -0.358 A  
HETATM   16  C   UNL     1      -8.585  18.562  67.798  1.00  0.00    -0.286 A  
HETATM   17  C   UNL     1      -8.736  14.845  67.425  1.00  0.00    -0.194 C  
HETATM   18  C   UNL     1      -8.222  17.235  67.576  1.00  0.00    -0.204 A  
HETATM   19  N   UNL     1      -7.486  14.536  67.225  1.00  0.00    -0.163 NA 
HETATM   20  O   UNL     1      -5.943  17.722  67.291  1.00  0.00    -0.131 OA 
HETATM   21  H   UNL     1      -5.615  15.273  66.902  1.00  0.00     0.000 HD 
HETATM   22  N   UNL     1      -6.572  15.537  67.136  1.00  0.00    -0.046 N  
HETATM   23  C   UNL     1      -6.821  16.873  67.333  1.00  0.00    -0.153 C  
BRANCH   8  24
HETATM   24  C   UNL     1     -11.920  13.361  68.757  1.00  0.00    -0.359 A  
HETATM   25  C   UNL     1     -12.399  11.231  69.832  1.00  0.00    -0.301 A  
HETATM   26  F   UNL     1     -13.014  11.199  72.108  1.00  0.00    -0.553 F  
HETATM   27  C   UNL     1     -12.705  11.901  71.009  1.00  0.00    -0.258 A  
HETATM   28  C   UNL     1     -12.672  13.286  71.073  1.00  0.00    -0.374 A  
HETATM   29  C   UNL     1     -12.279  14.016  69.950  1.00  0.00    -0.399 A  
HETATM   30  C   UNL     1     -12.019  11.959  68.703  1.00  0.00    -0.291 A  
ENDBRANCH   8  24
ENDBRANCH   6   7
TORSDOF 2
ENDMDL
MODEL       37
REMARK 921   NORMALIZED FREE ENERGY PREDICTED BY IDOCK:   -6.59 KCAL/MOL
REMARK 922        TOTAL FREE ENERGY PREDICTED BY IDOCK:   -8.04 KCAL/MOL
REMARK 923 INTER-LIGAND FREE ENERGY PREDICTED BY IDOCK:   -7.18 KCAL/MOL
REMARK 924 INTRA-LIGAND FREE ENERGY PREDICTED BY IDOCK:   -0.85 KCAL/MOL
REMARK 927      BINDING AFFINITY PREDICTED BY RF-SCORE:    0.00 PKD
ROOT
HETATM    1  C   UNL     1      -8.258  11.001  66.992  1.00  0.00    -0.138 C  
HETATM    2  N   UNL     1      -9.581  11.320  66.520  1.00  0.00    -0.187 NA 
HETATM    3  N   UNL     1      -9.722  12.079  65.417  1.00  0.00    -0.220 NA 
HETATM    4  C   UNL     1     -11.046  12.168  65.314  1.00  0.00    -0.321 A  
HETATM    5  N   UNL     1     -11.743  11.561  66.313  1.00  0.00    -0.325 NA 
HETATM    6  C   UNL     1     -10.805  11.005  67.060  1.00  0.00    -0.279 A  
ENDROOT
BRANCH   6   7
HETATM    7  C   UNL     1     -11.065  10.188  68.303  1.00  0.00    -0.285 C  
HETATM    8  C   UNL     1     -10.539  10.913  69.562  1.00  0.00    -0.175 C  
HETATM    9  N   UNL     1      -9.933  10.050  70.577  1.00  0.00    -0.374 NA 
HETATM   10  C   UNL     1      -9.171   7.952  71.454  1.00  0.00    -0.165 A  
HETATM   11  H   UNL     1      -9.683  10.467  71.473  1.00  0.00     0.000 HD 
HETATM   12  C   UNL     1      -9.682   8.711  70.395  1.00  0.00    -0.176 A  
HETATM   13  F   UNL     1      -8.499   5.877  72.358  1.00  0.00    -0.116 F  
HETATM   14  C   UNL     1     -10.011   8.034  69.222  1.00  0.00    -0.191 A  
HETATM   15  C   UNL     1      -8.970   6.577  71.319  1.00  0.00    -0.141 A  
HETATM   16  C   UNL     1      -9.254   5.924  70.130  1.00  0.00    -0.169 A  
HETATM   17  C   UNL     1     -10.638   8.746  68.104  1.00  0.00    -0.147 C  
HETATM   18  C   UNL     1      -9.772   6.669  69.072  1.00  0.00    -0.142 A  
HETATM   19  N   UNL     1     -10.910   8.164  66.970  1.00  0.00    -0.170 NA 
HETATM   20  O   UNL     1      -9.845   4.845  67.594  1.00  0.00    -0.158 OA 
HETATM   21  H   UNL     1     -10.737   6.446  65.891  1.00  0.00     0.000 HD 
HETATM   22  N   UNL     1     -10.584   6.855  66.813  1.00  0.00    -0.266 N  
HETATM   23  C   UNL     1     -10.068   6.032  67.784  1.00  0.00    -0.156 C  
BRANCH   8  24
HETATM   24  C   UNL     1     -11.707  11.676  70.200  1.00  0.00    -0.381 A  
HETATM   25  C   UNL     1     -13.376  11.796  71.966  1.00  0.00    -0.417 A  
HETATM   26  F   UNL     1     -14.339  13.880  72.505  1.00  0.00    -0.567 F  
HETATM   27  C   UNL     1     -13.521  13.157  71.728  1.00  0.00    -0.335 A  
HETATM   28  C   UNL     1     -12.813  13.784  70.713  1.00  0.00    -0.302 A  
HETATM   29  C   UNL     1     -11.907  13.047  69.950  1.00  0.00    -0.377 A  
HETATM   30  C   UNL     1     -12.480  11.053  71.196  1.00  0.00    -0.502 A  
ENDBRANCH   8  24
ENDBRANCH   6   7
TORSDOF 2
ENDMDL
MODEL       38
REMARK 921   NORMALIZED FREE ENERGY PREDICTED BY IDOCK:   -6.56 KCAL/MOL
REMARK 922        TOTAL FREE ENERGY PREDICTED BY IDOCK:   -8.00 KCAL/MOL
REMARK 923 INTER-LIGAND FREE ENERGY PREDICTED BY IDOCK:   -7.10 KCAL/MOL
REMARK 924 INTRA-LIGAND FREE ENERGY PREDICTED BY IDOCK:   -0.91 KCAL/MOL
REMARK 927      BINDING AFFINITY PREDICTED BY RF-SCORE:    0.00 PKD
ROOT
HETATM    1  C   UNL     1     -11.652  15.174  68.166  1.00  0.00    -0.341 C  
HETATM    2  N   UNL     1     -11.742  14.027  67.298  1.00  0.00    -0.368 NA 
HETATM    3  N   UNL     1     -12.483  14.108  66.176  1.00  0.00    -0.451 NA 
HETATM    4  C   UNL     1     -12.340  12.886  65.667  1.00  0.00    -0.423 A  
HETATM    5  N   UNL     1     -11.604  12.028  66.426  1.00  0.00    -0.500 NA 
HETATM    6  C   UNL     1     -11.209  12.769  67.446  1.00  0.00    -0.294 A  
ENDROOT
BRANCH   6   7
HETATM    7  C   UNL     1     -10.337  12.281  68.579  1.00  0.00    -0.234 C  
HETATM    8  C   UNL     1      -9.020  11.677  68.043  1.00  0.00    -0.176 C  
HETATM    9  N   UNL     1      -8.534  10.496  68.756  1.00  0.00    -0.133 NA 
HETATM   10  C   UNL     1      -8.664   8.766  70.413  1.00  0.00    -0.181 A  
HETATM   11  H   UNL     1      -7.610  10.137  68.516  1.00  0.00     0.000 HD 
HETATM   12  C   UNL     1      -9.247   9.842  69.732  1.00  0.00    -0.226 A  
HETATM   13  F   UNL     1      -8.745   7.115  72.098  1.00  0.00    -0.120 F  
HETATM   14  C   UNL     1     -10.505  10.264  70.159  1.00  0.00    -0.259 A  
HETATM   15  C   UNL     1      -9.339   8.127  71.454  1.00  0.00    -0.155 A  
HETATM   16  C   UNL     1     -10.610   8.524  71.836  1.00  0.00    -0.392 A  
HETATM   17  C   UNL     1     -11.137  11.441  69.557  1.00  0.00    -0.211 C  
HETATM   18  C   UNL     1     -11.196   9.600  71.171  1.00  0.00    -0.454 A  
HETATM   19  N   UNL     1     -12.335  11.837  69.886  1.00  0.00    -0.183 NA 
HETATM   20  O   UNL     1     -13.208   9.475  72.376  1.00  0.00    -0.431 OA 
HETATM   21  H   UNL     1     -13.991  11.406  70.991  1.00  0.00     0.000 HD 
HETATM   22  N   UNL     1     -13.028  11.120  70.809  1.00  0.00    -0.213 N  
HETATM   23  C   UNL     1     -12.550  10.046  71.519  1.00  0.00    -0.425 C  
BRANCH   8  24
HETATM   24  C   UNL     1      -7.938  12.763  68.095  1.00  0.00    -0.156 A  
HETATM   25  C   UNL     1      -7.254  15.025  67.518  1.00  0.00    -0.228 A  
HETATM   26  F   UNL     1      -5.520  16.054  68.740  1.00  0.00    -0.105 F  
HETATM   27  C   UNL     1      -6.272  14.972  68.499  1.00  0.00    -0.094 A  
HETATM   28  C   UNL     1      -6.075  13.823  69.252  1.00  0.00    -0.100 A  
HETATM   29  C   UNL     1      -6.906  12.720  69.052  1.00  0.00    -0.081 A  
HETATM   30  C   UNL     1      -8.078  13.919  67.307  1.00  0.00    -0.162 A  
ENDBRANCH   8  24
ENDBRANCH   6   7
TORSDOF 2
ENDMDL
MODEL       39
REMARK 921   NORMALIZED FREE ENERGY PREDICTED BY IDOCK:   -6.54 KCAL/MOL
REMARK 922        TOTAL FREE ENERGY PREDICTED BY IDOCK:   -7.98 KCAL/MOL
REMARK 923 INTER-LIGAND FREE ENERGY PREDICTED BY IDOCK:   -7.14 KCAL/MOL
REMARK 924 INTRA-LIGAND FREE ENERGY PREDICTED BY IDOCK:   -0.84 KCAL/MOL
REMARK 927      BINDING AFFINITY PREDICTED BY RF-SCORE:    0.00 PKD
ROOT
HETATM    1  C   UNL     1      -8.095   8.711  69.223  1.00  0.00    -0.112 C  
HETATM    2  N   UNL     1      -8.752   8.987  67.971  1.00  0.00    -0.129 NA 
HETATM    3  N   UNL     1      -8.656   8.094  66.967  1.00  0.00    -0.122 NA 
HETATM    4  C   UNL     1      -9.354   8.692  66.003  1.00  0.00    -0.218 A  
HETATM    5  N   UNL     1      -9.833   9.926  66.320  1.00  0.00    -0.228 NA 
HETATM    6  C   UNL     1      -9.466  10.093  67.579  1.00  0.00    -0.152 A  
ENDROOT
BRANCH   6   7
HETATM    7  C   UNL     1      -9.776  11.315  68.412  1.00  0.00    -0.194 C  
HETATM    8  C   UNL     1     -11.302  11.522  68.544  1.00  0.00    -0.277 C  
HETATM    9  N   UNL     1     -11.753  12.912  68.507  1.00  0.00    -0.320 NA 
HETATM   10  C   UNL     1     -11.442  15.280  68.282  1.00  0.00    -0.359 A  
HETATM   11  H   UNL     1     -12.734  13.104  68.711  1.00  0.00     0.000 HD 
HETATM   12  C   UNL     1     -10.934  13.977  68.215  1.00  0.00    -0.255 A  
HETATM   13  F   UNL     1     -11.129  17.616  68.148  1.00  0.00    -0.336 F  
HETATM   14  C   UNL     1      -9.574  13.833  67.950  1.00  0.00    -0.222 A  
HETATM   15  C   UNL     1     -10.616  16.383  68.057  1.00  0.00    -0.314 A  
HETATM   16  C   UNL     1      -9.276  16.224  67.745  1.00  0.00    -0.203 A  
HETATM   17  C   UNL     1      -8.952  12.505  67.958  1.00  0.00    -0.192 C  
HETATM   18  C   UNL     1      -8.758  14.932  67.685  1.00  0.00    -0.181 A  
HETATM   19  N   UNL     1      -7.697  12.319  67.661  1.00  0.00    -0.133 NA 
HETATM   20  O   UNL     1      -6.605  15.634  67.063  1.00  0.00    -0.283 OA 
HETATM   21  H   UNL     1      -5.984  13.212  67.013  1.00  0.00     0.000 HD 
HETATM   22  N   UNL     1      -6.942  13.394  67.315  1.00  0.00    -0.066 N  
HETATM   23  C   UNL     1      -7.351  14.705  67.336  1.00  0.00    -0.168 C  
BRANCH   8  24
HETATM   24  C   UNL     1     -11.758  10.891  69.865  1.00  0.00    -0.418 A  
HETATM   25  C   UNL     1     -13.184  11.025  71.833  1.00  0.00    -0.503 A  
HETATM   26  F   UNL     1     -13.672   9.059  73.040  1.00  0.00    -0.454 F  
HETATM   27  C   UNL     1     -13.015   9.662  72.040  1.00  0.00    -0.428 A  
HETATM   28  C   UNL     1     -12.197   8.908  71.210  1.00  0.00    -0.351 A  
HETATM   29  C   UNL     1     -11.570   9.520  70.124  1.00  0.00    -0.156 A  
HETATM   30  C   UNL     1     -12.547  11.643  70.755  1.00  0.00    -0.365 A  
ENDBRANCH   8  24
ENDBRANCH   6   7
TORSDOF 2
ENDMDL
MODEL       40
REMARK 921   NORMALIZED FREE ENERGY PREDICTED BY IDOCK:   -6.52 KCAL/MOL
REMARK 922        TOTAL FREE ENERGY PREDICTED BY IDOCK:   -7.96 KCAL/MOL
REMARK 923 INTER-LIGAND FREE ENERGY PREDICTED BY IDOCK:   -7.81 KCAL/MOL
REMARK 924 INTRA-LIGAND FREE ENERGY PREDICTED BY IDOCK:   -0.14 KCAL/MOL
REMARK 927      BINDING AFFINITY PREDICTED BY RF-SCORE:    0.00 PKD
ROOT
HETATM    1  C   UNL     1      -7.961  13.673  67.341  1.00  0.00    -0.166 C  
HETATM    2  N   UNL     1      -7.307  14.181  68.520  1.00  0.00    -0.112 NA 
HETATM    3  N   UNL     1      -6.252  13.514  69.026  1.00  0.00    -0.089 NA 
HETATM    4  C   UNL     1      -5.944  14.257  70.087  1.00  0.00    -0.151 A  
HETATM    5  N   UNL     1      -6.771  15.315  70.309  1.00  0.00    -0.033 NA 
HETATM    6  C   UNL     1      -7.618  15.272  69.296  1.00  0.00    -0.213 A  
ENDROOT
BRANCH   6   7
HETATM    7  C   UNL     1      -8.741  16.256  69.068  1.00  0.00    -0.246 C  
HETATM    8  C   UNL     1      -9.911  15.594  68.307  1.00  0.00    -0.213 C  
HETATM    9  N   UNL     1     -10.578  16.443  67.320  1.00  0.00    -0.313 NA 
HETATM   10  C   UNL     1     -10.879  18.456  66.051  1.00  0.00    -0.044 A  
HETATM   11  H   UNL     1     -11.429  16.090  66.881  1.00  0.00     0.000 HD 
HETATM   12  C   UNL     1     -10.127  17.687  66.948  1.00  0.00    -0.331 A  
HETATM   13  F   UNL     1     -11.232  20.466  64.864  1.00  0.00    -0.340 F  
HETATM   14  C   UNL     1      -8.993  18.276  67.503  1.00  0.00    -0.256 A  
HETATM   15  C   UNL     1     -10.480  19.750  65.708  1.00  0.00    -0.445 A  
HETATM   16  C   UNL     1      -9.323  20.306  66.230  1.00  0.00    -0.350 A  
HETATM   17  C   UNL     1      -8.211  17.568  68.520  1.00  0.00    -0.278 C  
HETATM   18  C   UNL     1      -8.573  19.552  67.130  1.00  0.00    -0.337 A  
HETATM   19  N   UNL     1      -7.114  18.058  69.025  1.00  0.00    -0.262 NA 
HETATM   20  O   UNL     1      -6.900  21.183  67.373  1.00  0.00    -0.396 OA 
HETATM   21  H   UNL     1      -5.771  19.587  68.933  1.00  0.00     0.000 HD 
HETATM   22  N   UNL     1      -6.671  19.262  68.579  1.00  0.00    -0.260 N  
HETATM   23  C   UNL     1      -7.327  20.083  67.694  1.00  0.00    -0.288 C  
BRANCH   8  24
HETATM   24  C   UNL     1     -10.949  15.128  69.335  1.00  0.00    -0.268 A  
HETATM   25  C   UNL     1     -12.167  13.280  70.347  1.00  0.00    -0.404 A  
HETATM   26  F   UNL     1     -13.119  13.559  72.486  1.00  0.00    -0.483 F  
HETATM   27  C   UNL     1     -12.457  14.080  71.445  1.00  0.00    -0.356 A  
HETATM   28  C   UNL     1     -12.048  15.405  71.491  1.00  0.00    -0.437 A  
HETATM   29  C   UNL     1     -11.295  15.929  70.440  1.00  0.00    -0.399 A  
HETATM   30  C   UNL     1     -11.426  13.805  69.287  1.00  0.00    -0.344 A  
ENDBRANCH   8  24
ENDBRANCH   6   7
TORSDOF 2
ENDMDL
MODEL       41
REMARK 921   NORMALIZED FREE ENERGY PREDICTED BY IDOCK:   -6.51 KCAL/MOL
REMARK 922        TOTAL FREE ENERGY PREDICTED BY IDOCK:   -7.95 KCAL/MOL
REMARK 923 INTER-LIGAND FREE ENERGY PREDICTED BY IDOCK:   -7.64 KCAL/MOL
REMARK 924 INTRA-LIGAND FREE ENERGY PREDICTED BY IDOCK:   -0.30 KCAL/MOL
REMARK 927      BINDING AFFINITY PREDICTED BY RF-SCORE:    0.00 PKD
ROOT
HETATM    1  C   UNL     1     -11.435  15.372  71.819  1.00  0.00    -0.422 C  
HETATM    2  N   UNL     1     -12.269  14.207  71.664  1.00  0.00    -0.276 NA 
HETATM    3  N   UNL     1     -13.259  13.984  72.549  1.00  0.00    -0.484 NA 
HETATM    4  C   UNL     1     -13.775  12.842  72.099  1.00  0.00    -0.414 A  
HETATM    5  N   UNL     1     -13.138  12.308  71.021  1.00  0.00    -0.052 NA 
HETATM    6  C   UNL     1     -12.199  13.194  70.738  1.00  0.00    -0.290 A  
ENDROOT
BRANCH   6   7
HETATM    7  C   UNL     1     -11.217  13.073  69.598  1.00  0.00    -0.080 C  
HETATM    8  C   UNL     1     -11.584  14.037  68.447  1.00  0.00    -0.331 C  
HETATM    9  N   UNL     1     -11.375  13.513  67.097  1.00  0.00    -0.309 NA 
HETATM   10  C   UNL     1     -10.778  11.822  65.504  1.00  0.00    -0.329 A  
HETATM   11  H   UNL     1     -11.489  14.153  66.311  1.00  0.00     0.000 HD 
HETATM   12  C   UNL     1     -11.033  12.209  66.825  1.00  0.00    -0.280 A  
HETATM   13  F   UNL     1     -10.108  10.191  63.934  1.00  0.00    -0.361 F  
HETATM   14  C   UNL     1     -10.825  11.259  67.823  1.00  0.00    -0.284 A  
HETATM   15  C   UNL     1     -10.364  10.523  65.205  1.00  0.00    -0.229 A  
HETATM   16  C   UNL     1     -10.208   9.573  66.202  1.00  0.00    -0.272 A  
HETATM   17  C   UNL     1     -10.980  11.619  69.235  1.00  0.00    -0.192 C  
HETATM   18  C   UNL     1     -10.451   9.951  67.521  1.00  0.00    -0.310 A  
HETATM   19  N   UNL     1     -10.850  10.749  70.196  1.00  0.00    -0.175 NA 
HETATM   20  O   UNL     1     -10.031   7.812  68.396  1.00  0.00    -0.167 OA 
HETATM   21  H   UNL     1     -10.556   8.783  70.641  1.00  0.00     0.000 HD 
HETATM   22  N   UNL     1     -10.576   9.457  69.875  1.00  0.00    -0.222 N  
HETATM   23  C   UNL     1     -10.324   8.978  68.613  1.00  0.00    -0.209 C  
BRANCH   8  24
HETATM   24  C   UNL     1     -10.756  15.317  68.611  1.00  0.00    -0.245 A  
HETATM   25  C   UNL     1      -8.567  16.337  68.905  1.00  0.00    -0.260 A  
HETATM   26  F   UNL     1      -8.260  18.601  68.321  1.00  0.00    -0.292 F  
HETATM   27  C   UNL     1      -9.078  17.549  68.460  1.00  0.00    -0.277 A  
HETATM   28  C   UNL     1     -10.420  17.682  68.132  1.00  0.00    -0.386 A  
HETATM   29  C   UNL     1     -11.258  16.569  68.206  1.00  0.00    -0.265 A  
HETATM   30  C   UNL     1      -9.406  15.225  68.993  1.00  0.00    -0.231 A  
ENDBRANCH   8  24
ENDBRANCH   6   7
TORSDOF 2
ENDMDL
MODEL       42
REMARK 921   NORMALIZED FREE ENERGY PREDICTED BY IDOCK:   -6.51 KCAL/MOL
REMARK 922        TOTAL FREE ENERGY PREDICTED BY IDOCK:   -7.94 KCAL/MOL
REMARK 923 INTER-LIGAND FREE ENERGY PREDICTED BY IDOCK:   -7.31 KCAL/MOL
REMARK 924 INTRA-LIGAND FREE ENERGY PREDICTED BY IDOCK:   -0.63 KCAL/MOL
REMARK 927      BINDING AFFINITY PREDICTED BY RF-SCORE:    0.00 PKD
ROOT
HETATM    1  C   UNL     1     -11.859  14.164  70.519  1.00  0.00    -0.282 C  
HETATM    2  N   UNL     1     -12.437  12.917  70.952  1.00  0.00    -0.351 NA 
HETATM    3  N   UNL     1     -13.381  12.927  71.912  1.00  0.00    -0.469 NA 
HETATM    4  C   UNL     1     -13.646  11.629  72.048  1.00  0.00    -0.041 A  
HETATM    5  N   UNL     1     -12.890  10.803  71.274  1.00  0.00    -0.408 NA 
HETATM    6  C   UNL     1     -12.143  11.631  70.564  1.00  0.00    -0.366 A  
ENDROOT
BRANCH   6   7
HETATM    7  C   UNL     1     -11.131  11.205  69.528  1.00  0.00    -0.311 C  
HETATM    8  C   UNL     1     -11.724  11.301  68.104  1.00  0.00    -0.253 C  
HETATM    9  N   UNL     1     -11.328  10.234  67.185  1.00  0.00    -0.285 NA 
HETATM   10  C   UNL     1     -10.216   8.192  66.594  1.00  0.00    -0.329 A  
HETATM   11  H   UNL     1     -11.597  10.321  66.204  1.00  0.00     0.000 HD 
HETATM   12  C   UNL     1     -10.615   9.121  67.563  1.00  0.00    -0.249 A  
HETATM   13  F   UNL     1      -9.052   6.231  65.986  1.00  0.00    -0.154 F  
HETATM   14  C   UNL     1     -10.174   8.915  68.868  1.00  0.00    -0.220 A  
HETATM   15  C   UNL     1      -9.434   7.089  66.939  1.00  0.00    -0.160 A  
HETATM   16  C   UNL     1      -9.043   6.869  68.250  1.00  0.00    -0.125 A  
HETATM   17  C   UNL     1     -10.472   9.895  69.917  1.00  0.00    -0.269 C  
HETATM   18  C   UNL     1      -9.427   7.792  69.220  1.00  0.00    -0.155 A  
HETATM   19  N   UNL     1     -10.127   9.715  71.160  1.00  0.00    -0.177 NA 
HETATM   20  O   UNL     1      -8.435   6.609  70.990  1.00  0.00    -0.127 OA 
HETATM   21  H   UNL     1      -9.291   8.418  72.491  1.00  0.00     0.000 HD 
HETATM   22  N   UNL     1      -9.481   8.569  71.499  1.00  0.00    -0.198 N  
HETATM   23  C   UNL     1      -9.060   7.595  70.628  1.00  0.00    -0.158 C  
BRANCH   8  24
HETATM   24  C   UNL     1     -11.308  12.649  67.501  1.00  0.00    -0.361 A  
HETATM   25  C   UNL     1      -9.511  14.111  66.756  1.00  0.00    -0.290 A  
HETATM   26  F   UNL     1      -9.992  15.848  65.236  1.00  0.00    -0.343 F  
HETATM   27  C   UNL     1     -10.424  14.841  66.007  1.00  0.00    -0.303 A  
HETATM   28  C   UNL     1     -11.776  14.527  66.023  1.00  0.00    -0.347 A  
HETATM   29  C   UNL     1     -12.218  13.433  66.767  1.00  0.00    -0.367 A  
HETATM   30  C   UNL     1      -9.952  13.024  67.512  1.00  0.00    -0.212 A  
ENDBRANCH   8  24
ENDBRANCH   6   7
TORSDOF 2
ENDMDL
MODEL       43
REMARK 921   NORMALIZED FREE ENERGY PREDICTED BY IDOCK:   -6.46 KCAL/MOL
REMARK 922        TOTAL FREE ENERGY PREDICTED BY IDOCK:   -7.89 KCAL/MOL
REMARK 923 INTER-LIGAND FREE ENERGY PREDICTED BY IDOCK:   -7.13 KCAL/MOL
REMARK 924 INTRA-LIGAND FREE ENERGY PREDICTED BY IDOCK:   -0.76 KCAL/MOL
REMARK 927      BINDING AFFINITY PREDICTED BY RF-SCORE:    0.00 PKD
ROOT
HETATM    1  C   UNL     1      -8.785  13.705  67.208  1.00  0.00    -0.218 C  
HETATM    2  N   UNL     1     -10.199  13.615  66.946  1.00  0.00    -0.257 NA 
HETATM    3  N   UNL     1     -10.893  14.740  66.687  1.00  0.00    -0.313 NA 
HETATM    4  C   UNL     1     -12.127  14.268  66.523  1.00  0.00    -0.429 A  
HETATM    5  N   UNL     1     -12.261  12.927  66.717  1.00  0.00    -0.432 NA 
HETATM    6  C   UNL     1     -11.027  12.519  66.961  1.00  0.00    -0.267 A  
ENDROOT
BRANCH   6   7
HETATM    7  C   UNL     1     -10.631  11.086  67.229  1.00  0.00    -0.287 C  
HETATM    8  C   UNL     1      -9.991  10.942  68.628  1.00  0.00    -0.189 C  
HETATM    9  N   UNL     1      -8.871  10.005  68.713  1.00  0.00    -0.130 NA 
HETATM   10  C   UNL     1      -7.274   8.458  67.813  1.00  0.00    -0.088 A  
HETATM   11  H   UNL     1      -8.497   9.787  69.637  1.00  0.00     0.000 HD 
HETATM   12  C   UNL     1      -8.292   9.400  67.623  1.00  0.00    -0.119 A  
HETATM   13  F   UNL     1      -5.759   6.869  66.947  1.00  0.00    -0.015 F  
HETATM   14  C   UNL     1      -8.742   9.604  66.320  1.00  0.00    -0.156 A  
HETATM   15  C   UNL     1      -6.716   7.779  66.729  1.00  0.00    -0.067 A  
HETATM   16  C   UNL     1      -7.138   8.026  65.432  1.00  0.00    -0.060 A  
HETATM   17  C   UNL     1      -9.867  10.505  66.054  1.00  0.00    -0.222 C  
HETATM   18  C   UNL     1      -8.157   8.956  65.233  1.00  0.00    -0.126 A  
HETATM   19  N   UNL     1     -10.283  10.767  64.847  1.00  0.00    -0.314 NA 
HETATM   20  O   UNL     1      -8.120   8.757  62.893  1.00  0.00    -0.156 OA 
HETATM   21  H   UNL     1      -9.935  10.478  62.861  1.00  0.00     0.000 HD 
HETATM   22  N   UNL     1      -9.639  10.196  63.796  1.00  0.00    -0.281 N  
HETATM   23  C   UNL     1      -8.624   9.274  63.879  1.00  0.00    -0.192 C  
BRANCH   8  24
HETATM   24  C   UNL     1     -11.081  10.495  69.610  1.00  0.00    -0.338 A  
HETATM   25  C   UNL     1     -11.892   8.811  71.168  1.00  0.00    -0.345 A  
HETATM   26  F   UNL     1     -13.467   9.423  72.813  1.00  0.00    -0.469 F  
HETATM   27  C   UNL     1     -12.729   9.757  71.746  1.00  0.00    -0.426 A  
HETATM   28  C   UNL     1     -12.793  11.052  71.252  1.00  0.00    -0.528 A  
HETATM   29  C   UNL     1     -11.971  11.421  70.186  1.00  0.00    -0.460 A  
HETATM   30  C   UNL     1     -11.079   9.174  70.094  1.00  0.00    -0.248 A  
ENDBRANCH   8  24
ENDBRANCH   6   7
TORSDOF 2
ENDMDL
MODEL       44
REMARK 921   NORMALIZED FREE ENERGY PREDICTED BY IDOCK:   -6.45 KCAL/MOL
REMARK 922        TOTAL FREE ENERGY PREDICTED BY IDOCK:   -7.88 KCAL/MOL
REMARK 923 INTER-LIGAND FREE ENERGY PREDICTED BY IDOCK:   -7.04 KCAL/MOL
REMARK 924 INTRA-LIGAND FREE ENERGY PREDICTED BY IDOCK:   -0.84 KCAL/MOL
REMARK 927      BINDING AFFINITY PREDICTED BY RF-SCORE:    0.00 PKD
ROOT
HETATM    1  C   UNL     1      -6.813  11.629  67.499  1.00  0.00    -0.104 C  
HETATM    2  N   UNL     1      -7.234  10.730  68.544  1.00  0.00    -0.083 NA 
HETATM    3  N   UNL     1      -6.408  10.494  69.581  1.00  0.00    -0.063 NA 
HETATM    4  C   UNL     1      -7.117   9.628  70.302  1.00  0.00    -0.127 A  
HETATM    5  N   UNL     1      -8.309   9.264  69.756  1.00  0.00    -0.127 NA 
HETATM    6  C   UNL     1      -8.385   9.987  68.652  1.00  0.00    -0.116 A  
ENDROOT
BRANCH   6   7
HETATM    7  C   UNL     1      -9.544   9.963  67.684  1.00  0.00    -0.172 C  
HETATM    8  C   UNL     1      -9.118   9.357  66.327  1.00  0.00    -0.163 C  
HETATM    9  N   UNL     1      -9.704   9.989  65.145  1.00  0.00    -0.296 NA 
HETATM   10  C   UNL     1     -11.039  11.626  64.007  1.00  0.00    -0.458 A  
HETATM   11  H   UNL     1      -9.548   9.548  64.239  1.00  0.00     0.000 HD 
HETATM   12  C   UNL     1     -10.454  11.141  65.183  1.00  0.00    -0.277 A  
HETATM   13  F   UNL     1     -12.419  13.180  62.889  1.00  0.00    -0.521 F  
HETATM   14  C   UNL     1     -10.752  11.808  66.370  1.00  0.00    -0.306 A  
HETATM   15  C   UNL     1     -11.859  12.755  64.028  1.00  0.00    -0.435 A  
HETATM   16  C   UNL     1     -12.109  13.439  65.207  1.00  0.00    -0.446 A  
HETATM   17  C   UNL     1     -10.254  11.303  67.652  1.00  0.00    -0.181 C  
HETATM   18  C   UNL     1     -11.539  12.959  66.385  1.00  0.00    -0.425 A  
HETATM   19  N   UNL     1     -10.462  11.926  68.777  1.00  0.00    -0.207 NA 
HETATM   20  O   UNL     1     -12.405  14.690  67.715  1.00  0.00    -0.160 OA 
HETATM   21  H   UNL     1     -11.235  13.602  69.640  1.00  0.00     0.000 HD 
HETATM   22  N   UNL     1     -11.153  13.096  68.758  1.00  0.00    -0.260 N  
HETATM   23  C   UNL     1     -11.751  13.659  67.657  1.00  0.00    -0.363 C  
BRANCH   8  24
HETATM   24  C   UNL     1      -9.494   7.870  66.327  1.00  0.00    -0.220 A  
HETATM   25  C   UNL     1      -8.807   5.567  65.949  1.00  0.00    -0.150 A  
HETATM   26  F   UNL     1     -10.025   3.818  66.959  1.00  0.00    -0.240 F  
HETATM   27  C   UNL     1      -9.879   5.128  66.715  1.00  0.00    -0.185 A  
HETATM   28  C   UNL     1     -10.789   6.027  67.253  1.00  0.00    -0.403 A  
HETATM   29  C   UNL     1     -10.598   7.396  67.061  1.00  0.00    -0.414 A  
HETATM   30  C   UNL     1      -8.620   6.935  65.744  1.00  0.00    -0.139 A  
ENDBRANCH   8  24
ENDBRANCH   6   7
TORSDOF 2
ENDMDL
MODEL       45
REMARK 921   NORMALIZED FREE ENERGY PREDICTED BY IDOCK:   -6.45 KCAL/MOL
REMARK 922        TOTAL FREE ENERGY PREDICTED BY IDOCK:   -7.88 KCAL/MOL
REMARK 923 INTER-LIGAND FREE ENERGY PREDICTED BY IDOCK:   -7.04 KCAL/MOL
REMARK 924 INTRA-LIGAND FREE ENERGY PREDICTED BY IDOCK:   -0.83 KCAL/MOL
REMARK 927      BINDING AFFINITY PREDICTED BY RF-SCORE:    0.00 PKD
ROOT
HETATM    1  C   UNL     1     -10.892  11.478  64.924  1.00  0.00    -0.283 C  
HETATM    2  N   UNL     1     -11.671  12.600  65.382  1.00  0.00    -0.366 NA 
HETATM    3  N   UNL     1     -12.677  13.061  64.615  1.00  0.00    -0.709 NA 
HETATM    4  C   UNL     1     -13.130  14.080  65.342  1.00  0.00    -0.176 A  
HETATM    5  N   UNL     1     -12.438  14.321  66.489  1.00  0.00    -0.343 NA 
HETATM    6  C   UNL     1     -11.529  13.362  66.517  1.00  0.00    -0.341 A  
ENDROOT
BRANCH   6   7
HETATM    7  C   UNL     1     -10.508  13.174  67.614  1.00  0.00    -0.225 C  
HETATM    8  C   UNL     1      -9.073  13.353  67.070  1.00  0.00    -0.243 C  
HETATM    9  N   UNL     1      -8.071  12.448  67.631  1.00  0.00    -0.156 NA 
HETATM   10  C   UNL     1      -7.331  10.629  69.010  1.00  0.00    -0.108 A  
HETATM   11  H   UNL     1      -7.092  12.608  67.393  1.00  0.00     0.000 HD 
HETATM   12  C   UNL     1      -8.368  11.392  68.461  1.00  0.00    -0.153 A  
HETATM   13  F   UNL     1      -6.585   8.898  70.430  1.00  0.00    -0.036 F  
HETATM   14  C   UNL     1      -9.667  11.100  68.873  1.00  0.00    -0.163 A  
HETATM   15  C   UNL     1      -7.601   9.595  69.908  1.00  0.00    -0.138 A  
HETATM   16  C   UNL     1      -8.901   9.282  70.272  1.00  0.00    -0.254 A  
HETATM   17  C   UNL     1     -10.794  11.917  68.414  1.00  0.00    -0.228 C  
HETATM   18  C   UNL     1      -9.940  10.042  69.738  1.00  0.00    -0.276 A  
HETATM   19  N   UNL     1     -12.029  11.645  68.730  1.00  0.00    -0.408 NA 
HETATM   20  O   UNL     1     -11.627   8.799  70.799  1.00  0.00    -0.281 OA 
HETATM   21  H   UNL     1     -13.260  10.320  69.667  1.00  0.00     0.000 HD 
HETATM   22  N   UNL     1     -12.281  10.554  69.499  1.00  0.00    -0.162 N  
HETATM   23  C   UNL     1     -11.336   9.737  70.071  1.00  0.00    -0.220 C  
BRANCH   8  24
HETATM   24  C   UNL     1      -8.635  14.798  67.340  1.00  0.00    -0.210 A  
HETATM   25  C   UNL     1      -8.787  17.149  66.731  1.00  0.00    -0.270 A  
HETATM   26  F   UNL     1      -8.203  18.793  68.319  1.00  0.00    -0.297 F  
HETATM   27  C   UNL     1      -8.299  17.499  67.984  1.00  0.00    -0.241 A  
HETATM   28  C   UNL     1      -7.934  16.528  68.906  1.00  0.00    -0.239 A  
HETATM   29  C   UNL     1      -8.102  15.180  68.586  1.00  0.00    -0.154 A  
HETATM   30  C   UNL     1      -8.943  15.802  66.403  1.00  0.00    -0.366 A  
ENDBRANCH   8  24
ENDBRANCH   6   7
TORSDOF 2
ENDMDL
MODEL       46
REMARK 921   NORMALIZED FREE ENERGY PREDICTED BY IDOCK:   -6.43 KCAL/MOL
REMARK 922        TOTAL FREE ENERGY PREDICTED BY IDOCK:   -7.86 KCAL/MOL
REMARK 923 INTER-LIGAND FREE ENERGY PREDICTED BY IDOCK:   -7.78 KCAL/MOL
REMARK 924 INTRA-LIGAND FREE ENERGY PREDICTED BY IDOCK:   -0.08 KCAL/MOL
REMARK 927      BINDING AFFINITY PREDICTED BY RF-SCORE:    0.00 PKD
ROOT
HETATM    1  C   UNL     1     -11.719   6.629  70.183  1.00  0.00    -0.351 C  
HETATM    2  N   UNL     1     -12.643   7.308  71.055  1.00  0.00    -0.303 NA 
HETATM    3  N   UNL     1     -13.818   6.722  71.354  1.00  0.00    -0.083 NA 
HETATM    4  C   UNL     1     -14.385   7.634  72.141  1.00  0.00    -0.233 A  
HETATM    5  N   UNL     1     -13.665   8.777  72.309  1.00  0.00    -0.434 NA 
HETATM    6  C   UNL     1     -12.551   8.550  71.636  1.00  0.00    -0.333 A  
ENDROOT
BRANCH   6   7
HETATM    7  C   UNL     1     -11.399   9.521  71.525  1.00  0.00    -0.456 C  
HETATM    8  C   UNL     1     -11.484  10.332  70.212  1.00  0.00    -0.317 C  
HETATM    9  N   UNL     1     -10.206  10.602  69.556  1.00  0.00    -0.366 NA 
HETATM   10  C   UNL     1      -7.825  10.436  69.310  1.00  0.00    -0.147 A  
HETATM   11  H   UNL     1     -10.201  11.234  68.755  1.00  0.00     0.000 HD 
HETATM   12  C   UNL     1      -9.008  10.055  69.954  1.00  0.00    -0.146 A  
HETATM   13  F   UNL     1      -5.474  10.349  69.112  1.00  0.00    -0.039 F  
HETATM   14  C   UNL     1      -8.895   9.203  71.050  1.00  0.00    -0.267 A  
HETATM   15  C   UNL     1      -6.588   9.949  69.736  1.00  0.00    -0.066 A  
HETATM   16  C   UNL     1      -6.494   9.063  70.797  1.00  0.00    -0.058 A  
HETATM   17  C   UNL     1     -10.080   8.836  71.831  1.00  0.00    -0.339 C  
HETATM   18  C   UNL     1      -7.665   8.684  71.451  1.00  0.00    -0.150 A  
HETATM   19  N   UNL     1     -10.028   7.999  72.829  1.00  0.00    -0.276 NA 
HETATM   20  O   UNL     1      -6.575   7.223  72.931  1.00  0.00    -0.062 OA 
HETATM   21  H   UNL     1      -8.836   6.724  73.879  1.00  0.00     0.000 HD 
HETATM   22  N   UNL     1      -8.834   7.433  73.145  1.00  0.00    -0.137 N  
HETATM   23  C   UNL     1      -7.625   7.730  72.565  1.00  0.00    -0.098 C  
BRANCH   8  24
HETATM   24  C   UNL     1     -12.171  11.669  70.519  1.00  0.00    -0.451 A  
HETATM   25  C   UNL     1     -13.459  13.017  72.082  1.00  0.00    -0.638 A  
HETATM   26  F   UNL     1     -13.434  15.366  71.873  1.00  0.00    -0.394 F  
HETATM   27  C   UNL     1     -13.064  14.166  71.408  1.00  0.00    -0.358 A  
HETATM   28  C   UNL     1     -12.269  14.090  70.272  1.00  0.00    -0.430 A  
HETATM   29  C   UNL     1     -11.823  12.845  69.828  1.00  0.00    -0.380 A  
HETATM   30  C   UNL     1     -13.025  11.770  71.633  1.00  0.00    -0.467 A  
ENDBRANCH   8  24
ENDBRANCH   6   7
TORSDOF 2
ENDMDL
MODEL       47
REMARK 921   NORMALIZED FREE ENERGY PREDICTED BY IDOCK:   -6.42 KCAL/MOL
REMARK 922        TOTAL FREE ENERGY PREDICTED BY IDOCK:   -7.85 KCAL/MOL
REMARK 923 INTER-LIGAND FREE ENERGY PREDICTED BY IDOCK:   -6.89 KCAL/MOL
REMARK 924 INTRA-LIGAND FREE ENERGY PREDICTED BY IDOCK:   -0.96 KCAL/MOL
REMARK 927      BINDING AFFINITY PREDICTED BY RF-SCORE:    0.00 PKD
ROOT
HETATM    1  C   UNL     1     -11.899  13.861  67.618  1.00  0.00    -0.386 C  
HETATM    2  N   UNL     1     -11.676  14.389  68.940  1.00  0.00    -0.303 NA 
HETATM    3  N   UNL     1     -12.586  14.156  69.905  1.00  0.00    -0.250 NA 
HETATM    4  C   UNL     1     -12.055  14.798  70.943  1.00  0.00    -0.324 A  
HETATM    5  N   UNL     1     -10.898  15.466  70.676  1.00  0.00    -0.316 NA 
HETATM    6  C   UNL     1     -10.654  15.179  69.409  1.00  0.00    -0.255 A  
ENDROOT
BRANCH   6   7
HETATM    7  C   UNL     1      -9.457  15.671  68.630  1.00  0.00    -0.204 C  
HETATM    8  C   UNL     1      -8.139  15.246  69.315  1.00  0.00    -0.236 C  
HETATM    9  N   UNL     1      -7.061  16.234  69.273  1.00  0.00    -0.217 NA 
HETATM   10  C   UNL     1      -6.106  18.369  68.740  1.00  0.00    -0.208 A  
HETATM   11  H   UNL     1      -6.138  15.952  69.604  1.00  0.00     0.000 HD 
HETATM   12  C   UNL     1      -7.217  17.520  68.813  1.00  0.00    -0.257 A  
HETATM   13  F   UNL     1      -5.137  20.435  68.139  1.00  0.00    -0.181 F  
HETATM   14  C   UNL     1      -8.425  18.001  68.312  1.00  0.00    -0.293 A  
HETATM   15  C   UNL     1      -6.222  19.657  68.214  1.00  0.00    -0.235 A  
HETATM   16  C   UNL     1      -7.440  20.141  67.764  1.00  0.00    -0.327 A  
HETATM   17  C   UNL     1      -9.608  17.137  68.269  1.00  0.00    -0.280 C  
HETATM   18  C   UNL     1      -8.551  19.301  67.824  1.00  0.00    -0.341 A  
HETATM   19  N   UNL     1     -10.770  17.562  67.860  1.00  0.00    -0.380 NA 
HETATM   20  O   UNL     1     -10.035  20.912  66.980  1.00  0.00    -0.324 OA 
HETATM   21  H   UNL     1     -11.828  19.187  67.235  1.00  0.00     0.000 HD 
HETATM   22  N   UNL     1     -10.892  18.860  67.476  1.00  0.00    -0.428 N  
HETATM   23  C   UNL     1      -9.869  19.771  67.384  1.00  0.00    -0.391 C  
BRANCH   8  24
HETATM   24  C   UNL     1      -7.647  13.954  68.649  1.00  0.00    -0.130 A  
HETATM   25  C   UNL     1      -6.444  11.850  68.862  1.00  0.00    -0.082 A  
HETATM   26  F   UNL     1      -6.865  10.119  67.317  1.00  0.00    -0.074 F  
HETATM   27  C   UNL     1      -7.082  11.377  67.722  1.00  0.00    -0.081 A  
HETATM   28  C   UNL     1      -7.962  12.180  67.010  1.00  0.00    -0.138 A  
HETATM   29  C   UNL     1      -8.246  13.466  67.472  1.00  0.00    -0.186 A  
HETATM   30  C   UNL     1      -6.716  13.140  69.319  1.00  0.00    -0.061 A  
ENDBRANCH   8  24
ENDBRANCH   6   7
TORSDOF 2
ENDMDL
MODEL       48
REMARK 921   NORMALIZED FREE ENERGY PREDICTED BY IDOCK:   -6.29 KCAL/MOL
REMARK 922        TOTAL FREE ENERGY PREDICTED BY IDOCK:   -7.70 KCAL/MOL
REMARK 923 INTER-LIGAND FREE ENERGY PREDICTED BY IDOCK:   -6.78 KCAL/MOL
REMARK 924 INTRA-LIGAND FREE ENERGY PREDICTED BY IDOCK:   -0.92 KCAL/MOL
REMARK 927      BINDING AFFINITY PREDICTED BY RF-SCORE:    0.00 PKD
ROOT
HETATM    1  C   UNL     1     -10.467   5.270  71.219  1.00  0.00    -0.204 C  
HETATM    2  N   UNL     1      -9.937   6.354  72.007  1.00  0.00    -0.168 NA 
HETATM    3  N   UNL     1      -9.378   6.086  73.203  1.00  0.00    -0.139 NA 
HETATM    4  C   UNL     1      -9.036   7.303  73.622  1.00  0.00    -0.194 A  
HETATM    5  N   UNL     1      -9.395   8.320  72.791  1.00  0.00    -0.268 NA 
HETATM    6  C   UNL     1      -9.944   7.705  71.759  1.00  0.00    -0.172 A  
ENDROOT
BRANCH   6   7
HETATM    7  C   UNL     1     -10.497   8.400  70.537  1.00  0.00    -0.227 C  
HETATM    8  C   UNL     1      -9.395   8.609  69.474  1.00  0.00    -0.153 C  
HETATM    9  N   UNL     1      -9.460   9.874  68.742  1.00  0.00    -0.152 NA 
HETATM   10  C   UNL     1     -10.361  12.042  68.248  1.00  0.00    -0.211 A  
HETATM   11  H   UNL     1      -8.829  10.004  67.951  1.00  0.00     0.000 HD 
HETATM   12  C   UNL     1     -10.320  10.899  69.057  1.00  0.00    -0.211 A  
HETATM   13  F   UNL     1     -11.299  14.137  67.700  1.00  0.00    -0.281 F  
HETATM   14  C   UNL     1     -11.242  10.818  70.098  1.00  0.00    -0.345 A  
HETATM   15  C   UNL     1     -11.272  13.068  68.504  1.00  0.00    -0.274 A  
HETATM   16  C   UNL     1     -12.151  12.997  69.573  1.00  0.00    -0.289 A  
HETATM   17  C   UNL     1     -11.322   9.612  70.927  1.00  0.00    -0.360 C  
HETATM   18  C   UNL     1     -12.124  11.860  70.379  1.00  0.00    -0.421 A  
HETATM   19  N   UNL     1     -12.130   9.516  71.945  1.00  0.00    -0.365 NA 
HETATM   20  O   UNL     1     -13.784  12.645  71.844  1.00  0.00    -0.290 OA 
HETATM   21  H   UNL     1     -13.482  10.506  73.104  1.00  0.00     0.000 HD 
HETATM   22  N   UNL     1     -12.916  10.579  72.258  1.00  0.00    -0.260 N  
HETATM   23  C   UNL     1     -13.016  11.744  71.538  1.00  0.00    -0.341 C  
BRANCH   8  24
HETATM   24  C   UNL     1      -9.475   7.455  68.467  1.00  0.00    -0.144 A  
HETATM   25  C   UNL     1      -8.596   5.320  67.700  1.00  0.00    -0.104 A  
HETATM   26  F   UNL     1      -9.955   3.921  66.374  1.00  0.00    -0.217 F  
HETATM   27  C   UNL     1      -9.781   5.085  67.013  1.00  0.00    -0.165 A  
HETATM   28  C   UNL     1     -10.798   6.029  67.001  1.00  0.00    -0.413 A  
HETATM   29  C   UNL     1     -10.647   7.211  67.726  1.00  0.00    -0.293 A  
HETATM   30  C   UNL     1      -8.437   6.507  68.415  1.00  0.00    -0.120 A  
ENDBRANCH   8  24
ENDBRANCH   6   7
TORSDOF 2
ENDMDL
MODEL       49
REMARK 921   NORMALIZED FREE ENERGY PREDICTED BY IDOCK:   -6.27 KCAL/MOL
REMARK 922        TOTAL FREE ENERGY PREDICTED BY IDOCK:   -7.68 KCAL/MOL
REMARK 923 INTER-LIGAND FREE ENERGY PREDICTED BY IDOCK:   -6.86 KCAL/MOL
REMARK 924 INTRA-LIGAND FREE ENERGY PREDICTED BY IDOCK:   -0.82 KCAL/MOL
REMARK 927      BINDING AFFINITY PREDICTED BY RF-SCORE:    0.00 PKD
ROOT
HETATM    1  C   UNL     1     -10.852   6.052  69.936  1.00  0.00    -0.363 C  
HETATM    2  N   UNL     1     -10.730   6.746  71.193  1.00  0.00    -0.225 NA 
HETATM    3  N   UNL     1     -10.961   6.078  72.339  1.00  0.00    -0.246 NA 
HETATM    4  C   UNL     1     -10.774   7.029  73.252  1.00  0.00    -0.340 A  
HETATM    5  N   UNL     1     -10.495   8.262  72.749  1.00  0.00    -0.315 NA 
HETATM    6  C   UNL     1     -10.445   8.067  71.442  1.00  0.00    -0.215 A  
ENDROOT
BRANCH   6   7
HETATM    7  C   UNL     1     -10.145   9.139  70.422  1.00  0.00    -0.264 C  
HETATM    8  C   UNL     1     -11.404   9.482  69.593  1.00  0.00    -0.035 C  
HETATM    9  N   UNL     1     -11.169   9.752  68.176  1.00  0.00    -0.522 NA 
HETATM   10  C   UNL     1      -9.812   9.929  66.205  1.00  0.00    -0.324 A  
HETATM   11  H   UNL     1     -11.949  10.100  67.618  1.00  0.00     0.000 HD 
HETATM   12  C   UNL     1      -9.959   9.567  67.549  1.00  0.00    -0.186 A  
HETATM   13  F   UNL     1      -8.467  10.190  64.283  1.00  0.00    -0.143 F  
HETATM   14  C   UNL     1      -8.821   9.125  68.222  1.00  0.00    -0.129 A  
HETATM   15  C   UNL     1      -8.578   9.815  65.563  1.00  0.00    -0.145 A  
HETATM   16  C   UNL     1      -7.465   9.327  66.229  1.00  0.00    -0.096 A  
HETATM   17  C   UNL     1      -8.876   8.818  69.654  1.00  0.00    -0.141 C  
HETATM   18  C   UNL     1      -7.598   8.973  67.570  1.00  0.00    -0.089 A  
HETATM   19  N   UNL     1      -7.852   8.349  70.308  1.00  0.00    -0.092 NA 
HETATM   20  O   UNL     1      -5.375   8.245  67.780  1.00  0.00    -0.033 OA 
HETATM   21  H   UNL     1      -5.934   7.681  70.152  1.00  0.00     0.000 HD 
HETATM   22  N   UNL     1      -6.695   8.120  69.633  1.00  0.00    -0.037 N  
HETATM   23  C   UNL     1      -6.458   8.427  68.316  1.00  0.00    -0.059 C  
BRANCH   8  24
HETATM   24  C   UNL     1     -12.073  10.709  70.224  1.00  0.00    -0.423 A  
HETATM   25  C   UNL     1     -13.389  11.634  72.050  1.00  0.00    -0.405 A  
HETATM   26  F   UNL     1     -13.305  13.952  72.474  1.00  0.00    -0.467 F  
HETATM   27  C   UNL     1     -12.944  12.907  71.718  1.00  0.00    -0.315 A  
HETATM   28  C   UNL     1     -12.109  13.111  70.628  1.00  0.00    -0.346 A  
HETATM   29  C   UNL     1     -11.673  12.015  69.882  1.00  0.00    -0.374 A  
HETATM   30  C   UNL     1     -12.965  10.537  71.298  1.00  0.00    -0.532 A  
ENDBRANCH   8  24
ENDBRANCH   6   7
TORSDOF 2
ENDMDL
MODEL       50
REMARK 921   NORMALIZED FREE ENERGY PREDICTED BY IDOCK:   -6.26 KCAL/MOL
REMARK 922        TOTAL FREE ENERGY PREDICTED BY IDOCK:   -7.67 KCAL/MOL
REMARK 923 INTER-LIGAND FREE ENERGY PREDICTED BY IDOCK:   -6.68 KCAL/MOL
REMARK 924 INTRA-LIGAND FREE ENERGY PREDICTED BY IDOCK:   -0.99 KCAL/MOL
REMARK 927      BINDING AFFINITY PREDICTED BY RF-SCORE:    0.00 PKD
ROOT
HETATM    1  C   UNL     1     -10.708  12.403  63.723  1.00  0.00    -0.451 C  
HETATM    2  N   UNL     1     -11.370  13.232  64.699  1.00  0.00    -0.332 NA 
HETATM    3  N   UNL     1     -12.662  13.564  64.513  1.00  0.00    -0.657 NA 
HETATM    4  C   UNL     1     -12.903  14.326  65.578  1.00  0.00    -0.312 A  
HETATM    5  N   UNL     1     -11.831  14.537  66.390  1.00  0.00    -0.375 NA 
HETATM    6  C   UNL     1     -10.870  13.818  65.837  1.00  0.00    -0.283 A  
ENDROOT
BRANCH   6   7
HETATM    7  C   UNL     1      -9.464  13.700  66.375  1.00  0.00    -0.248 C  
HETATM    8  C   UNL     1      -9.396  12.668  67.523  1.00  0.00    -0.188 C  
HETATM    9  N   UNL     1      -8.504  13.015  68.629  1.00  0.00    -0.352 NA 
HETATM   10  C   UNL     1      -6.982  14.444  69.811  1.00  0.00    -0.051 A  
HETATM   11  H   UNL     1      -8.335  12.312  69.348  1.00  0.00     0.000 HD 
HETATM   12  C   UNL     1      -7.879  14.233  68.758  1.00  0.00    -0.128 A  
HETATM   13  F   UNL     1      -5.417  15.808  70.935  1.00  0.00    -0.159 F  
HETATM   14  C   UNL     1      -8.017  15.255  67.819  1.00  0.00    -0.159 A  
HETATM   15  C   UNL     1      -6.283  15.647  69.927  1.00  0.00    -0.157 A  
HETATM   16  C   UNL     1      -6.466  16.674  69.015  1.00  0.00    -0.190 A  
HETATM   17  C   UNL     1      -8.866  15.070  66.639  1.00  0.00    -0.272 C  
HETATM   18  C   UNL     1      -7.350  16.471  67.957  1.00  0.00    -0.151 A  
HETATM   19  N   UNL     1      -9.066  16.017  65.767  1.00  0.00    -0.373 NA 
HETATM   20  O   UNL     1      -7.063  18.628  67.074  1.00  0.00    -0.198 OA 
HETATM   21  H   UNL     1      -8.716  17.972  65.314  1.00  0.00     0.000 HD 
HETATM   22  N   UNL     1      -8.480  17.226  65.969  1.00  0.00    -0.170 N  
HETATM   23  C   UNL     1      -7.599  17.534  66.977  1.00  0.00    -0.207 C  
BRANCH   8  24
HETATM   24  C   UNL     1      -8.947  11.325  66.934  1.00  0.00    -0.163 A  
HETATM   25  C   UNL     1      -9.573   9.200  65.928  1.00  0.00    -0.343 A  
HETATM   26  F   UNL     1      -7.982   8.013  64.653  1.00  0.00    -0.120 F  
HETATM   27  C   UNL     1      -8.283   9.062  65.431  1.00  0.00    -0.130 A  
HETATM   28  C   UNL     1      -7.306  10.008  65.707  1.00  0.00    -0.117 A  
HETATM   29  C   UNL     1      -7.636  11.138  66.456  1.00  0.00    -0.135 A  
HETATM   30  C   UNL     1      -9.903  10.322  66.688  1.00  0.00    -0.256 A  
ENDBRANCH   8  24
ENDBRANCH   6   7
TORSDOF 2
ENDMDL
MODEL       51
REMARK 921   NORMALIZED FREE ENERGY PREDICTED BY IDOCK:   -6.24 KCAL/MOL
REMARK 922        TOTAL FREE ENERGY PREDICTED BY IDOCK:   -7.65 KCAL/MOL
REMARK 923 INTER-LIGAND FREE ENERGY PREDICTED BY IDOCK:   -6.61 KCAL/MOL
REMARK 924 INTRA-LIGAND FREE ENERGY PREDICTED BY IDOCK:   -1.04 KCAL/MOL
REMARK 927      BINDING AFFINITY PREDICTED BY RF-SCORE:    0.00 PKD
ROOT
HETATM    1  C   UNL     1     -10.687   8.436  67.823  1.00  0.00    -0.095 C  
HETATM    2  N   UNL     1      -9.749   9.072  68.713  1.00  0.00    -0.157 NA 
HETATM    3  N   UNL     1      -9.089   8.325  69.618  1.00  0.00    -0.153 NA 
HETATM    4  C   UNL     1      -8.355   9.242  70.245  1.00  0.00    -0.186 A  
HETATM    5  N   UNL     1      -8.553  10.522  69.828  1.00  0.00     0.025 NA 
HETATM    6  C   UNL     1      -9.422  10.401  68.839  1.00  0.00    -0.186 A  
ENDROOT
BRANCH   6   7
HETATM    7  C   UNL     1      -9.961  11.550  68.021  1.00  0.00    -0.197 C  
HETATM    8  C   UNL     1      -8.848  12.181  67.153  1.00  0.00    -0.191 C  
HETATM    9  N   UNL     1      -8.902  13.637  67.023  1.00  0.00    -0.281 NA 
HETATM   10  C   UNL     1      -9.794  15.816  67.483  1.00  0.00    -0.229 A  
HETATM   11  H   UNL     1      -8.264  14.084  66.366  1.00  0.00     0.000 HD 
HETATM   12  C   UNL     1      -9.763  14.439  67.734  1.00  0.00    -0.221 A  
HETATM   13  F   UNL     1     -10.721  17.953  67.862  1.00  0.00    -0.370 F  
HETATM   14  C   UNL     1     -10.696  13.932  68.637  1.00  0.00    -0.272 A  
HETATM   15  C   UNL     1     -10.704  16.645  68.141  1.00  0.00    -0.349 A  
HETATM   16  C   UNL     1     -11.594  16.135  69.073  1.00  0.00    -0.298 A  
HETATM   17  C   UNL     1     -10.786  12.490  68.880  1.00  0.00    -0.196 C  
HETATM   18  C   UNL     1     -11.578  14.764  69.324  1.00  0.00    -0.331 A  
HETATM   19  N   UNL     1     -11.605  11.978  69.755  1.00  0.00    -0.297 NA 
HETATM   20  O   UNL     1     -13.249  14.869  70.971  1.00  0.00    -0.371 OA 
HETATM   21  H   UNL     1     -12.965  12.395  71.213  1.00  0.00     0.000 HD 
HETATM   22  N   UNL     1     -12.390  12.815  70.482  1.00  0.00    -0.318 N  
HETATM   23  C   UNL     1     -12.481  14.176  70.319  1.00  0.00    -0.353 C  
BRANCH   8  24
HETATM   24  C   UNL     1      -8.921  11.560  65.753  1.00  0.00    -0.120 A  
HETATM   25  C   UNL     1      -8.086   9.895  64.187  1.00  0.00    -0.152 A  
HETATM   26  F   UNL     1      -9.429   9.256  62.356  1.00  0.00    -0.240 F  
HETATM   27  C   UNL     1      -9.243  10.036  63.430  1.00  0.00    -0.281 A  
HETATM   28  C   UNL     1     -10.222  10.953  63.785  1.00  0.00    -0.407 A  
HETATM   29  C   UNL     1     -10.063  11.714  64.944  1.00  0.00    -0.303 A  
HETATM   30  C   UNL     1      -7.919  10.664  65.339  1.00  0.00    -0.086 A  
ENDBRANCH   8  24
ENDBRANCH   6   7
TORSDOF 2
ENDMDL
MODEL       52
REMARK 921   NORMALIZED FREE ENERGY PREDICTED BY IDOCK:   -6.08 KCAL/MOL
REMARK 922        TOTAL FREE ENERGY PREDICTED BY IDOCK:   -7.47 KCAL/MOL
REMARK 923 INTER-LIGAND FREE ENERGY PREDICTED BY IDOCK:   -6.71 KCAL/MOL
REMARK 924 INTRA-LIGAND FREE ENERGY PREDICTED BY IDOCK:   -0.76 KCAL/MOL
REMARK 927      BINDING AFFINITY PREDICTED BY RF-SCORE:    0.00 PKD
ROOT
HETATM    1  C   UNL     1      -7.305   9.252  67.761  1.00  0.00    -0.084 C  
HETATM    2  N   UNL     1      -8.462   9.757  67.067  1.00  0.00    -0.117 NA 
HETATM    3  N   UNL     1      -8.296  10.651  66.073  1.00  0.00    -0.156 NA 
HETATM    4  C   UNL     1      -9.554  10.885  65.704  1.00  0.00    -0.224 A  
HETATM    5  N   UNL     1     -10.499  10.238  66.439  1.00  0.00    -0.199 NA 
HETATM    6  C   UNL     1      -9.796   9.507  67.286  1.00  0.00    -0.177 A  
ENDROOT
BRANCH   6   7
HETATM    7  C   UNL     1     -10.387   8.579  68.320  1.00  0.00    -0.246 C  
HETATM    8  C   UNL     1     -10.015   9.035  69.749  1.00  0.00    -0.196 C  
HETATM    9  N   UNL     1      -9.726   7.959  70.697  1.00  0.00    -0.173 NA 
HETATM   10  C   UNL     1      -9.419   5.668  71.338  1.00  0.00    -0.176 A  
HETATM   11  H   UNL     1      -9.595   8.206  71.678  1.00  0.00     0.000 HD 
HETATM   12  C   UNL     1      -9.621   6.634  70.345  1.00  0.00    -0.165 A  
HETATM   13  F   UNL     1      -9.202   3.410  71.993  1.00  0.00    -0.127 F  
HETATM   14  C   UNL     1      -9.810   6.182  69.040  1.00  0.00    -0.170 A  
HETATM   15  C   UNL     1      -9.376   4.310  71.018  1.00  0.00    -0.152 A  
HETATM   16  C   UNL     1      -9.516   3.876  69.709  1.00  0.00    -0.264 A  
HETATM   17  C   UNL     1     -10.120   7.128  67.965  1.00  0.00    -0.169 C  
HETATM   18  C   UNL     1      -9.727   4.830  68.714  1.00  0.00    -0.235 A  
HETATM   19  N   UNL     1     -10.249   6.756  66.722  1.00  0.00    -0.215 NA 
HETATM   20  O   UNL     1      -9.759   3.258  66.970  1.00  0.00    -0.117 OA 
HETATM   21  H   UNL     1     -10.103   5.194  65.423  1.00  0.00     0.000 HD 
HETATM   22  N   UNL     1     -10.073   5.445  66.412  1.00  0.00    -0.194 N  
HETATM   23  C   UNL     1      -9.857   4.428  67.309  1.00  0.00    -0.162 C  
BRANCH   8  24
HETATM   24  C   UNL     1     -11.172   9.877  70.300  1.00  0.00    -0.364 A  
HETATM   25  C   UNL     1     -12.852  10.197  72.030  1.00  0.00    -0.472 A  
HETATM   26  F   UNL     1     -13.777  12.341  72.360  1.00  0.00    -0.580 F  
HETATM   27  C   UNL     1     -12.968  11.531  71.663  1.00  0.00    -0.394 A  
HETATM   28  C   UNL     1     -12.240  12.046  70.601  1.00  0.00    -0.409 A  
HETATM   29  C   UNL     1     -11.342  11.222  69.920  1.00  0.00    -0.329 A  
HETATM   30  C   UNL     1     -11.966   9.367  71.343  1.00  0.00    -0.446 A  
ENDBRANCH   8  24
ENDBRANCH   6   7
TORSDOF 2
ENDMDL
MODEL       53
REMARK 921   NORMALIZED FREE ENERGY PREDICTED BY IDOCK:   -6.08 KCAL/MOL
REMARK 922        TOTAL FREE ENERGY PREDICTED BY IDOCK:   -7.47 KCAL/MOL
REMARK 923 INTER-LIGAND FREE ENERGY PREDICTED BY IDOCK:   -6.54 KCAL/MOL
REMARK 924 INTRA-LIGAND FREE ENERGY PREDICTED BY IDOCK:   -0.92 KCAL/MOL
REMARK 927      BINDING AFFINITY PREDICTED BY RF-SCORE:    0.00 PKD
ROOT
HETATM    1  C   UNL     1     -11.342  14.046  69.649  1.00  0.00    -0.214 C  
HETATM    2  N   UNL     1     -11.674  12.658  69.845  1.00  0.00    -0.285 NA 
HETATM    3  N   UNL     1     -12.479  12.311  70.867  1.00  0.00    -0.342 NA 
HETATM    4  C   UNL     1     -12.534  10.987  70.734  1.00  0.00    -0.396 A  
HETATM    5  N   UNL     1     -11.771  10.478  69.729  1.00  0.00    -0.278 NA 
HETATM    6  C   UNL     1     -11.248  11.548  69.155  1.00  0.00    -0.274 A  
ENDROOT
BRANCH   6   7
HETATM    7  C   UNL     1     -10.326  11.520  67.960  1.00  0.00    -0.208 C  
HETATM    8  C   UNL     1     -11.128  11.402  66.644  1.00  0.00    -0.271 C  
HETATM    9  N   UNL     1     -10.527  10.554  65.615  1.00  0.00    -0.192 NA 
HETATM   10  C   UNL     1      -8.867   9.055  64.748  1.00  0.00    -0.165 A  
HETATM   11  H   UNL     1     -10.958  10.543  64.691  1.00  0.00     0.000 HD 
HETATM   12  C   UNL     1      -9.415   9.772  65.819  1.00  0.00    -0.240 A  
HETATM   13  F   UNL     1      -7.191   7.649  63.861  1.00  0.00    -0.065 F  
HETATM   14  C   UNL     1      -8.731   9.734  67.032  1.00  0.00    -0.141 A  
HETATM   15  C   UNL     1      -7.700   8.307  64.910  1.00  0.00    -0.115 A  
HETATM   16  C   UNL     1      -7.056   8.237  66.135  1.00  0.00    -0.065 A  
HETATM   17  C   UNL     1      -9.192  10.535  68.170  1.00  0.00    -0.148 C  
HETATM   18  C   UNL     1      -7.588   8.955  67.205  1.00  0.00    -0.092 A  
HETATM   19  N   UNL     1      -8.615  10.486  69.338  1.00  0.00    -0.130 NA 
HETATM   20  O   UNL     1      -5.977   8.202  68.739  1.00  0.00    -0.041 OA 
HETATM   21  H   UNL     1      -7.176   9.573  70.453  1.00  0.00     0.000 HD 
HETATM   22  N   UNL     1      -7.559   9.649  69.511  1.00  0.00    -0.093 N  
HETATM   23  C   UNL     1      -6.961   8.897  68.530  1.00  0.00    -0.065 C  
BRANCH   8  24
HETATM   24  C   UNL     1     -11.319  12.812  66.071  1.00  0.00    -0.363 A  
HETATM   25  C   UNL     1     -10.307  14.912  65.374  1.00  0.00    -0.413 A  
HETATM   26  F   UNL     1     -11.471  16.315  63.879  1.00  0.00    -0.383 F  
HETATM   27  C   UNL     1     -11.440  15.203  64.626  1.00  0.00    -0.362 A  
HETATM   28  C   UNL     1     -12.532  14.347  64.620  1.00  0.00    -0.364 A  
HETATM   29  C   UNL     1     -12.473  13.153  65.340  1.00  0.00    -0.535 A  
HETATM   30  C   UNL     1     -10.250  13.725  66.106  1.00  0.00    -0.305 A  
ENDBRANCH   8  24
ENDBRANCH   6   7
TORSDOF 2
ENDMDL
MODEL       54
REMARK 921   NORMALIZED FREE ENERGY PREDICTED BY IDOCK:   -6.07 KCAL/MOL
REMARK 922        TOTAL FREE ENERGY PREDICTED BY IDOCK:   -7.46 KCAL/MOL
REMARK 923 INTER-LIGAND FREE ENERGY PREDICTED BY IDOCK:   -6.63 KCAL/MOL
REMARK 924 INTRA-LIGAND FREE ENERGY PREDICTED BY IDOCK:   -0.83 KCAL/MOL
REMARK 927      BINDING AFFINITY PREDICTED BY RF-SCORE:    0.00 PKD
ROOT
HETATM    1  C   UNL     1      -9.817   9.825  69.113  1.00  0.00    -0.188 C  
HETATM    2  N   UNL     1      -8.556  10.501  69.279  1.00  0.00    -0.152 NA 
HETATM    3  N   UNL     1      -7.705  10.081  70.235  1.00  0.00    -0.213 NA 
HETATM    4  C   UNL     1      -6.694  10.936  70.095  1.00  0.00    -0.076 A  
HETATM    5  N   UNL     1      -6.881  11.899  69.151  1.00  0.00    -0.107 NA 
HETATM    6  C   UNL     1      -8.055  11.599  68.622  1.00  0.00    -0.121 A  
ENDROOT
BRANCH   6   7
HETATM    7  C   UNL     1      -8.717  12.367  67.503  1.00  0.00    -0.179 C  
HETATM    8  C   UNL     1      -9.998  13.075  67.999  1.00  0.00    -0.233 C  
HETATM    9  N   UNL     1     -11.114  13.089  67.054  1.00  0.00    -0.273 NA 
HETATM   10  C   UNL     1     -12.207  12.535  64.991  1.00  0.00    -0.519 A  
HETATM   11  H   UNL     1     -11.935  13.647  67.289  1.00  0.00     0.000 HD 
HETATM   12  C   UNL     1     -11.123  12.396  65.866  1.00  0.00    -0.313 A  
HETATM   13  F   UNL     1     -13.255  12.067  62.929  1.00  0.00    -0.409 F  
HETATM   14  C   UNL     1     -10.045  11.626  65.434  1.00  0.00    -0.299 A  
HETATM   15  C   UNL     1     -12.213  11.897  63.750  1.00  0.00    -0.444 A  
HETATM   16  C   UNL     1     -11.156  11.094  63.352  1.00  0.00    -0.026 A  
HETATM   17  C   UNL     1      -8.837  11.512  66.255  1.00  0.00    -0.186 C  
HETATM   18  C   UNL     1     -10.068  10.956  64.212  1.00  0.00    -0.413 A  
HETATM   19  N   UNL     1      -7.829  10.759  65.914  1.00  0.00    -0.153 NA 
HETATM   20  O   UNL     1      -8.922   9.464  62.805  1.00  0.00    -0.243 OA 
HETATM   21  H   UNL     1      -7.141   9.401  64.561  1.00  0.00     0.000 HD 
HETATM   22  N   UNL     1      -7.910  10.041  64.764  1.00  0.00    -0.141 N  
HETATM   23  C   UNL     1      -8.933  10.098  63.850  1.00  0.00    -0.244 C  
BRANCH   8  24
HETATM   24  C   UNL     1      -9.638  14.522  68.356  1.00  0.00    -0.213 A  
HETATM   25  C   UNL     1      -8.233  16.464  67.936  1.00  0.00    -0.170 A  
HETATM   26  F   UNL     1      -8.981  18.597  68.609  1.00  0.00    -0.323 F  
HETATM   27  C   UNL     1      -9.171  17.271  68.568  1.00  0.00    -0.273 A  
HETATM   28  C   UNL     1     -10.314  16.728  69.136  1.00  0.00    -0.326 A  
HETATM   29  C   UNL     1     -10.549  15.357  69.030  1.00  0.00    -0.247 A  
HETATM   30  C   UNL     1      -8.459  15.090  67.840  1.00  0.00    -0.149 A  
ENDBRANCH   8  24
ENDBRANCH   6   7
TORSDOF 2
ENDMDL
MODEL       55
REMARK 921   NORMALIZED FREE ENERGY PREDICTED BY IDOCK:   -6.07 KCAL/MOL
REMARK 922        TOTAL FREE ENERGY PREDICTED BY IDOCK:   -7.46 KCAL/MOL
REMARK 923 INTER-LIGAND FREE ENERGY PREDICTED BY IDOCK:   -6.52 KCAL/MOL
REMARK 924 INTRA-LIGAND FREE ENERGY PREDICTED BY IDOCK:   -0.94 KCAL/MOL
REMARK 927      BINDING AFFINITY PREDICTED BY RF-SCORE:    0.00 PKD
ROOT
HETATM    1  C   UNL     1      -8.411  11.764  68.446  1.00  0.00    -0.155 C  
HETATM    2  N   UNL     1      -7.150  12.237  67.934  1.00  0.00    -0.094 NA 
HETATM    3  N   UNL     1      -6.164  11.353  67.694  1.00  0.00    -0.057 NA 
HETATM    4  C   UNL     1      -5.186  12.146  67.262  1.00  0.00    -0.106 A  
HETATM    5  N   UNL     1      -5.478  13.476  67.268  1.00  0.00    -0.302 NA 
HETATM    6  C   UNL     1      -6.735  13.521  67.672  1.00  0.00    -0.167 A  
ENDROOT
BRANCH   6   7
HETATM    7  C   UNL     1      -7.544  14.786  67.832  1.00  0.00    -0.149 C  
HETATM    8  C   UNL     1      -8.062  15.288  66.465  1.00  0.00     0.098 C  
HETATM    9  N   UNL     1      -8.062  16.739  66.287  1.00  0.00    -0.323 NA 
HETATM   10  C   UNL     1      -7.618  19.000  66.958  1.00  0.00    -0.239 A  
HETATM   11  H   UNL     1      -8.506  17.120  65.451  1.00  0.00     0.000 HD 
HETATM   12  C   UNL     1      -7.499  17.622  67.178  1.00  0.00    -0.193 A  
HETATM   13  F   UNL     1      -7.264  21.228  67.651  1.00  0.00    -0.384 F  
HETATM   14  C   UNL     1      -6.893  17.213  68.364  1.00  0.00    -0.191 A  
HETATM   15  C   UNL     1      -7.116  19.918  67.881  1.00  0.00    -0.279 A  
HETATM   16  C   UNL     1      -6.471  19.498  69.033  1.00  0.00    -0.342 A  
HETATM   17  C   UNL     1      -6.817  15.790  68.707  1.00  0.00    -0.122 C  
HETATM   18  C   UNL     1      -6.355  18.129  69.267  1.00  0.00    -0.257 A  
HETATM   19  N   UNL     1      -6.210  15.360  69.778  1.00  0.00    -0.148 NA 
HETATM   20  O   UNL     1      -5.144  18.394  71.261  1.00  0.00    -0.386 OA 
HETATM   21  H   UNL     1      -5.079  15.896  71.385  1.00  0.00     0.000 HD 
HETATM   22  N   UNL     1      -5.612  16.264  70.596  1.00  0.00    -0.102 N  
HETATM   23  C   UNL     1      -5.660  17.630  70.458  1.00  0.00    -0.173 C  
BRANCH   8  24
HETATM   24  C   UNL     1      -9.493  14.770  66.276  1.00  0.00    -0.332 A  
HETATM   25  C   UNL     1     -11.710  14.436  67.221  1.00  0.00    -0.429 A  
HETATM   26  F   UNL     1     -13.550  14.145  65.775  1.00  0.00    -0.331 F  
HETATM   27  C   UNL     1     -12.230  14.300  65.940  1.00  0.00    -0.407 A  
HETATM   28  C   UNL     1     -11.405  14.349  64.825  1.00  0.00    -0.388 A  
HETATM   29  C   UNL     1     -10.039  14.584  64.991  1.00  0.00    -0.325 A  
HETATM   30  C   UNL     1     -10.343  14.658  67.391  1.00  0.00    -0.241 A  
ENDBRANCH   8  24
ENDBRANCH   6   7
TORSDOF 2
ENDMDL
MODEL       56
REMARK 921   NORMALIZED FREE ENERGY PREDICTED BY IDOCK:   -6.06 KCAL/MOL
REMARK 922        TOTAL FREE ENERGY PREDICTED BY IDOCK:   -7.45 KCAL/MOL
REMARK 923 INTER-LIGAND FREE ENERGY PREDICTED BY IDOCK:   -6.50 KCAL/MOL
REMARK 924 INTRA-LIGAND FREE ENERGY PREDICTED BY IDOCK:   -0.95 KCAL/MOL
REMARK 927      BINDING AFFINITY PREDICTED BY RF-SCORE:    0.00 PKD
ROOT
HETATM    1  C   UNL     1      -9.000   7.596  74.051  1.00  0.00    -0.245 C  
HETATM    2  N   UNL     1      -9.919   6.684  73.417  1.00  0.00    -0.190 NA 
HETATM    3  N   UNL     1     -10.428   5.662  74.130  1.00  0.00    -0.276 NA 
HETATM    4  C   UNL     1     -11.193   5.053  73.226  1.00  0.00    -0.338 A  
HETATM    5  N   UNL     1     -11.151   5.596  71.978  1.00  0.00    -0.250 NA 
HETATM    6  C   UNL     1     -10.359   6.645  72.116  1.00  0.00    -0.200 A  
ENDROOT
BRANCH   6   7
HETATM    7  C   UNL     1     -10.000   7.605  71.007  1.00  0.00    -0.188 C  
HETATM    8  C   UNL     1     -11.259   8.040  70.223  1.00  0.00    -0.190 C  
HETATM    9  N   UNL     1     -11.080   8.189  68.779  1.00  0.00    -0.376 NA 
HETATM   10  C   UNL     1      -9.833   8.075  66.733  1.00  0.00    -0.327 A  
HETATM   11  H   UNL     1     -11.847   8.589  68.239  1.00  0.00     0.000 HD 
HETATM   12  C   UNL     1      -9.939   7.821  68.105  1.00  0.00    -0.178 A  
HETATM   13  F   UNL     1      -8.584   8.049  64.730  1.00  0.00    -0.149 F  
HETATM   14  C   UNL     1      -8.821   7.292  68.747  1.00  0.00    -0.127 A  
HETATM   15  C   UNL     1      -8.660   7.775  66.037  1.00  0.00    -0.151 A  
HETATM   16  C   UNL     1      -7.573   7.203  66.677  1.00  0.00    -0.093 A  
HETATM   17  C   UNL     1      -8.825   7.087  70.198  1.00  0.00    -0.145 C  
HETATM   18  C   UNL     1      -7.665   6.954  68.046  1.00  0.00    -0.113 A  
HETATM   19  N   UNL     1      -7.823   6.544  70.831  1.00  0.00    -0.105 NA 
HETATM   20  O   UNL     1      -5.531   5.983  68.191  1.00  0.00    -0.004 OA 
HETATM   21  H   UNL     1      -6.007   5.645  70.623  1.00  0.00     0.000 HD 
HETATM   22  N   UNL     1      -6.743   6.136  70.115  1.00  0.00    -0.048 N  
HETATM   23  C   UNL     1      -6.552   6.327  68.768  1.00  0.00    -0.055 C  
BRANCH   8  24
HETATM   24  C   UNL     1     -11.743   9.377  70.798  1.00  0.00    -0.349 A  
HETATM   25  C   UNL     1     -11.951  11.786  70.529  1.00  0.00    -0.383 A  
HETATM   26  F   UNL     1     -13.589  12.949  71.764  1.00  0.00    -0.469 F  
HETATM   27  C   UNL     1     -12.959  11.800  71.485  1.00  0.00    -0.341 A  
HETATM   28  C   UNL     1     -13.342  10.636  72.137  1.00  0.00    -0.335 A  
HETATM   29  C   UNL     1     -12.736   9.426  71.794  1.00  0.00    -0.476 A  
HETATM   30  C   UNL     1     -11.334  10.580  70.195  1.00  0.00    -0.400 A  
ENDBRANCH   8  24
ENDBRANCH   6   7
TORSDOF 2
ENDMDL
MODEL       57
REMARK 921   NORMALIZED FREE ENERGY PREDICTED BY IDOCK:   -6.06 KCAL/MOL
REMARK 922        TOTAL FREE ENERGY PREDICTED BY IDOCK:   -7.44 KCAL/MOL
REMARK 923 INTER-LIGAND FREE ENERGY PREDICTED BY IDOCK:   -6.65 KCAL/MOL
REMARK 924 INTRA-LIGAND FREE ENERGY PREDICTED BY IDOCK:   -0.79 KCAL/MOL
REMARK 927      BINDING AFFINITY PREDICTED BY RF-SCORE:    0.00 PKD
ROOT
HETATM    1  C   UNL     1      -7.951  11.337  69.423  1.00  0.00     0.192 C  
HETATM    2  N   UNL     1      -7.090  12.093  68.549  1.00  0.00    -0.092 NA 
HETATM    3  N   UNL     1      -5.929  11.549  68.138  1.00  0.00    -0.045 NA 
HETATM    4  C   UNL     1      -5.422  12.525  67.387  1.00  0.00    -0.097 A  
HETATM    5  N   UNL     1      -6.164  13.666  67.347  1.00  0.00    -0.321 NA 
HETATM    6  C   UNL     1      -7.232  13.373  68.068  1.00  0.00    -0.123 A  
ENDROOT
BRANCH   6   7
HETATM    7  C   UNL     1      -8.386  14.314  68.320  1.00  0.00    -0.165 C  
HETATM    8  C   UNL     1      -9.512  14.099  67.284  1.00  0.00    -0.229 C  
HETATM    9  N   UNL     1     -10.188  15.313  66.829  1.00  0.00    -0.266 NA 
HETATM   10  C   UNL     1     -10.535  17.685  66.729  1.00  0.00    -0.289 A  
HETATM   11  H   UNL     1     -11.014  15.211  66.239  1.00  0.00     0.000 HD 
HETATM   12  C   UNL     1      -9.776  16.586  67.148  1.00  0.00    -0.245 A  
HETATM   13  F   UNL     1     -10.937  20.011  66.695  1.00  0.00    -0.555 F  
HETATM   14  C   UNL     1      -8.679  16.841  67.969  1.00  0.00    -0.212 A  
HETATM   15  C   UNL     1     -10.179  18.984  67.096  1.00  0.00    -0.388 A  
HETATM   16  C   UNL     1      -9.057  19.228  67.872  1.00  0.00    -0.363 A  
HETATM   17  C   UNL     1      -7.894  15.734  68.524  1.00  0.00    -0.139 C  
HETATM   18  C   UNL     1      -8.300  18.140  68.303  1.00  0.00    -0.301 A  
HETATM   19  N   UNL     1      -6.829  15.928  69.250  1.00  0.00    -0.177 NA 
HETATM   20  O   UNL     1      -6.698  19.464  69.396  1.00  0.00    -0.313 OA 
HETATM   21  H   UNL     1      -5.545  17.325  69.991  1.00  0.00     0.000 HD 
HETATM   22  N   UNL     1      -6.423  17.203  69.486  1.00  0.00    -0.233 N  
HETATM   23  C   UNL     1      -7.089  18.343  69.106  1.00  0.00    -0.200 C  
BRANCH   8  24
HETATM   24  C   UNL     1     -10.555  13.157  67.898  1.00  0.00    -0.243 A  
HETATM   25  C   UNL     1     -11.517  10.924  67.995  1.00  0.00    -0.356 A  
HETATM   26  F   UNL     1     -12.741  10.276  69.904  1.00  0.00    -0.253 F  
HETATM   27  C   UNL     1     -12.072  11.224  69.232  1.00  0.00    -0.303 A  
HETATM   28  C   UNL     1     -11.923  12.482  69.797  1.00  0.00    -0.359 A  
HETATM   29  C   UNL     1     -11.166  13.448  69.132  1.00  0.00    -0.300 A  
HETATM   30  C   UNL     1     -10.771  11.892  67.321  1.00  0.00    -0.276 A  
ENDBRANCH   8  24
ENDBRANCH   6   7
TORSDOF 2
ENDMDL
MODEL       58
REMARK 921   NORMALIZED FREE ENERGY PREDICTED BY IDOCK:   -6.03 KCAL/MOL
REMARK 922        TOTAL FREE ENERGY PREDICTED BY IDOCK:   -7.42 KCAL/MOL
REMARK 923 INTER-LIGAND FREE ENERGY PREDICTED BY IDOCK:   -6.43 KCAL/MOL
REMARK 924 INTRA-LIGAND FREE ENERGY PREDICTED BY IDOCK:   -0.98 KCAL/MOL
REMARK 927      BINDING AFFINITY PREDICTED BY RF-SCORE:    0.00 PKD
ROOT
HETATM    1  C   UNL     1      -9.247   8.918  71.435  1.00  0.00    -0.258 C  
HETATM    2  N   UNL     1     -10.509   8.238  71.289  1.00  0.00    -0.205 NA 
HETATM    3  N   UNL     1     -11.435   8.351  72.261  1.00  0.00    -0.368 NA 
HETATM    4  C   UNL     1     -12.421   7.592  71.788  1.00  0.00    -0.330 A  
HETATM    5  N   UNL     1     -12.150   6.965  70.610  1.00  0.00    -0.358 NA 
HETATM    6  C   UNL     1     -10.944   7.401  70.290  1.00  0.00    -0.255 A  
ENDROOT
BRANCH   6   7
HETATM    7  C   UNL     1     -10.190   7.009  69.041  1.00  0.00    -0.191 C  
HETATM    8  C   UNL     1     -10.997   7.368  67.773  1.00  0.00    -0.029 C  
HETATM    9  N   UNL     1     -10.912   6.400  66.679  1.00  0.00    -0.671 NA 
HETATM   10  C   UNL     1     -10.205   4.346  65.661  1.00  0.00    -0.259 A  
HETATM   11  H   UNL     1     -11.327   6.652  65.783  1.00  0.00     0.000 HD 
HETATM   12  C   UNL     1     -10.304   5.171  66.788  1.00  0.00    -0.261 A  
HETATM   13  F   UNL     1      -9.440   2.368  64.626  1.00  0.00    -0.136 F  
HETATM   14  C   UNL     1      -9.681   4.738  67.956  1.00  0.00    -0.202 A  
HETATM   15  C   UNL     1      -9.535   3.123  65.726  1.00  0.00    -0.052 A  
HETATM   16  C   UNL     1      -8.961   2.681  66.907  1.00  0.00    -0.164 A  
HETATM   17  C   UNL     1      -9.661   5.591  69.148  1.00  0.00    -0.155 C  
HETATM   18  C   UNL     1      -9.046   3.500  68.032  1.00  0.00    -0.202 A  
HETATM   19  N   UNL     1      -9.138   5.203  70.277  1.00  0.00    -0.122 NA 
HETATM   20  O   UNL     1      -7.940   1.978  69.439  1.00  0.00    -0.045 OA 
HETATM   21  H   UNL     1      -8.275   3.649  71.271  1.00  0.00     0.000 HD 
HETATM   22  N   UNL     1      -8.607   3.955  70.356  1.00  0.00    -0.070 N  
HETATM   23  C   UNL     1      -8.477   3.069  69.315  1.00  0.00    -0.063 C  
BRANCH   8  24
HETATM   24  C   UNL     1     -10.508   8.729  67.263  1.00  0.00    -0.353 A  
HETATM   25  C   UNL     1      -9.451  10.010  65.485  1.00  0.00    -0.296 A  
HETATM   26  F   UNL     1      -9.797  12.340  65.377  1.00  0.00    -0.248 F  
HETATM   27  C   UNL     1      -9.988  11.177  66.014  1.00  0.00    -0.236 A  
HETATM   28  C   UNL     1     -10.742  11.153  67.179  1.00  0.00    -0.305 A  
HETATM   29  C   UNL     1     -11.003   9.932  67.803  1.00  0.00    -0.278 A  
HETATM   30  C   UNL     1      -9.699   8.789  66.114  1.00  0.00    -0.320 A  
ENDBRANCH   8  24
ENDBRANCH   6   7
TORSDOF 2
ENDMDL
MODEL       59
REMARK 921   NORMALIZED FREE ENERGY PREDICTED BY IDOCK:   -6.02 KCAL/MOL
REMARK 922        TOTAL FREE ENERGY PREDICTED BY IDOCK:   -7.40 KCAL/MOL
REMARK 923 INTER-LIGAND FREE ENERGY PREDICTED BY IDOCK:   -6.82 KCAL/MOL
REMARK 924 INTRA-LIGAND FREE ENERGY PREDICTED BY IDOCK:   -0.59 KCAL/MOL
REMARK 927      BINDING AFFINITY PREDICTED BY RF-SCORE:    0.00 PKD
ROOT
HETATM    1  C   UNL     1      -7.561   8.902  65.902  1.00  0.00    -0.093 C  
HETATM    2  N   UNL     1      -8.573   9.663  65.215  1.00  0.00    -0.143 NA 
HETATM    3  N   UNL     1      -8.430   9.910  63.899  1.00  0.00    -0.165 NA 
HETATM    4  C   UNL     1      -9.519  10.631  63.638  1.00  0.00    -0.299 A  
HETATM    5  N   UNL     1     -10.306  10.897  64.716  1.00  0.00    -0.324 NA 
HETATM    6  C   UNL     1      -9.709  10.258  65.708  1.00  0.00    -0.238 A  
ENDROOT
BRANCH   6   7
HETATM    7  C   UNL     1     -10.206  10.225  67.133  1.00  0.00    -0.277 C  
HETATM    8  C   UNL     1      -9.492  11.293  67.993  1.00  0.00    -0.173 C  
HETATM    9  N   UNL     1      -9.175  10.888  69.362  1.00  0.00    -0.406 NA 
HETATM   10  C   UNL     1      -9.076   9.337  71.190  1.00  0.00    -0.197 A  
HETATM   11  H   UNL     1      -8.815  11.597  70.001  1.00  0.00     0.000 HD 
HETATM   12  C   UNL     1      -9.334   9.609  69.841  1.00  0.00    -0.228 A  
HETATM   13  F   UNL     1      -9.056   7.842  73.016  1.00  0.00    -0.197 F  
HETATM   14  C   UNL     1      -9.844   8.571  69.064  1.00  0.00    -0.184 A  
HETATM   15  C   UNL     1      -9.293   8.063  71.718  1.00  0.00    -0.165 A  
HETATM   16  C   UNL     1      -9.755   7.026  70.923  1.00  0.00    -0.176 A  
HETATM   17  C   UNL     1     -10.227   8.805  67.669  1.00  0.00    -0.239 C  
HETATM   18  C   UNL     1     -10.023   7.289  69.581  1.00  0.00    -0.176 A  
HETATM   19  N   UNL     1     -10.656   7.851  66.892  1.00  0.00    -0.331 NA 
HETATM   20  O   UNL     1     -10.631   5.074  69.089  1.00  0.00    -0.121 OA 
HETATM   21  H   UNL     1     -10.999   5.849  66.739  1.00  0.00     0.000 HD 
HETATM   22  N   UNL     1     -10.734   6.589  67.389  1.00  0.00    -0.294 N  
HETATM   23  C   UNL     1     -10.490   6.221  68.689  1.00  0.00    -0.231 C  
BRANCH   8  24
HETATM   24  C   UNL     1     -10.382  12.541  68.043  1.00  0.00    -0.226 A  
HETATM   25  C   UNL     1     -11.971  13.895  69.293  1.00  0.00    -0.402 A  
HETATM   26  F   UNL     1     -12.257  16.164  68.718  1.00  0.00    -0.322 F  
HETATM   27  C   UNL     1     -11.686  14.978  68.471  1.00  0.00    -0.320 A  
HETATM   28  C   UNL     1     -10.797  14.857  67.412  1.00  0.00    -0.304 A  
HETATM   29  C   UNL     1     -10.145  13.642  67.198  1.00  0.00    -0.245 A  
HETATM   30  C   UNL     1     -11.331  12.675  69.073  1.00  0.00    -0.345 A  
ENDBRANCH   8  24
ENDBRANCH   6   7
TORSDOF 2
ENDMDL
MODEL       60
REMARK 921   NORMALIZED FREE ENERGY PREDICTED BY IDOCK:   -5.93 KCAL/MOL
REMARK 922        TOTAL FREE ENERGY PREDICTED BY IDOCK:   -7.30 KCAL/MOL
REMARK 923 INTER-LIGAND FREE ENERGY PREDICTED BY IDOCK:   -6.68 KCAL/MOL
REMARK 924 INTRA-LIGAND FREE ENERGY PREDICTED BY IDOCK:   -0.62 KCAL/MOL
REMARK 927      BINDING AFFINITY PREDICTED BY RF-SCORE:    0.00 PKD
ROOT
HETATM    1  C   UNL     1     -13.210  11.344  71.940  1.00  0.00    -0.380 C  
HETATM    2  N   UNL     1     -13.101   9.937  71.648  1.00  0.00    -0.405 NA 
HETATM    3  N   UNL     1     -14.062   9.099  72.081  1.00  0.00    -0.385 NA 
HETATM    4  C   UNL     1     -13.613   7.923  71.648  1.00  0.00    -0.345 A  
HETATM    5  N   UNL     1     -12.406   7.963  71.021  1.00  0.00    -0.222 NA 
HETATM    6  C   UNL     1     -12.101   9.249  71.005  1.00  0.00    -0.280 A  
ENDROOT
BRANCH   6   7
HETATM    7  C   UNL     1     -10.847   9.829  70.395  1.00  0.00    -0.370 C  
HETATM    8  C   UNL     1     -10.959   9.892  68.855  1.00  0.00    -0.179 C  
HETATM    9  N   UNL     1      -9.731   9.585  68.122  1.00  0.00    -0.144 NA 
HETATM   10  C   UNL     1      -7.433   8.921  67.937  1.00  0.00    -0.092 A  
HETATM   11  H   UNL     1      -9.725   9.731  67.112  1.00  0.00     0.000 HD 
HETATM   12  C   UNL     1      -8.583   9.111  68.713  1.00  0.00    -0.131 A  
HETATM   13  F   UNL     1      -5.149   8.353  67.756  1.00  0.00    -0.030 F  
HETATM   14  C   UNL     1      -8.472   8.903  70.086  1.00  0.00    -0.150 A  
HETATM   15  C   UNL     1      -6.236   8.506  68.522  1.00  0.00    -0.053 A  
HETATM   16  C   UNL     1      -6.151   8.255  69.882  1.00  0.00    -0.032 A  
HETATM   17  C   UNL     1      -9.607   9.174  70.973  1.00  0.00    -0.280 C  
HETATM   18  C   UNL     1      -7.287   8.450  70.664  1.00  0.00    -0.056 A  
HETATM   19  N   UNL     1      -9.564   8.940  72.254  1.00  0.00    -0.300 NA 
HETATM   20  O   UNL     1      -6.254   7.746  72.653  1.00  0.00    -0.056 OA 
HETATM   21  H   UNL     1      -8.451   8.166  73.774  1.00  0.00     0.000 HD 
HETATM   22  N   UNL     1      -8.431   8.411  72.784  1.00  0.00    -0.182 N  
HETATM   23  C   UNL     1      -7.260   8.175  72.106  1.00  0.00    -0.091 C  
BRANCH   8  24
HETATM   24  C   UNL     1     -11.425  11.301  68.465  1.00  0.00    -0.372 A  
HETATM   25  C   UNL     1     -11.608  13.653  69.059  1.00  0.00    -0.356 A  
HETATM   26  F   UNL     1     -11.902  15.255  67.354  1.00  0.00    -0.321 F  
HETATM   27  C   UNL     1     -11.794  13.971  67.720  1.00  0.00    -0.384 A  
HETATM   28  C   UNL     1     -11.844  12.979  66.750  1.00  0.00    -0.451 A  
HETATM   29  C   UNL     1     -11.659  11.646  67.120  1.00  0.00    -0.291 A  
HETATM   30  C   UNL     1     -11.436  12.320  69.434  1.00  0.00    -0.341 A  
ENDBRANCH   8  24
ENDBRANCH   6   7
TORSDOF 2
ENDMDL
MODEL       61
REMARK 921   NORMALIZED FREE ENERGY PREDICTED BY IDOCK:   -5.90 KCAL/MOL
REMARK 922        TOTAL FREE ENERGY PREDICTED BY IDOCK:   -7.27 KCAL/MOL
REMARK 923 INTER-LIGAND FREE ENERGY PREDICTED BY IDOCK:   -6.49 KCAL/MOL
REMARK 924 INTRA-LIGAND FREE ENERGY PREDICTED BY IDOCK:   -0.78 KCAL/MOL
REMARK 927      BINDING AFFINITY PREDICTED BY RF-SCORE:    0.00 PKD
ROOT
HETATM    1  C   UNL     1     -10.077  10.110  65.377  1.00  0.00    -0.272 C  
HETATM    2  N   UNL     1      -9.154   9.268  66.095  1.00  0.00    -0.166 NA 
HETATM    3  N   UNL     1      -8.543   8.258  65.446  1.00  0.00    -0.168 NA 
HETATM    4  C   UNL     1      -7.808   7.716  66.415  1.00  0.00    -0.094 A  
HETATM    5  N   UNL     1      -7.961   8.287  67.642  1.00  0.00    -0.116 NA 
HETATM    6  C   UNL     1      -8.799   9.286  67.422  1.00  0.00    -0.117 A  
ENDROOT
BRANCH   6   7
HETATM    7  C   UNL     1      -9.281  10.253  68.477  1.00  0.00    -0.144 C  
HETATM    8  C   UNL     1     -10.742   9.950  68.878  1.00  0.00    -0.221 C  
HETATM    9  N   UNL     1     -11.579  11.122  69.136  1.00  0.00    -0.294 NA 
HETATM   10  C   UNL     1     -12.027  13.476  69.245  1.00  0.00    -0.378 A  
HETATM   11  H   UNL     1     -12.512  10.970  69.519  1.00  0.00     0.000 HD 
HETATM   12  C   UNL     1     -11.184  12.416  68.893  1.00  0.00    -0.280 A  
HETATM   13  F   UNL     1     -12.446  15.791  69.439  1.00  0.00    -0.327 F  
HETATM   14  C   UNL     1      -9.921  12.739  68.397  1.00  0.00    -0.210 A  
HETATM   15  C   UNL     1     -11.623  14.801  69.072  1.00  0.00    -0.297 A  
HETATM   16  C   UNL     1     -10.385  15.109  68.533  1.00  0.00    -0.230 A  
HETATM   17  C   UNL     1      -8.950  11.684  68.096  1.00  0.00    -0.182 C  
HETATM   18  C   UNL     1      -9.533  14.061  68.187  1.00  0.00    -0.215 A  
HETATM   19  N   UNL     1      -7.780  11.937  67.580  1.00  0.00    -0.141 NA 
HETATM   20  O   UNL     1      -7.849  15.471  67.355  1.00  0.00    -0.152 OA 
HETATM   21  H   UNL     1      -6.569  13.389  66.821  1.00  0.00     0.000 HD 
HETATM   22  N   UNL     1      -7.458  13.226  67.295  1.00  0.00    -0.112 N  
HETATM   23  C   UNL     1      -8.221  14.330  67.589  1.00  0.00    -0.185 C  
BRANCH   8  24
HETATM   24  C   UNL     1     -10.722   9.075  70.138  1.00  0.00    -0.258 A  
HETATM   25  C   UNL     1      -9.619   8.485  72.225  1.00  0.00    -0.377 A  
HETATM   26  F   UNL     1     -10.851   7.389  73.911  1.00  0.00    -0.396 F  
HETATM   27  C   UNL     1     -10.795   7.894  72.671  1.00  0.00    -0.364 A  
HETATM   28  C   UNL     1     -11.921   7.841  71.862  1.00  0.00    -0.340 A  
HETATM   29  C   UNL     1     -11.886   8.430  70.598  1.00  0.00    -0.100 A  
HETATM   30  C   UNL     1      -9.578   9.063  70.955  1.00  0.00    -0.348 A  
ENDBRANCH   8  24
ENDBRANCH   6   7
TORSDOF 2
ENDMDL
MODEL       62
REMARK 921   NORMALIZED FREE ENERGY PREDICTED BY IDOCK:   -5.87 KCAL/MOL
REMARK 922        TOTAL FREE ENERGY PREDICTED BY IDOCK:   -7.24 KCAL/MOL
REMARK 923 INTER-LIGAND FREE ENERGY PREDICTED BY IDOCK:   -6.20 KCAL/MOL
REMARK 924 INTRA-LIGAND FREE ENERGY PREDICTED BY IDOCK:   -1.04 KCAL/MOL
REMARK 927      BINDING AFFINITY PREDICTED BY RF-SCORE:    0.00 PKD
ROOT
HETATM    1  C   UNL     1      -6.229  10.387  70.577  1.00  0.00    -0.113 C  
HETATM    2  N   UNL     1      -6.254   9.987  69.193  1.00  0.00    -0.040 NA 
HETATM    3  N   UNL     1      -5.177   9.376  68.664  1.00  0.00    -0.034 NA 
HETATM    4  C   UNL     1      -5.563   9.186  67.404  1.00  0.00    -0.042 A  
HETATM    5  N   UNL     1      -6.790   9.687  67.096  1.00  0.00    -0.082 NA 
HETATM    6  C   UNL     1      -7.231  10.172  68.244  1.00  0.00    -0.080 A  
ENDROOT
BRANCH   6   7
HETATM    7  C   UNL     1      -8.575  10.830  68.442  1.00  0.00    -0.141 C  
HETATM    8  C   UNL     1      -9.723   9.881  68.029  1.00  0.00    -0.140 C  
HETATM    9  N   UNL     1     -10.854  10.519  67.356  1.00  0.00    -0.286 NA 
HETATM   10  C   UNL     1     -12.027  12.374  66.388  1.00  0.00    -0.346 A  
HETATM   11  H   UNL     1     -11.684   9.954  67.174  1.00  0.00     0.000 HD 
HETATM   12  C   UNL     1     -10.867  11.834  66.954  1.00  0.00    -0.271 A  
HETATM   13  F   UNL     1     -13.222  14.212  65.513  1.00  0.00    -0.555 F  
HETATM   14  C   UNL     1      -9.799  12.701  67.178  1.00  0.00    -0.212 A  
HETATM   15  C   UNL     1     -12.091  13.723  66.033  1.00  0.00    -0.436 A  
HETATM   16  C   UNL     1     -11.005  14.564  66.216  1.00  0.00    -0.323 A  
HETATM   17  C   UNL     1      -8.587  12.229  67.853  1.00  0.00    -0.169 C  
HETATM   18  C   UNL     1      -9.848  14.038  66.788  1.00  0.00    -0.275 A  
HETATM   19  N   UNL     1      -7.545  12.991  68.033  1.00  0.00    -0.124 NA 
HETATM   20  O   UNL     1      -8.644  16.048  66.624  1.00  0.00    -0.223 OA 
HETATM   21  H   UNL     1      -6.723  14.814  67.646  1.00  0.00     0.000 HD 
HETATM   22  N   UNL     1      -7.578  14.264  67.561  1.00  0.00    -0.177 N  
HETATM   23  C   UNL     1      -8.661  14.879  66.981  1.00  0.00    -0.238 C  
BRANCH   8  24
HETATM   24  C   UNL     1     -10.236   9.173  69.288  1.00  0.00    -0.215 A  
HETATM   25  C   UNL     1     -10.373   7.123  70.593  1.00  0.00    -0.217 A  
HETATM   26  F   UNL     1     -10.852   7.253  72.899  1.00  0.00    -0.254 F  
HETATM   27  C   UNL     1     -10.698   7.869  71.719  1.00  0.00    -0.232 A  
HETATM   28  C   UNL     1     -10.842   9.248  71.647  1.00  0.00    -0.418 A  
HETATM   29  C   UNL     1     -10.610   9.899  70.434  1.00  0.00    -0.364 A  
HETATM   30  C   UNL     1     -10.154   7.771  69.377  1.00  0.00    -0.195 A  
ENDBRANCH   8  24
ENDBRANCH   6   7
TORSDOF 2
ENDMDL
MODEL       63
REMARK 921   NORMALIZED FREE ENERGY PREDICTED BY IDOCK:   -5.84 KCAL/MOL
REMARK 922        TOTAL FREE ENERGY PREDICTED BY IDOCK:   -7.20 KCAL/MOL
REMARK 923 INTER-LIGAND FREE ENERGY PREDICTED BY IDOCK:   -6.60 KCAL/MOL
REMARK 924 INTRA-LIGAND FREE ENERGY PREDICTED BY IDOCK:   -0.60 KCAL/MOL
REMARK 927      BINDING AFFINITY PREDICTED BY RF-SCORE:    0.00 PKD
ROOT
HETATM    1  C   UNL     1      -7.184   9.838  70.539  1.00  0.00    -0.120 C  
HETATM    2  N   UNL     1      -8.276   9.182  71.214  1.00  0.00    -0.329 NA 
HETATM    3  N   UNL     1      -8.093   8.721  72.466  1.00  0.00    -0.388 NA 
HETATM    4  C   UNL     1      -9.281   8.181  72.733  1.00  0.00    -0.271 A  
HETATM    5  N   UNL     1     -10.176   8.224  71.709  1.00  0.00    -0.210 NA 
HETATM    6  C   UNL     1      -9.537   8.883  70.758  1.00  0.00    -0.229 A  
ENDROOT
BRANCH   6   7
HETATM    7  C   UNL     1     -10.115   9.215  69.403  1.00  0.00    -0.198 C  
HETATM    8  C   UNL     1      -9.115   8.872  68.276  1.00  0.00    -0.140 C  
HETATM    9  N   UNL     1      -9.080   9.815  67.158  1.00  0.00    -0.134 NA 
HETATM   10  C   UNL     1      -9.717  11.815  65.996  1.00  0.00    -0.254 A  
HETATM   11  H   UNL     1      -8.525   9.567  66.339  1.00  0.00     0.000 HD 
HETATM   12  C   UNL     1      -9.750  11.015  67.145  1.00  0.00    -0.174 A  
HETATM   13  F   UNL     1     -10.406  13.735  64.810  1.00  0.00    -0.367 F  
HETATM   14  C   UNL     1     -10.558  11.440  68.199  1.00  0.00    -0.220 A  
HETATM   15  C   UNL     1     -10.443  13.005  65.931  1.00  0.00    -0.281 A  
HETATM   16  C   UNL     1     -11.203  13.441  67.004  1.00  0.00    -0.328 A  
HETATM   17  C   UNL     1     -10.715  10.609  69.395  1.00  0.00    -0.244 C  
HETATM   18  C   UNL     1     -11.250  12.648  68.149  1.00  0.00    -0.311 A  
HETATM   19  N   UNL     1     -11.416  10.992  70.425  1.00  0.00    -0.279 NA 
HETATM   20  O   UNL     1     -12.617  14.142  69.340  1.00  0.00    -0.192 OA 
HETATM   21  H   UNL     1     -12.484  12.523  71.242  1.00  0.00     0.000 HD 
HETATM   22  N   UNL     1     -12.007  12.215  70.394  1.00  0.00    -0.326 N  
HETATM   23  C   UNL     1     -12.020  13.075  69.323  1.00  0.00    -0.278 C  
BRANCH   8  24
HETATM   24  C   UNL     1      -9.463   7.480  67.734  1.00  0.00    -0.157 A  
HETATM   25  C   UNL     1     -11.123   6.009  66.734  1.00  0.00    -0.201 A  
HETATM   26  F   UNL     1     -10.411   4.090  65.565  1.00  0.00    -0.200 F  
HETATM   27  C   UNL     1     -10.108   5.163  66.308  1.00  0.00    -0.231 A  
HETATM   28  C   UNL     1      -8.781   5.425  66.617  1.00  0.00    -0.115 A  
HETATM   29  C   UNL     1      -8.458   6.582  67.328  1.00  0.00    -0.112 A  
HETATM   30  C   UNL     1     -10.804   7.159  67.457  1.00  0.00    -0.311 A  
ENDBRANCH   8  24
ENDBRANCH   6   7
TORSDOF 2
ENDMDL
MODEL       64
REMARK 921   NORMALIZED FREE ENERGY PREDICTED BY IDOCK:   -5.81 KCAL/MOL
REMARK 922        TOTAL FREE ENERGY PREDICTED BY IDOCK:   -7.17 KCAL/MOL
REMARK 923 INTER-LIGAND FREE ENERGY PREDICTED BY IDOCK:   -6.43 KCAL/MOL
REMARK 924 INTRA-LIGAND FREE ENERGY PREDICTED BY IDOCK:   -0.74 KCAL/MOL
REMARK 927      BINDING AFFINITY PREDICTED BY RF-SCORE:    0.00 PKD
ROOT
HETATM    1  C   UNL     1      -8.886  10.911  64.967  1.00  0.00    -0.139 C  
HETATM    2  N   UNL     1     -10.217  11.452  65.073  1.00  0.00    -0.265 NA 
HETATM    3  N   UNL     1     -10.802  11.981  63.981  1.00  0.00    -0.340 NA 
HETATM    4  C   UNL     1     -11.976  12.379  64.467  1.00  0.00    -0.402 A  
HETATM    5  N   UNL     1     -12.143  12.184  65.803  1.00  0.00    -0.554 NA 
HETATM    6  C   UNL     1     -11.031  11.572  66.174  1.00  0.00    -0.266 A  
ENDROOT
BRANCH   6   7
HETATM    7  C   UNL     1     -10.727  11.117  67.581  1.00  0.00    -0.273 C  
HETATM    8  C   UNL     1      -9.771  12.104  68.289  1.00  0.00    -0.216 C  
HETATM    9  N   UNL     1      -8.766  11.493  69.158  1.00  0.00    -0.364 NA 
HETATM   10  C   UNL     1      -7.614   9.644  70.163  1.00  0.00    -0.165 A  
HETATM   11  H   UNL     1      -8.195  12.109  69.737  1.00  0.00     0.000 HD 
HETATM   12  C   UNL     1      -8.547  10.139  69.243  1.00  0.00    -0.174 A  
HETATM   13  F   UNL     1      -6.536   7.831  71.222  1.00  0.00    -0.038 F  
HETATM   14  C   UNL     1      -9.288   9.207  68.519  1.00  0.00    -0.137 A  
HETATM   15  C   UNL     1      -7.420   8.271  70.318  1.00  0.00    -0.066 A  
HETATM   16  C   UNL     1      -8.129   7.356  69.557  1.00  0.00    -0.129 A  
HETATM   17  C   UNL     1     -10.347   9.648  67.607  1.00  0.00    -0.237 C  
HETATM   18  C   UNL     1      -9.066   7.837  68.645  1.00  0.00    -0.136 A  
HETATM   19  N   UNL     1     -11.027   8.814  66.870  1.00  0.00     0.096 NA 
HETATM   20  O   UNL     1      -9.643   5.705  67.846  1.00  0.00    -0.114 OA 
HETATM   21  H   UNL     1     -11.223   6.870  66.296  1.00  0.00     0.000 HD 
HETATM   22  N   UNL     1     -10.730   7.491  66.939  1.00  0.00    -0.328 N  
HETATM   23  C   UNL     1      -9.826   6.912  67.796  1.00  0.00    -0.136 C  
BRANCH   8  24
HETATM   24  C   UNL     1     -10.617  13.076  69.121  1.00  0.00     0.005 A  
HETATM   25  C   UNL     1     -11.382  15.356  69.487  1.00  0.00    -0.308 A  
HETATM   26  F   UNL     1     -13.358  15.728  70.719  1.00  0.00    -0.534 F  
HETATM   27  C   UNL     1     -12.444  14.873  70.241  1.00  0.00    -0.336 A  
HETATM   28  C   UNL     1     -12.587  13.515  70.485  1.00  0.00    -0.311 A  
HETATM   29  C   UNL     1     -11.677  12.617  69.927  1.00  0.00    -0.320 A  
HETATM   30  C   UNL     1     -10.462  14.462  68.938  1.00  0.00    -0.246 A  
ENDBRANCH   8  24
ENDBRANCH   6   7
TORSDOF 2
ENDMDL
MODEL       65
REMARK 921   NORMALIZED FREE ENERGY PREDICTED BY IDOCK:   -5.80 KCAL/MOL
REMARK 922        TOTAL FREE ENERGY PREDICTED BY IDOCK:   -7.16 KCAL/MOL
REMARK 923 INTER-LIGAND FREE ENERGY PREDICTED BY IDOCK:   -6.30 KCAL/MOL
REMARK 924 INTRA-LIGAND FREE ENERGY PREDICTED BY IDOCK:   -0.86 KCAL/MOL
REMARK 927      BINDING AFFINITY PREDICTED BY RF-SCORE:    0.00 PKD
ROOT
HETATM    1  C   UNL     1      -9.493   5.062  72.825  1.00  0.00    -0.139 C  
HETATM    2  N   UNL     1      -8.986   6.367  73.167  1.00  0.00    -0.129 NA 
HETATM    3  N   UNL     1      -8.548   6.595  74.419  1.00  0.00    -0.143 NA 
HETATM    4  C   UNL     1      -8.190   7.876  74.353  1.00  0.00    -0.236 A  
HETATM    5  N   UNL     1      -8.427   8.479  73.156  1.00  0.00    -0.389 NA 
HETATM    6  C   UNL     1      -8.910   7.507  72.403  1.00  0.00    -0.127 A  
ENDROOT
BRANCH   6   7
HETATM    7  C   UNL     1      -9.320   7.659  70.957  1.00  0.00    -0.156 C  
HETATM    8  C   UNL     1     -10.832   7.389  70.780  1.00  0.00    -0.241 C  
HETATM    9  N   UNL     1     -11.203   6.675  69.559  1.00  0.00    -0.471 NA 
HETATM   10  C   UNL     1     -10.747   5.525  67.503  1.00  0.00    -0.211 A  
HETATM   11  H   UNL     1     -12.195   6.581  69.341  1.00  0.00     0.000 HD 
HETATM   12  C   UNL     1     -10.296   6.122  68.687  1.00  0.00    -0.206 A  
HETATM   13  F   UNL     1     -10.308   4.471  65.438  1.00  0.00    -0.221 F  
HETATM   14  C   UNL     1      -8.918   6.216  68.872  1.00  0.00    -0.124 A  
HETATM   15  C   UNL     1      -9.844   5.016  66.568  1.00  0.00    -0.199 A  
HETATM   16  C   UNL     1      -8.477   5.071  66.788  1.00  0.00    -0.106 A  
HETATM   17  C   UNL     1      -8.371   6.911  70.041  1.00  0.00    -0.139 C  
HETATM   18  C   UNL     1      -8.017   5.672  67.958  1.00  0.00    -0.097 A  
HETATM   19  N   UNL     1      -7.091   6.974  70.282  1.00  0.00    -0.065 NA 
HETATM   20  O   UNL     1      -5.754   5.243  67.497  1.00  0.00    -0.012 OA 
HETATM   21  H   UNL     1      -5.247   6.355  69.680  1.00  0.00     0.000 HD 
HETATM   22  N   UNL     1      -6.235   6.356  69.427  1.00  0.00    -0.032 N  
HETATM   23  C   UNL     1      -6.580   5.735  68.252  1.00  0.00    -0.052 C  
BRANCH   8  24
HETATM   24  C   UNL     1     -11.565   8.736  70.804  1.00  0.00    -0.288 A  
HETATM   25  C   UNL     1     -13.022  10.273  72.003  1.00  0.00    -0.503 A  
HETATM   26  F   UNL     1     -13.011  12.560  71.428  1.00  0.00    -0.441 F  
HETATM   27  C   UNL     1     -12.578  11.313  71.196  1.00  0.00    -0.397 A  
HETATM   28  C   UNL     1     -11.674  11.086  70.169  1.00  0.00    -0.442 A  
HETATM   29  C   UNL     1     -11.167   9.800  69.973  1.00  0.00    -0.297 A  
HETATM   30  C   UNL     1     -12.527   8.984  71.800  1.00  0.00    -0.438 A  
ENDBRANCH   8  24
ENDBRANCH   6   7
TORSDOF 2
ENDMDL
MODEL       66
REMARK 921   NORMALIZED FREE ENERGY PREDICTED BY IDOCK:   -5.77 KCAL/MOL
REMARK 922        TOTAL FREE ENERGY PREDICTED BY IDOCK:   -7.12 KCAL/MOL
REMARK 923 INTER-LIGAND FREE ENERGY PREDICTED BY IDOCK:   -6.10 KCAL/MOL
REMARK 924 INTRA-LIGAND FREE ENERGY PREDICTED BY IDOCK:   -1.02 KCAL/MOL
REMARK 927      BINDING AFFINITY PREDICTED BY RF-SCORE:    0.00 PKD
ROOT
HETATM    1  C   UNL     1      -8.858  12.681  67.832  1.00  0.00    -0.182 C  
HETATM    2  N   UNL     1     -10.126  12.275  68.382  1.00  0.00    -0.218 NA 
HETATM    3  N   UNL     1     -11.007  13.216  68.771  1.00  0.00    -0.258 NA 
HETATM    4  C   UNL     1     -12.015  12.475  69.227  1.00  0.00    -0.250 A  
HETATM    5  N   UNL     1     -11.799  11.131  69.200  1.00  0.00    -0.328 NA 
HETATM    6  C   UNL     1     -10.608  11.014  68.640  1.00  0.00    -0.196 A  
ENDROOT
BRANCH   6   7
HETATM    7  C   UNL     1      -9.912   9.703  68.364  1.00  0.00    -0.178 C  
HETATM    8  C   UNL     1     -10.593   8.949  67.199  1.00  0.00    -0.231 C  
HETATM    9  N   UNL     1     -10.672   7.497  67.351  1.00  0.00    -0.457 NA 
HETATM   10  C   UNL     1     -10.361   5.426  68.522  1.00  0.00    -0.219 A  
HETATM   11  H   UNL     1     -11.003   6.948  66.557  1.00  0.00     0.000 HD 
HETATM   12  C   UNL     1     -10.326   6.825  68.500  1.00  0.00    -0.190 A  
HETATM   13  F   UNL     1      -9.978   3.378  69.632  1.00  0.00    -0.210 F  
HETATM   14  C   UNL     1      -9.835   7.471  69.633  1.00  0.00    -0.180 A  
HETATM   15  C   UNL     1      -9.951   4.716  69.651  1.00  0.00    -0.211 A  
HETATM   16  C   UNL     1      -9.512   5.372  70.790  1.00  0.00    -0.215 A  
HETATM   17  C   UNL     1      -9.680   8.929  69.648  1.00  0.00    -0.174 C  
HETATM   18  C   UNL     1      -9.464   6.765  70.775  1.00  0.00    -0.167 A  
HETATM   19  N   UNL     1      -9.278   9.578  70.704  1.00  0.00    -0.231 NA 
HETATM   20  O   UNL     1      -8.725   6.938  72.998  1.00  0.00    -0.119 OA 
HETATM   21  H   UNL     1      -8.772   9.417  72.671  1.00  0.00     0.000 HD 
HETATM   22  N   UNL     1      -9.010   8.878  71.837  1.00  0.00    -0.168 N  
HETATM   23  C   UNL     1      -9.030   7.511  71.962  1.00  0.00    -0.125 C  
BRANCH   8  24
HETATM   24  C   UNL     1      -9.828   9.268  65.909  1.00  0.00    -0.335 A  
HETATM   25  C   UNL     1      -9.427  10.815  64.075  1.00  0.00    -0.312 A  
HETATM   26  F   UNL     1      -7.403  10.681  62.872  1.00  0.00    -0.144 F  
HETATM   27  C   UNL     1      -8.210  10.195  63.825  1.00  0.00    -0.163 A  
HETATM   28  C   UNL     1      -7.804   9.093  64.564  1.00  0.00    -0.120 A  
HETATM   29  C   UNL     1      -8.610   8.630  65.605  1.00  0.00    -0.191 A  
HETATM   30  C   UNL     1     -10.242  10.346  65.106  1.00  0.00    -0.326 A  
ENDBRANCH   8  24
ENDBRANCH   6   7
TORSDOF 2
ENDMDL
MODEL       67
REMARK 921   NORMALIZED FREE ENERGY PREDICTED BY IDOCK:   -5.77 KCAL/MOL
REMARK 922        TOTAL FREE ENERGY PREDICTED BY IDOCK:   -7.12 KCAL/MOL
REMARK 923 INTER-LIGAND FREE ENERGY PREDICTED BY IDOCK:   -6.13 KCAL/MOL
REMARK 924 INTRA-LIGAND FREE ENERGY PREDICTED BY IDOCK:   -0.99 KCAL/MOL
REMARK 927      BINDING AFFINITY PREDICTED BY RF-SCORE:    0.00 PKD
ROOT
HETATM    1  C   UNL     1      -8.854   5.801  67.202  1.00  0.00    -0.107 C  
HETATM    2  N   UNL     1      -8.141   6.443  68.277  1.00  0.00    -0.112 NA 
HETATM    3  N   UNL     1      -7.019   5.873  68.756  1.00  0.00    -0.069 NA 
HETATM    4  C   UNL     1      -6.671   6.722  69.720  1.00  0.00    -0.050 A  
HETATM    5  N   UNL     1      -7.533   7.758  69.914  1.00  0.00    -0.080 NA 
HETATM    6  C   UNL     1      -8.450   7.585  68.977  1.00  0.00    -0.133 A  
ENDROOT
BRANCH   6   7
HETATM    7  C   UNL     1      -9.635   8.493  68.754  1.00  0.00    -0.150 C  
HETATM    8  C   UNL     1      -9.177   9.902  68.314  1.00  0.00    -0.129 C  
HETATM    9  N   UNL     1      -9.953  11.015  68.862  1.00  0.00    -0.230 NA 
HETATM   10  C   UNL     1     -11.665  11.988  70.232  1.00  0.00    -0.267 A  
HETATM   11  H   UNL     1      -9.764  11.952  68.506  1.00  0.00     0.000 HD 
HETATM   12  C   UNL     1     -10.922  10.873  69.827  1.00  0.00    -0.226 A  
HETATM   13  F   UNL     1     -13.404  12.944  71.509  1.00  0.00    -0.435 F  
HETATM   14  C   UNL     1     -11.279   9.636  70.361  1.00  0.00    -0.342 A  
HETATM   15  C   UNL     1     -12.700  11.861  71.160  1.00  0.00    -0.284 A  
HETATM   16  C   UNL     1     -13.013  10.634  71.721  1.00  0.00    -0.577 A  
HETATM   17  C   UNL     1     -10.609   8.412  69.914  1.00  0.00    -0.228 C  
HETATM   18  C   UNL     1     -12.285   9.515  71.318  1.00  0.00    -0.433 A  
HETATM   19  N   UNL     1     -10.873   7.243  70.427  1.00  0.00    -0.240 NA 
HETATM   20  O   UNL     1     -13.409   8.045  72.764  1.00  0.00     0.154 OA 
HETATM   21  H   UNL     1     -11.923   6.247  71.861  1.00  0.00     0.000 HD 
HETATM   22  N   UNL     1     -11.791   7.161  71.425  1.00  0.00    -0.290 N  
HETATM   23  C   UNL     1     -12.559   8.196  71.899  1.00  0.00    -0.335 C  
BRANCH   8  24
HETATM   24  C   UNL     1      -9.235   9.970  66.783  1.00  0.00    -0.173 A  
HETATM   25  C   UNL     1     -10.207  10.983  64.796  1.00  0.00    -0.381 A  
HETATM   26  F   UNL     1      -9.042  10.861  62.750  1.00  0.00    -0.213 F  
HETATM   27  C   UNL     1      -9.128  10.533  64.046  1.00  0.00    -0.231 A  
HETATM   28  C   UNL     1      -8.125   9.769  64.624  1.00  0.00    -0.148 A  
HETATM   29  C   UNL     1      -8.176   9.488  65.990  1.00  0.00    -0.115 A  
HETATM   30  C   UNL     1     -10.268  10.692  66.160  1.00  0.00    -0.308 A  
ENDBRANCH   8  24
ENDBRANCH   6   7
TORSDOF 2
ENDMDL
MODEL       68
REMARK 921   NORMALIZED FREE ENERGY PREDICTED BY IDOCK:   -5.73 KCAL/MOL
REMARK 922        TOTAL FREE ENERGY PREDICTED BY IDOCK:   -7.07 KCAL/MOL
REMARK 923 INTER-LIGAND FREE ENERGY PREDICTED BY IDOCK:   -6.04 KCAL/MOL
REMARK 924 INTRA-LIGAND FREE ENERGY PREDICTED BY IDOCK:   -1.03 KCAL/MOL
REMARK 927      BINDING AFFINITY PREDICTED BY RF-SCORE:    0.00 PKD
ROOT
HETATM    1  C   UNL     1     -10.022   4.681  70.674  1.00  0.00    -0.223 C  
HETATM    2  N   UNL     1      -9.038   5.718  70.861  1.00  0.00    -0.144 NA 
HETATM    3  N   UNL     1      -8.094   5.567  71.809  1.00  0.00    -0.116 NA 
HETATM    4  C   UNL     1      -7.407   6.702  71.692  1.00  0.00    -0.087 A  
HETATM    5  N   UNL     1      -7.894   7.577  70.771  1.00  0.00    -0.096 NA 
HETATM    6  C   UNL     1      -8.914   6.933  70.231  1.00  0.00    -0.152 A  
ENDROOT
BRANCH   6   7
HETATM    7  C   UNL     1      -9.790   7.477  69.127  1.00  0.00    -0.170 C  
HETATM    8  C   UNL     1      -8.999   7.605  67.806  1.00  0.00    -0.131 C  
HETATM    9  N   UNL     1      -9.313   8.782  66.997  1.00  0.00    -0.150 NA 
HETATM   10  C   UNL     1     -10.429  10.857  66.541  1.00  0.00    -0.308 A  
HETATM   11  H   UNL     1      -8.905   8.846  66.064  1.00  0.00     0.000 HD 
HETATM   12  C   UNL     1     -10.125   9.809  67.419  1.00  0.00    -0.208 A  
HETATM   13  F   UNL     1     -11.589  12.852  66.049  1.00  0.00    -0.331 F  
HETATM   14  C   UNL     1     -10.755   9.810  68.662  1.00  0.00    -0.247 A  
HETATM   15  C   UNL     1     -11.304  11.876  66.919  1.00  0.00    -0.330 A  
HETATM   16  C   UNL     1     -11.886  11.893  68.177  1.00  0.00    -0.338 A  
HETATM   17  C   UNL     1     -10.559   8.698  69.595  1.00  0.00    -0.218 C  
HETATM   18  C   UNL     1     -11.597  10.849  69.054  1.00  0.00    -0.387 A  
HETATM   19  N   UNL     1     -11.085   8.686  70.788  1.00  0.00    -0.250 NA 
HETATM   20  O   UNL     1     -12.885  11.735  70.808  1.00  0.00    -0.206 OA 
HETATM   21  H   UNL     1     -12.161   9.752  72.150  1.00  0.00     0.000 HD 
HETATM   22  N   UNL     1     -11.827   9.752  71.186  1.00  0.00    -0.352 N  
HETATM   23  C   UNL     1     -12.167  10.830  70.406  1.00  0.00    -0.349 C  
BRANCH   8  24
HETATM   24  C   UNL     1      -9.260   6.348  66.967  1.00  0.00    -0.136 A  
HETATM   25  C   UNL     1     -10.878   4.881  65.894  1.00  0.00    -0.140 A  
HETATM   26  F   UNL     1     -10.175   3.476  64.136  1.00  0.00    -0.162 F  
HETATM   27  C   UNL     1      -9.871   4.372  65.085  1.00  0.00    -0.182 A  
HETATM   28  C   UNL     1      -8.557   4.796  65.226  1.00  0.00    -0.137 A  
HETATM   29  C   UNL     1      -8.251   5.783  66.164  1.00  0.00    -0.111 A  
HETATM   30  C   UNL     1     -10.573   5.858  66.843  1.00  0.00    -0.384 A  
ENDBRANCH   8  24
ENDBRANCH   6   7
TORSDOF 2
ENDMDL
MODEL       69
REMARK 921   NORMALIZED FREE ENERGY PREDICTED BY IDOCK:   -5.73 KCAL/MOL
REMARK 922        TOTAL FREE ENERGY PREDICTED BY IDOCK:   -7.07 KCAL/MOL
REMARK 923 INTER-LIGAND FREE ENERGY PREDICTED BY IDOCK:   -6.28 KCAL/MOL
REMARK 924 INTRA-LIGAND FREE ENERGY PREDICTED BY IDOCK:   -0.79 KCAL/MOL
REMARK 927      BINDING AFFINITY PREDICTED BY RF-SCORE:    0.00 PKD
ROOT
HETATM    1  C   UNL     1      -8.154  11.858  67.292  1.00  0.00    -0.171 C  
HETATM    2  N   UNL     1      -9.576  11.853  67.064  1.00  0.00    -0.187 NA 
HETATM    3  N   UNL     1     -10.154  12.922  66.484  1.00  0.00    -0.255 NA 
HETATM    4  C   UNL     1     -11.435  12.561  66.462  1.00  0.00    -0.362 A  
HETATM    5  N   UNL     1     -11.705  11.359  67.041  1.00  0.00    -0.508 NA 
HETATM    6  C   UNL     1     -10.515  10.907  67.398  1.00  0.00    -0.224 A  
ENDROOT
BRANCH   6   7
HETATM    7  C   UNL     1     -10.266   9.581  68.076  1.00  0.00    -0.244 C  
HETATM    8  C   UNL     1      -9.944   9.778  69.575  1.00  0.00    -0.214 C  
HETATM    9  N   UNL     1      -8.921   8.886  70.121  1.00  0.00    -0.159 NA 
HETATM   10  C   UNL     1      -7.261   7.160  69.980  1.00  0.00    -0.078 A  
HETATM   11  H   UNL     1      -8.763   8.897  71.128  1.00  0.00     0.000 HD 
HETATM   12  C   UNL     1      -8.161   8.032  69.357  1.00  0.00    -0.122 A  
HETATM   13  F   UNL     1      -5.689   5.402  69.866  1.00  0.00    -0.013 F  
HETATM   14  C   UNL     1      -8.314   7.915  67.976  1.00  0.00    -0.123 A  
HETATM   15  C   UNL     1      -6.526   6.236  69.236  1.00  0.00    -0.043 A  
HETATM   16  C   UNL     1      -6.651   6.163  67.858  1.00  0.00    -0.059 A  
HETATM   17  C   UNL     1      -9.306   8.729  67.268  1.00  0.00    -0.147 C  
HETATM   18  C   UNL     1      -7.551   7.020  67.228  1.00  0.00    -0.108 A  
HETATM   19  N   UNL     1      -9.444   8.691  65.972  1.00  0.00    -0.226 NA 
HETATM   20  O   UNL     1      -7.035   6.259  65.067  1.00  0.00    -0.049 OA 
HETATM   21  H   UNL     1      -8.702   7.928  64.235  1.00  0.00     0.000 HD 
HETATM   22  N   UNL     1      -8.626   7.881  65.252  1.00  0.00    -0.108 N  
HETATM   23  C   UNL     1      -7.705   7.002  65.769  1.00  0.00    -0.103 C  
BRANCH   8  24
HETATM   24  C   UNL     1     -11.239   9.586  70.373  1.00  0.00    -0.323 A  
HETATM   25  C   UNL     1     -12.569   8.176  71.844  1.00  0.00    -0.368 A  
HETATM   26  F   UNL     1     -14.262   9.155  73.162  1.00  0.00    -0.300 F  
HETATM   27  C   UNL     1     -13.314   9.285  72.224  1.00  0.00    -0.477 A  
HETATM   28  C   UNL     1     -13.074  10.533  71.666  1.00  0.00    -0.551 A  
HETATM   29  C   UNL     1     -12.039  10.685  70.743  1.00  0.00    -0.474 A  
HETATM   30  C   UNL     1     -11.542   8.322  70.911  1.00  0.00    -0.282 A  
ENDBRANCH   8  24
ENDBRANCH   6   7
TORSDOF 2
ENDMDL
MODEL       70
REMARK 921   NORMALIZED FREE ENERGY PREDICTED BY IDOCK:   -5.68 KCAL/MOL
REMARK 922        TOTAL FREE ENERGY PREDICTED BY IDOCK:   -7.02 KCAL/MOL
REMARK 923 INTER-LIGAND FREE ENERGY PREDICTED BY IDOCK:   -6.17 KCAL/MOL
REMARK 924 INTRA-LIGAND FREE ENERGY PREDICTED BY IDOCK:   -0.85 KCAL/MOL
REMARK 927      BINDING AFFINITY PREDICTED BY RF-SCORE:    0.00 PKD
ROOT
HETATM    1  C   UNL     1      -9.222   7.697  66.303  1.00  0.00    -0.154 C  
HETATM    2  N   UNL     1      -8.303   7.278  67.331  1.00  0.00    -0.119 NA 
HETATM    3  N   UNL     1      -7.456   6.261  67.082  1.00  0.00    -0.083 NA 
HETATM    4  C   UNL     1      -6.804   6.159  68.238  1.00  0.00    -0.074 A  
HETATM    5  N   UNL     1      -7.226   7.010  69.214  1.00  0.00    -0.083 NA 
HETATM    6  C   UNL     1      -8.161   7.732  68.620  1.00  0.00    -0.127 A  
ENDROOT
BRANCH   6   7
HETATM    7  C   UNL     1      -8.938   8.845  69.281  1.00  0.00    -0.144 C  
HETATM    8  C   UNL     1     -10.442   8.498  69.361  1.00  0.00    -0.218 C  
HETATM    9  N   UNL     1     -11.358   9.615  69.136  1.00  0.00    -0.454 NA 
HETATM   10  C   UNL     1     -11.903  11.891  68.608  1.00  0.00    -0.365 A  
HETATM   11  H   UNL     1     -12.353   9.460  69.298  1.00  0.00     0.000 HD 
HETATM   12  C   UNL     1     -10.959  10.863  68.720  1.00  0.00    -0.237 A  
HETATM   13  F   UNL     1     -12.439  14.148  68.174  1.00  0.00    -0.328 F  
HETATM   14  C   UNL     1      -9.623  11.193  68.497  1.00  0.00    -0.193 A  
HETATM   15  C   UNL     1     -11.515  13.184  68.253  1.00  0.00    -0.314 A  
HETATM   16  C   UNL     1     -10.190  13.488  67.985  1.00  0.00    -0.243 A  
HETATM   17  C   UNL     1      -8.569  10.192  68.688  1.00  0.00    -0.123 C  
HETATM   18  C   UNL     1      -9.241  12.474  68.103  1.00  0.00    -0.209 A  
HETATM   19  N   UNL     1      -7.315  10.442  68.437  1.00  0.00    -0.083 NA 
HETATM   20  O   UNL     1      -7.448  13.833  67.427  1.00  0.00    -0.174 OA 
HETATM   21  H   UNL     1      -5.999  11.813  67.704  1.00  0.00     0.000 HD 
HETATM   22  N   UNL     1      -6.975  11.669  67.965  1.00  0.00    -0.074 N  
HETATM   23  C   UNL     1      -7.827  12.735  67.808  1.00  0.00    -0.156 C  
BRANCH   8  24
HETATM   24  C   UNL     1     -10.723   7.903  70.747  1.00  0.00    -0.230 A  
HETATM   25  C   UNL     1     -11.497   6.008  72.062  1.00  0.00    -0.343 A  
HETATM   26  F   UNL     1     -10.856   5.833  74.324  1.00  0.00    -0.250 F  
HETATM   27  C   UNL     1     -10.853   6.526  73.178  1.00  0.00    -0.257 A  
HETATM   28  C   UNL     1     -10.183   7.740  73.117  1.00  0.00    -0.398 A  
HETATM   29  C   UNL     1     -10.117   8.428  71.904  1.00  0.00    -0.337 A  
HETATM   30  C   UNL     1     -11.444   6.700  70.851  1.00  0.00    -0.401 A  
ENDBRANCH   8  24
ENDBRANCH   6   7
TORSDOF 2
ENDMDL
MODEL       71
REMARK 921   NORMALIZED FREE ENERGY PREDICTED BY IDOCK:   -5.64 KCAL/MOL
REMARK 922        TOTAL FREE ENERGY PREDICTED BY IDOCK:   -6.98 KCAL/MOL
REMARK 923 INTER-LIGAND FREE ENERGY PREDICTED BY IDOCK:   -6.23 KCAL/MOL
REMARK 924 INTRA-LIGAND FREE ENERGY PREDICTED BY IDOCK:   -0.75 KCAL/MOL
REMARK 927      BINDING AFFINITY PREDICTED BY RF-SCORE:    0.00 PKD
ROOT
HETATM    1  C   UNL     1      -8.376   6.585  72.363  1.00  0.00    -0.108 C  
HETATM    2  N   UNL     1      -8.938   5.381  71.805  1.00  0.00    -0.135 NA 
HETATM    3  N   UNL     1      -8.569   4.188  72.309  1.00  0.00    -0.105 NA 
HETATM    4  C   UNL     1      -9.262   3.344  71.547  1.00  0.00    -0.123 A  
HETATM    5  N   UNL     1      -9.998   3.929  70.563  1.00  0.00    -0.100 NA 
HETATM    6  C   UNL     1      -9.805   5.223  70.751  1.00  0.00    -0.196 A  
ENDROOT
BRANCH   6   7
HETATM    7  C   UNL     1     -10.428   6.317  69.917  1.00  0.00    -0.284 C  
HETATM    8  C   UNL     1      -9.351   7.084  69.117  1.00  0.00    -0.140 C  
HETATM    9  N   UNL     1      -9.563   8.527  69.000  1.00  0.00    -0.165 NA 
HETATM   10  C   UNL     1     -10.719  10.584  69.435  1.00  0.00    -0.277 A  
HETATM   11  H   UNL     1      -8.946   9.054  68.382  1.00  0.00     0.000 HD 
HETATM   12  C   UNL     1     -10.545   9.215  69.673  1.00  0.00    -0.228 A  
HETATM   13  F   UNL     1     -11.901  12.596  69.787  1.00  0.00    -0.338 F  
HETATM   14  C   UNL     1     -11.459   8.590  70.519  1.00  0.00    -0.198 A  
HETATM   15  C   UNL     1     -11.750  11.293  70.053  1.00  0.00    -0.346 A  
HETATM   16  C   UNL     1     -12.623  10.670  70.931  1.00  0.00    -0.503 A  
HETATM   17  C   UNL     1     -11.398   7.143  70.741  1.00  0.00    -0.289 C  
HETATM   18  C   UNL     1     -12.464   9.306  71.167  1.00  0.00    -0.341 A  
HETATM   19  N   UNL     1     -12.197   6.528  71.566  1.00  0.00    -0.324 NA 
HETATM   20  O   UNL     1     -14.220   9.194  72.724  1.00  0.00    -0.552 OA 
HETATM   21  H   UNL     1     -13.669   6.765  72.954  1.00  0.00     0.000 HD 
HETATM   22  N   UNL     1     -13.109   7.259  72.259  1.00  0.00     0.026 N  
HETATM   23  C   UNL     1     -13.345   8.603  72.107  1.00  0.00    -0.396 C  
BRANCH   8  24
HETATM   24  C   UNL     1      -9.281   6.482  67.708  1.00  0.00    -0.113 A  
HETATM   25  C   UNL     1      -7.945   6.004  65.731  1.00  0.00    -0.113 A  
HETATM   26  F   UNL     1      -8.637   4.302  64.254  1.00  0.00    -0.103 F  
HETATM   27  C   UNL     1      -8.869   5.040  65.347  1.00  0.00    -0.152 A  
HETATM   28  C   UNL     1     -10.016   4.813  66.094  1.00  0.00    -0.261 A  
HETATM   29  C   UNL     1     -10.223   5.531  67.272  1.00  0.00    -0.255 A  
HETATM   30  C   UNL     1      -8.155   6.733  66.902  1.00  0.00    -0.109 A  
ENDBRANCH   8  24
ENDBRANCH   6   7
TORSDOF 2
ENDMDL
MODEL       72
REMARK 921   NORMALIZED FREE ENERGY PREDICTED BY IDOCK:   -5.62 KCAL/MOL
REMARK 922        TOTAL FREE ENERGY PREDICTED BY IDOCK:   -6.95 KCAL/MOL
REMARK 923 INTER-LIGAND FREE ENERGY PREDICTED BY IDOCK:   -6.44 KCAL/MOL
REMARK 924 INTRA-LIGAND FREE ENERGY PREDICTED BY IDOCK:   -0.52 KCAL/MOL
REMARK 927      BINDING AFFINITY PREDICTED BY RF-SCORE:    0.00 PKD
ROOT
HETATM    1  C   UNL     1     -12.998  10.491  72.137  1.00  0.00    -0.263 C  
HETATM    2  N   UNL     1     -13.209   9.100  71.828  1.00  0.00    -0.370 NA 
HETATM    3  N   UNL     1     -14.409   8.544  72.080  1.00  0.00    -0.452 NA 
HETATM    4  C   UNL     1     -14.213   7.285  71.692  1.00  0.00    -0.409 A  
HETATM    5  N   UNL     1     -12.952   7.004  71.264  1.00  0.00    -0.355 NA 
HETATM    6  C   UNL     1     -12.329   8.168  71.332  1.00  0.00    -0.298 A  
ENDROOT
BRANCH   6   7
HETATM    7  C   UNL     1     -10.888   8.397  70.943  1.00  0.00    -0.267 C  
HETATM    8  C   UNL     1     -10.674   8.140  69.435  1.00  0.00    -0.156 C  
HETATM    9  N   UNL     1      -9.411   7.491  69.080  1.00  0.00    -0.150 NA 
HETATM   10  C   UNL     1      -7.305   6.451  69.567  1.00  0.00    -0.088 A  
HETATM   11  H   UNL     1      -9.174   7.411  68.092  1.00  0.00     0.000 HD 
HETATM   12  C   UNL     1      -8.525   6.984  70.001  1.00  0.00    -0.140 A  
HETATM   13  F   UNL     1      -5.193   5.506  70.036  1.00  0.00    -0.004 F  
HETATM   14  C   UNL     1      -8.735   7.065  71.376  1.00  0.00    -0.125 A  
HETATM   15  C   UNL     1      -6.358   5.991  70.483  1.00  0.00    -0.036 A  
HETATM   16  C   UNL     1      -6.600   6.032  71.847  1.00  0.00    -0.059 A  
HETATM   17  C   UNL     1      -9.947   7.697  71.906  1.00  0.00    -0.176 C  
HETATM   18  C   UNL     1      -7.807   6.569  72.290  1.00  0.00    -0.101 A  
HETATM   19  N   UNL     1     -10.210   7.745  73.182  1.00  0.00    -0.327 NA 
HETATM   20  O   UNL     1      -7.357   6.161  74.559  1.00  0.00    -0.093 OA 
HETATM   21  H   UNL     1      -9.603   7.155  75.035  1.00  0.00     0.000 HD 
HETATM   22  N   UNL     1      -9.336   7.172  74.050  1.00  0.00    -0.236 N  
HETATM   23  C   UNL     1      -8.125   6.614  73.722  1.00  0.00    -0.102 C  
BRANCH   8  24
HETATM   24  C   UNL     1     -10.758   9.484  68.702  1.00  0.00    -0.218 A  
HETATM   25  C   UNL     1     -10.661  10.697  66.595  1.00  0.00    -0.276 A  
HETATM   26  F   UNL     1     -11.670  12.823  66.439  1.00  0.00    -0.357 F  
HETATM   27  C   UNL     1     -11.333  11.761  67.183  1.00  0.00    -0.322 A  
HETATM   28  C   UNL     1     -11.684  11.731  68.525  1.00  0.00    -0.390 A  
HETATM   29  C   UNL     1     -11.398  10.595  69.284  1.00  0.00    -0.346 A  
HETATM   30  C   UNL     1     -10.362   9.565  67.354  1.00  0.00    -0.319 A  
ENDBRANCH   8  24
ENDBRANCH   6   7
TORSDOF 2
ENDMDL
MODEL       73
REMARK 921   NORMALIZED FREE ENERGY PREDICTED BY IDOCK:   -5.57 KCAL/MOL
REMARK 922        TOTAL FREE ENERGY PREDICTED BY IDOCK:   -6.90 KCAL/MOL
REMARK 923 INTER-LIGAND FREE ENERGY PREDICTED BY IDOCK:   -6.28 KCAL/MOL
REMARK 924 INTRA-LIGAND FREE ENERGY PREDICTED BY IDOCK:   -0.62 KCAL/MOL
REMARK 927      BINDING AFFINITY PREDICTED BY RF-SCORE:    0.00 PKD
ROOT
HETATM    1  C   UNL     1      -7.251   9.385  70.989  1.00  0.00    -0.033 C  
HETATM    2  N   UNL     1      -8.275   8.779  71.803  1.00  0.00    -0.316 NA 
HETATM    3  N   UNL     1      -8.137   8.778  73.142  1.00  0.00    -0.381 NA 
HETATM    4  C   UNL     1      -9.235   8.133  73.529  1.00  0.00    -0.186 A  
HETATM    5  N   UNL     1     -10.025   7.682  72.516  1.00  0.00    -0.191 NA 
HETATM    6  C   UNL     1      -9.419   8.118  71.425  1.00  0.00    -0.166 A  
ENDROOT
BRANCH   6   7
HETATM    7  C   UNL     1      -9.914   7.892  70.016  1.00  0.00    -0.191 C  
HETATM    8  C   UNL     1      -8.867   7.125  69.178  1.00  0.00    -0.135 C  
HETATM    9  N   UNL     1      -8.744   7.550  67.784  1.00  0.00    -0.123 NA 
HETATM   10  C   UNL     1      -9.259   8.933  65.892  1.00  0.00    -0.290 A  
HETATM   11  H   UNL     1      -8.155   6.995  67.163  1.00  0.00     0.000 HD 
HETATM   12  C   UNL     1      -9.376   8.652  67.259  1.00  0.00    -0.152 A  
HETATM   13  F   UNL     1      -9.827  10.234  64.007  1.00  0.00    -0.340 F  
HETATM   14  C   UNL     1     -10.226   9.464  68.009  1.00  0.00    -0.248 A  
HETATM   15  C   UNL     1      -9.945  10.006  65.320  1.00  0.00    -0.298 A  
HETATM   16  C   UNL     1     -10.748  10.835  66.087  1.00  0.00    -0.187 A  
HETATM   17  C   UNL     1     -10.472   9.173  69.425  1.00  0.00    -0.219 C  
HETATM   18  C   UNL     1     -10.878  10.559  67.447  1.00  0.00    -0.349 A  
HETATM   19  N   UNL     1     -11.214   9.937  70.176  1.00  0.00    -0.271 NA 
HETATM   20  O   UNL     1     -12.261  12.410  67.868  1.00  0.00    -0.379 OA 
HETATM   21  H   UNL     1     -12.277  11.672  70.259  1.00  0.00     0.000 HD 
HETATM   22  N   UNL     1     -11.765  11.052  69.630  1.00  0.00    -0.298 N  
HETATM   23  C   UNL     1     -11.696  11.419  68.309  1.00  0.00    -0.288 C  
BRANCH   8  24
HETATM   24  C   UNL     1      -9.227   5.635  69.208  1.00  0.00    -0.139 A  
HETATM   25  C   UNL     1      -9.441   3.538  67.993  1.00  0.00    -0.217 A  
HETATM   26  F   UNL     1      -9.416   1.504  69.187  1.00  0.00    -0.150 F  
HETATM   27  C   UNL     1      -9.402   2.844  69.196  1.00  0.00    -0.141 A  
HETATM   28  C   UNL     1      -9.322   3.516  70.407  1.00  0.00    -0.239 A  
HETATM   29  C   UNL     1      -9.234   4.909  70.414  1.00  0.00    -0.189 A  
HETATM   30  C   UNL     1      -9.366   4.931  67.998  1.00  0.00    -0.160 A  
ENDBRANCH   8  24
ENDBRANCH   6   7
TORSDOF 2
ENDMDL
MODEL       74
REMARK 921   NORMALIZED FREE ENERGY PREDICTED BY IDOCK:   -5.55 KCAL/MOL
REMARK 922        TOTAL FREE ENERGY PREDICTED BY IDOCK:   -6.88 KCAL/MOL
REMARK 923 INTER-LIGAND FREE ENERGY PREDICTED BY IDOCK:   -5.88 KCAL/MOL
REMARK 924 INTRA-LIGAND FREE ENERGY PREDICTED BY IDOCK:   -1.00 KCAL/MOL
REMARK 927      BINDING AFFINITY PREDICTED BY RF-SCORE:    0.00 PKD
ROOT
HETATM    1  C   UNL     1     -11.628   7.730  70.646  1.00  0.00    -0.218 C  
HETATM    2  N   UNL     1     -10.306   8.301  70.657  1.00  0.00    -0.197 NA 
HETATM    3  N   UNL     1      -9.686   8.505  71.835  1.00  0.00    -0.259 NA 
HETATM    4  C   UNL     1      -8.533   9.046  71.447  1.00  0.00    -0.080 A  
HETATM    5  N   UNL     1      -8.413   9.245  70.106  1.00  0.00    -0.170 NA 
HETATM    6  C   UNL     1      -9.533   8.748  69.611  1.00  0.00    -0.170 A  
ENDROOT
BRANCH   6   7
HETATM    7  C   UNL     1      -9.885   8.710  68.143  1.00  0.00    -0.192 C  
HETATM    8  C   UNL     1      -8.720   8.130  67.310  1.00  0.00    -0.124 C  
HETATM    9  N   UNL     1      -8.500   8.762  66.010  1.00  0.00    -0.127 NA 
HETATM   10  C   UNL     1      -8.931  10.384  64.295  1.00  0.00    -0.249 A  
HETATM   11  H   UNL     1      -7.824   8.336  65.376  1.00  0.00     0.000 HD 
HETATM   12  C   UNL     1      -9.152   9.898  65.589  1.00  0.00    -0.178 A  
HETATM   13  F   UNL     1      -9.409  11.922  62.569  1.00  0.00    -0.258 F  
HETATM   14  C   UNL     1     -10.115  10.545  66.361  1.00  0.00    -0.285 A  
HETATM   15  C   UNL     1      -9.629  11.495  63.818  1.00  0.00    -0.212 A  
HETATM   16  C   UNL     1     -10.548  12.160  64.614  1.00  0.00    -0.340 A  
HETATM   17  C   UNL     1     -10.467  10.036  67.689  1.00  0.00    -0.246 C  
HETATM   18  C   UNL     1     -10.782  11.679  65.900  1.00  0.00    -0.328 A  
HETATM   19  N   UNL     1     -11.321  10.641  68.466  1.00  0.00    -0.284 NA 
HETATM   20  O   UNL     1     -12.312  13.375  66.446  1.00  0.00    -0.387 OA 
HETATM   21  H   UNL     1     -12.495  12.290  68.693  1.00  0.00     0.000 HD 
HETATM   22  N   UNL     1     -11.891  11.796  68.035  1.00  0.00    -0.282 N  
HETATM   23  C   UNL     1     -11.727  12.359  66.793  1.00  0.00    -0.362 C  
BRANCH   8  24
HETATM   24  C   UNL     1      -8.986   6.635  67.090  1.00  0.00    -0.118 A  
HETATM   25  C   UNL     1      -8.431   4.334  67.655  1.00  0.00    -0.101 A  
HETATM   26  F   UNL     1     -10.006   2.630  67.234  1.00  0.00     0.008 F  
HETATM   27  C   UNL     1      -9.655   3.920  67.145  1.00  0.00    -0.189 A  
HETATM   28  C   UNL     1     -10.533   4.827  66.568  1.00  0.00    -0.251 A  
HETATM   29  C   UNL     1     -10.201   6.182  66.541  1.00  0.00    -0.181 A  
HETATM   30  C   UNL     1      -8.090   5.687  67.617  1.00  0.00    -0.101 A  
ENDBRANCH   8  24
ENDBRANCH   6   7
TORSDOF 2
ENDMDL
MODEL       75
REMARK 921   NORMALIZED FREE ENERGY PREDICTED BY IDOCK:   -5.52 KCAL/MOL
REMARK 922        TOTAL FREE ENERGY PREDICTED BY IDOCK:   -6.84 KCAL/MOL
REMARK 923 INTER-LIGAND FREE ENERGY PREDICTED BY IDOCK:   -6.29 KCAL/MOL
REMARK 924 INTRA-LIGAND FREE ENERGY PREDICTED BY IDOCK:   -0.55 KCAL/MOL
REMARK 927      BINDING AFFINITY PREDICTED BY RF-SCORE:    0.00 PKD
ROOT
HETATM    1  C   UNL     1      -8.207  10.201  64.468  1.00  0.00    -0.162 C  
HETATM    2  N   UNL     1      -7.394  10.407  65.640  1.00  0.00    -0.148 NA 
HETATM    3  N   UNL     1      -6.075  10.631  65.495  1.00  0.00    -0.125 NA 
HETATM    4  C   UNL     1      -5.677  10.749  66.761  1.00  0.00    -0.069 A  
HETATM    5  N   UNL     1      -6.653  10.558  67.691  1.00  0.00    -0.065 NA 
HETATM    6  C   UNL     1      -7.743  10.366  66.969  1.00  0.00    -0.105 A  
ENDROOT
BRANCH   6   7
HETATM    7  C   UNL     1      -9.121  10.122  67.538  1.00  0.00    -0.143 C  
HETATM    8  C   UNL     1      -9.339  10.942  68.830  1.00  0.00    -0.185 C  
HETATM    9  N   UNL     1     -10.097  10.267  69.882  1.00  0.00    -0.389 NA 
HETATM   10  C   UNL     1     -11.260   8.408  70.855  1.00  0.00    -0.294 A  
HETATM   11  H   UNL     1     -10.368  10.811  70.702  1.00  0.00     0.000 HD 
HETATM   12  C   UNL     1     -10.467   8.944  69.833  1.00  0.00    -0.214 A  
HETATM   13  F   UNL     1     -12.480   6.612  71.780  1.00  0.00    -0.361 F  
HETATM   14  C   UNL     1     -10.174   8.118  68.750  1.00  0.00    -0.221 A  
HETATM   15  C   UNL     1     -11.707   7.087  70.797  1.00  0.00    -0.349 A  
HETATM   16  C   UNL     1     -11.367   6.261  69.738  1.00  0.00    -0.506 A  
HETATM   17  C   UNL     1      -9.429   8.638  67.599  1.00  0.00    -0.141 C  
HETATM   18  C   UNL     1     -10.586   6.787  68.711  1.00  0.00    -0.258 A  
HETATM   19  N   UNL     1      -9.086   7.887  66.591  1.00  0.00    -0.155 NA 
HETATM   20  O   UNL     1     -10.486   4.768  67.515  1.00  0.00    -0.059 OA 
HETATM   21  H   UNL     1      -9.070   5.989  65.853  1.00  0.00     0.000 HD 
HETATM   22  N   UNL     1      -9.417   6.570  66.616  1.00  0.00    -0.157 N  
HETATM   23  C   UNL     1     -10.177   5.949  67.577  1.00  0.00    -0.190 C  
BRANCH   8  24
HETATM   24  C   UNL     1     -10.065  12.241  68.457  1.00  0.00    -0.192 A  
HETATM   25  C   UNL     1     -11.845  13.825  68.947  1.00  0.00    -0.396 A  
HETATM   26  F   UNL     1     -11.693  16.027  68.117  1.00  0.00    -0.337 F  
HETATM   27  C   UNL     1     -11.190  14.787  68.189  1.00  0.00    -0.294 A  
HETATM   28  C   UNL     1     -10.008  14.491  67.525  1.00  0.00    -0.224 A  
HETATM   29  C   UNL     1      -9.445  13.221  67.659  1.00  0.00    -0.211 A  
HETATM   30  C   UNL     1     -11.292  12.550  69.071  1.00  0.00    -0.342 A  
ENDBRANCH   8  24
ENDBRANCH   6   7
TORSDOF 2
ENDMDL
MODEL       76
REMARK 921   NORMALIZED FREE ENERGY PREDICTED BY IDOCK:   -5.52 KCAL/MOL
REMARK 922        TOTAL FREE ENERGY PREDICTED BY IDOCK:   -6.84 KCAL/MOL
REMARK 923 INTER-LIGAND FREE ENERGY PREDICTED BY IDOCK:   -5.98 KCAL/MOL
REMARK 924 INTRA-LIGAND FREE ENERGY PREDICTED BY IDOCK:   -0.86 KCAL/MOL
REMARK 927      BINDING AFFINITY PREDICTED BY RF-SCORE:    0.00 PKD
ROOT
HETATM    1  C   UNL     1     -11.122   6.636  67.056  1.00  0.00    -0.325 C  
HETATM    2  N   UNL     1      -9.687   6.516  67.117  1.00  0.00    -0.136 NA 
HETATM    3  N   UNL     1      -9.038   5.867  66.132  1.00  0.00    -0.150 NA 
HETATM    4  C   UNL     1      -7.773   5.946  66.540  1.00  0.00    -0.100 A  
HETATM    5  N   UNL     1      -7.594   6.555  67.745  1.00  0.00    -0.103 NA 
HETATM    6  C   UNL     1      -8.812   6.934  68.091  1.00  0.00    -0.125 A  
ENDROOT
BRANCH   6   7
HETATM    7  C   UNL     1      -9.154   7.680  69.359  1.00  0.00    -0.142 C  
HETATM    8  C   UNL     1     -10.030   6.813  70.291  1.00  0.00    -0.178 C  
HETATM    9  N   UNL     1     -11.082   7.530  71.012  1.00  0.00    -0.253 NA 
HETATM   10  C   UNL     1     -12.378   9.468  71.579  1.00  0.00    -0.465 A  
HETATM   11  H   UNL     1     -11.604   7.024  71.727  1.00  0.00     0.000 HD 
HETATM   12  C   UNL     1     -11.408   8.846  70.783  1.00  0.00    -0.278 A  
HETATM   13  F   UNL     1     -13.598  11.389  72.206  1.00  0.00    -0.521 F  
HETATM   14  C   UNL     1     -10.740   9.638  69.851  1.00  0.00    -0.283 A  
HETATM   15  C   UNL     1     -12.680  10.820  71.415  1.00  0.00    -0.439 A  
HETATM   16  C   UNL     1     -12.044  11.586  70.451  1.00  0.00    -0.471 A  
HETATM   17  C   UNL     1      -9.648   9.081  69.049  1.00  0.00    -0.160 C  
HETATM   18  C   UNL     1     -11.070  10.979  69.659  1.00  0.00    -0.320 A  
HETATM   19  N   UNL     1      -9.034   9.770  68.128  1.00  0.00    -0.119 NA 
HETATM   20  O   UNL     1     -10.661  12.905  68.379  1.00  0.00    -0.241 OA 
HETATM   21  H   UNL     1      -8.991  11.536  67.116  1.00  0.00     0.000 HD 
HETATM   22  N   UNL     1      -9.435  11.046  67.893  1.00  0.00    -0.162 N  
HETATM   23  C   UNL     1     -10.383  11.737  68.607  1.00  0.00    -0.214 C  
BRANCH   8  24
HETATM   24  C   UNL     1      -9.113   6.130  71.313  1.00  0.00    -0.147 A  
HETATM   25  C   UNL     1      -7.830   6.299  73.373  1.00  0.00    -0.098 A  
HETATM   26  F   UNL     1      -7.270   4.333  74.549  1.00  0.00    -0.064 F  
HETATM   27  C   UNL     1      -7.826   4.914  73.477  1.00  0.00    -0.099 A  
HETATM   28  C   UNL     1      -8.412   4.122  72.500  1.00  0.00    -0.100 A  
HETATM   29  C   UNL     1      -9.055   4.727  71.420  1.00  0.00    -0.174 A  
HETATM   30  C   UNL     1      -8.460   6.907  72.287  1.00  0.00    -0.111 A  
ENDBRANCH   8  24
ENDBRANCH   6   7
TORSDOF 2
ENDMDL
MODEL       77
REMARK 921   NORMALIZED FREE ENERGY PREDICTED BY IDOCK:   -5.47 KCAL/MOL
REMARK 922        TOTAL FREE ENERGY PREDICTED BY IDOCK:   -6.79 KCAL/MOL
REMARK 923 INTER-LIGAND FREE ENERGY PREDICTED BY IDOCK:   -7.69 KCAL/MOL
REMARK 924 INTRA-LIGAND FREE ENERGY PREDICTED BY IDOCK:    0.90 KCAL/MOL
REMARK 927      BINDING AFFINITY PREDICTED BY RF-SCORE:    0.00 PKD
ROOT
HETATM    1  C   UNL     1     -11.296  12.086  69.622  1.00  0.00    -0.179 C  
HETATM    2  N   UNL     1     -11.952  13.326  69.952  1.00  0.00    -0.334 NA 
HETATM    3  N   UNL     1     -12.831  13.355  70.971  1.00  0.00    -0.288 NA 
HETATM    4  C   UNL     1     -13.226  14.626  70.955  1.00  0.00    -0.374 A  
HETATM    5  N   UNL     1     -12.693  15.382  69.957  1.00  0.00    -0.238 NA 
HETATM    6  C   UNL     1     -11.867  14.554  69.341  1.00  0.00    -0.325 A  
ENDROOT
BRANCH   6   7
HETATM    7  C   UNL     1     -11.005  14.920  68.156  1.00  0.00    -0.276 C  
HETATM    8  C   UNL     1     -10.164  13.711  67.688  1.00  0.00    -0.239 C  
HETATM    9  N   UNL     1      -8.805  14.023  67.247  1.00  0.00    -0.207 NA 
HETATM   10  C   UNL     1      -6.944  15.484  66.850  1.00  0.00     0.172 A  
HETATM   11  H   UNL     1      -8.257  13.278  66.818  1.00  0.00     0.000 HD 
HETATM   12  C   UNL     1      -8.223  15.262  67.375  1.00  0.00    -0.184 A  
HETATM   13  F   UNL     1      -5.140  16.931  66.377  1.00  0.00    -0.170 F  
HETATM   14  C   UNL     1      -8.891  16.358  67.919  1.00  0.00    -0.184 A  
HETATM   15  C   UNL     1      -6.356  16.748  66.906  1.00  0.00    -0.194 A  
HETATM   16  C   UNL     1      -7.010  17.819  67.494  1.00  0.00    -0.189 A  
HETATM   17  C   UNL     1     -10.268  16.223  68.401  1.00  0.00    -0.249 C  
HETATM   18  C   UNL     1      -8.288  17.611  68.011  1.00  0.00    -0.246 A  
HETATM   19  N   UNL     1     -10.909  17.207  68.967  1.00  0.00    -0.218 NA 
HETATM   20  O   UNL     1      -8.516  19.811  68.800  1.00  0.00    -0.279 OA 
HETATM   21  H   UNL     1     -10.768  19.122  69.646  1.00  0.00     0.000 HD 
HETATM   22  N   UNL     1     -10.270  18.394  69.131  1.00  0.00    -0.219 N  
HETATM   23  C   UNL     1      -9.016  18.704  68.666  1.00  0.00    -0.306 C  
BRANCH   8  24
HETATM   24  C   UNL     1     -10.910  13.025  66.537  1.00  0.00    -0.294 A  
HETATM   25  C   UNL     1     -12.781  13.052  64.983  1.00  0.00    -0.475 A  
HETATM   26  F   UNL     1     -12.652  11.786  62.997  1.00  0.00    -0.646 F  
HETATM   27  C   UNL     1     -12.109  12.151  64.166  1.00  0.00    -0.409 A  
HETATM   28  C   UNL     1     -10.870  11.644  64.531  1.00  0.00    -0.383 A  
HETATM   29  C   UNL     1     -10.270  12.079  65.713  1.00  0.00    -0.274 A  
HETATM   30  C   UNL     1     -12.190  13.479  66.172  1.00  0.00    -0.484 A  
ENDBRANCH   8  24
ENDBRANCH   6   7
TORSDOF 2
ENDMDL
MODEL       78
REMARK 921   NORMALIZED FREE ENERGY PREDICTED BY IDOCK:   -5.46 KCAL/MOL
REMARK 922        TOTAL FREE ENERGY PREDICTED BY IDOCK:   -6.77 KCAL/MOL
REMARK 923 INTER-LIGAND FREE ENERGY PREDICTED BY IDOCK:   -5.94 KCAL/MOL
REMARK 924 INTRA-LIGAND FREE ENERGY PREDICTED BY IDOCK:   -0.83 KCAL/MOL
REMARK 927      BINDING AFFINITY PREDICTED BY RF-SCORE:    0.00 PKD
ROOT
HETATM    1  C   UNL     1     -11.019   5.615  66.567  1.00  0.00    -0.062 C  
HETATM    2  N   UNL     1      -9.878   5.252  67.369  1.00  0.00    -0.149 NA 
HETATM    3  N   UNL     1      -9.516   3.957  67.451  1.00  0.00    -0.192 NA 
HETATM    4  C   UNL     1      -8.468   4.018  68.270  1.00  0.00    -0.093 A  
HETATM    5  N   UNL     1      -8.185   5.260  68.751  1.00  0.00    -0.089 NA 
HETATM    6  C   UNL     1      -9.070   6.039  68.154  1.00  0.00    -0.118 A  
ENDROOT
BRANCH   6   7
HETATM    7  C   UNL     1      -9.165   7.534  68.341  1.00  0.00    -0.139 C  
HETATM    8  C   UNL     1     -10.451   7.915  69.109  1.00  0.00    -0.209 C  
HETATM    9  N   UNL     1     -11.114   9.138  68.657  1.00  0.00    -0.450 NA 
HETATM   10  C   UNL     1     -11.394  11.043  67.226  1.00  0.00    -0.265 A  
HETATM   11  H   UNL     1     -11.895   9.493  69.210  1.00  0.00     0.000 HD 
HETATM   12  C   UNL     1     -10.747   9.840  67.533  1.00  0.00    -0.264 A  
HETATM   13  F   UNL     1     -11.621  12.965  65.876  1.00  0.00    -0.336 F  
HETATM   14  C   UNL     1      -9.679   9.461  66.723  1.00  0.00    -0.257 A  
HETATM   15  C   UNL     1     -10.997  11.810  66.129  1.00  0.00    -0.307 A  
HETATM   16  C   UNL     1      -9.964  11.398  65.302  1.00  0.00    -0.303 A  
HETATM   17  C   UNL     1      -8.895   8.263  67.038  1.00  0.00    -0.135 C  
HETATM   18  C   UNL     1      -9.308  10.206  65.604  1.00  0.00    -0.250 A  
HETATM   19  N   UNL     1      -7.924   7.843  66.277  1.00  0.00    -0.099 NA 
HETATM   20  O   UNL     1      -7.886  10.311  63.738  1.00  0.00    -0.154 OA 
HETATM   21  H   UNL     1      -6.928   8.138  64.525  1.00  0.00     0.000 HD 
HETATM   22  N   UNL     1      -7.640   8.532  65.141  1.00  0.00    -0.090 N  
HETATM   23  C   UNL     1      -8.225   9.710  64.748  1.00  0.00    -0.142 C  
BRANCH   8  24
HETATM   24  C   UNL     1     -10.096   8.068  70.593  1.00  0.00    -0.203 A  
HETATM   25  C   UNL     1     -10.630   7.545  72.908  1.00  0.00    -0.390 A  
HETATM   26  F   UNL     1      -8.943   7.709  74.548  1.00  0.00    -0.252 F  
HETATM   27  C   UNL     1      -9.331   7.870  73.275  1.00  0.00    -0.286 A  
HETATM   28  C   UNL     1      -8.418   8.334  72.339  1.00  0.00    -0.252 A  
HETATM   29  C   UNL     1      -8.799   8.433  71.000  1.00  0.00    -0.193 A  
HETATM   30  C   UNL     1     -11.018   7.655  71.572  1.00  0.00    -0.263 A  
ENDBRANCH   8  24
ENDBRANCH   6   7
TORSDOF 2
ENDMDL
MODEL       79
REMARK 921   NORMALIZED FREE ENERGY PREDICTED BY IDOCK:   -5.44 KCAL/MOL
REMARK 922        TOTAL FREE ENERGY PREDICTED BY IDOCK:   -6.76 KCAL/MOL
REMARK 923 INTER-LIGAND FREE ENERGY PREDICTED BY IDOCK:   -5.79 KCAL/MOL
REMARK 924 INTRA-LIGAND FREE ENERGY PREDICTED BY IDOCK:   -0.97 KCAL/MOL
REMARK 927      BINDING AFFINITY PREDICTED BY RF-SCORE:    0.00 PKD
ROOT
HETATM    1  C   UNL     1     -11.430   6.605  70.027  1.00  0.00    -0.375 C  
HETATM    2  N   UNL     1     -11.692   7.841  70.720  1.00  0.00    -0.264 NA 
HETATM    3  N   UNL     1     -12.654   7.877  71.661  1.00  0.00    -0.314 NA 
HETATM    4  C   UNL     1     -12.612   9.150  72.046  1.00  0.00    -0.390 A  
HETATM    5  N   UNL     1     -11.723   9.928  71.369  1.00  0.00    -0.381 NA 
HETATM    6  C   UNL     1     -11.127   9.082  70.546  1.00  0.00    -0.254 A  
ENDROOT
BRANCH   6   7
HETATM    7  C   UNL     1     -10.031   9.452  69.576  1.00  0.00    -0.200 C  
HETATM    8  C   UNL     1      -8.658   9.500  70.284  1.00  0.00    -0.226 C  
HETATM    9  N   UNL     1      -7.760  10.566  69.843  1.00  0.00    -0.357 NA 
HETATM   10  C   UNL     1      -7.174  12.504  68.555  1.00  0.00    -0.110 A  
HETATM   11  H   UNL     1      -6.802  10.563  70.194  1.00  0.00     0.000 HD 
HETATM   12  C   UNL     1      -8.128  11.572  68.981  1.00  0.00     0.042 A  
HETATM   13  F   UNL     1      -6.562  14.357  67.228  1.00  0.00    -0.188 F  
HETATM   14  C   UNL     1      -9.401  11.656  68.419  1.00  0.00    -0.191 A  
HETATM   15  C   UNL     1      -7.504  13.495  67.629  1.00  0.00    -0.181 A  
HETATM   16  C   UNL     1      -8.786  13.598  67.115  1.00  0.00    -0.237 A  
HETATM   17  C   UNL     1     -10.424  10.659  68.745  1.00  0.00    -0.194 C  
HETATM   18  C   UNL     1      -9.741  12.670  67.525  1.00  0.00    -0.196 A  
HETATM   19  N   UNL     1     -11.642  10.731  68.286  1.00  0.00    -0.460 NA 
HETATM   20  O   UNL     1     -11.476  13.638  66.271  1.00  0.00    -0.316 OA 
HETATM   21  H   UNL     1     -12.957  11.853  67.208  1.00  0.00     0.000 HD 
HETATM   22  N   UNL     1     -11.979  11.779  67.490  1.00  0.00    -0.129 N  
HETATM   23  C   UNL     1     -11.121  12.748  67.031  1.00  0.00    -0.278 C  
BRANCH   8  24
HETATM   24  C   UNL     1      -7.961   8.150  70.071  1.00  0.00    -0.105 A  
HETATM   25  C   UNL     1      -7.585   5.875  70.848  1.00  0.00    -0.096 A  
HETATM   26  F   UNL     1      -6.813   4.248  69.326  1.00  0.00    -0.041 F  
HETATM   27  C   UNL     1      -7.141   5.522  69.581  1.00  0.00    -0.064 A  
HETATM   28  C   UNL     1      -7.055   6.464  68.565  1.00  0.00    -0.083 A  
HETATM   29  C   UNL     1      -7.464   7.776  68.809  1.00  0.00    -0.096 A  
HETATM   30  C   UNL     1      -7.983   7.189  71.099  1.00  0.00    -0.102 A  
ENDBRANCH   8  24
ENDBRANCH   6   7
TORSDOF 2
ENDMDL
MODEL       80
REMARK 921   NORMALIZED FREE ENERGY PREDICTED BY IDOCK:   -5.36 KCAL/MOL
REMARK 922        TOTAL FREE ENERGY PREDICTED BY IDOCK:   -6.67 KCAL/MOL
REMARK 923 INTER-LIGAND FREE ENERGY PREDICTED BY IDOCK:   -5.68 KCAL/MOL
REMARK 924 INTRA-LIGAND FREE ENERGY PREDICTED BY IDOCK:   -0.99 KCAL/MOL
REMARK 927      BINDING AFFINITY PREDICTED BY RF-SCORE:    0.00 PKD
ROOT
HETATM    1  C   UNL     1      -7.630   7.149  72.904  1.00  0.00    -0.083 C  
HETATM    2  N   UNL     1      -8.782   6.285  72.933  1.00  0.00    -0.126 NA 
HETATM    3  N   UNL     1      -9.134   5.696  74.092  1.00  0.00    -0.122 NA 
HETATM    4  C   UNL     1     -10.198   4.985  73.725  1.00  0.00    -0.210 A  
HETATM    5  N   UNL     1     -10.502   5.046  72.399  1.00  0.00    -0.212 NA 
HETATM    6  C   UNL     1      -9.612   5.893  71.910  1.00  0.00    -0.151 A  
ENDROOT
BRANCH   6   7
HETATM    7  C   UNL     1      -9.533   6.320  70.464  1.00  0.00    -0.175 C  
HETATM    8  C   UNL     1     -10.917   6.770  69.944  1.00  0.00    -0.291 C  
HETATM    9  N   UNL     1     -11.225   6.391  68.565  1.00  0.00    -0.542 NA 
HETATM   10  C   UNL     1     -10.777   5.314  66.468  1.00  0.00    -0.290 A  
HETATM   11  H   UNL     1     -12.072   6.769  68.141  1.00  0.00     0.000 HD 
HETATM   12  C   UNL     1     -10.439   5.556  67.806  1.00  0.00    -0.180 A  
HETATM   13  F   UNL     1     -10.302   4.330  64.376  1.00  0.00    -0.188 F  
HETATM   14  C   UNL     1      -9.247   5.007  68.275  1.00  0.00    -0.147 A  
HETATM   15  C   UNL     1      -9.961   4.525  65.655  1.00  0.00    -0.231 A  
HETATM   16  C   UNL     1      -8.804   3.944  66.148  1.00  0.00    -0.124 A  
HETATM   17  C   UNL     1      -8.782   5.295  69.635  1.00  0.00    -0.101 C  
HETATM   18  C   UNL     1      -8.454   4.186  67.475  1.00  0.00    -0.102 A  
HETATM   19  N   UNL     1      -7.703   4.759  70.132  1.00  0.00    -0.057 NA 
HETATM   20  O   UNL     1      -6.542   2.824  67.404  1.00  0.00    -0.035 OA 
HETATM   21  H   UNL     1      -6.199   3.425  69.807  1.00  0.00     0.000 HD 
HETATM   22  N   UNL     1      -6.994   3.888  69.367  1.00  0.00    -0.045 N  
HETATM   23  C   UNL     1      -7.252   3.576  68.055  1.00  0.00    -0.051 C  
BRANCH   8  24
HETATM   24  C   UNL     1     -11.000   8.297  70.063  1.00  0.00    -0.197 A  
HETATM   25  C   UNL     1     -10.861  10.465  68.967  1.00  0.00    -0.273 A  
HETATM   26  F   UNL     1     -11.896  12.333  69.967  1.00  0.00    -0.357 F  
HETATM   27  C   UNL     1     -11.565  11.036  70.020  1.00  0.00    -0.344 A  
HETATM   28  C   UNL     1     -11.954  10.277  71.115  1.00  0.00    -0.472 A  
HETATM   29  C   UNL     1     -11.673   8.910  71.137  1.00  0.00    -0.356 A  
HETATM   30  C   UNL     1     -10.568   9.101  68.993  1.00  0.00    -0.219 A  
ENDBRANCH   8  24
ENDBRANCH   6   7
TORSDOF 2
ENDMDL
MODEL       81
REMARK 921   NORMALIZED FREE ENERGY PREDICTED BY IDOCK:   -5.36 KCAL/MOL
REMARK 922        TOTAL FREE ENERGY PREDICTED BY IDOCK:   -6.66 KCAL/MOL
REMARK 923 INTER-LIGAND FREE ENERGY PREDICTED BY IDOCK:   -6.03 KCAL/MOL
REMARK 924 INTRA-LIGAND FREE ENERGY PREDICTED BY IDOCK:   -0.63 KCAL/MOL
REMARK 927      BINDING AFFINITY PREDICTED BY RF-SCORE:    0.00 PKD
ROOT
HETATM    1  C   UNL     1     -11.755   6.398  69.995  1.00  0.00    -0.275 C  
HETATM    2  N   UNL     1     -11.481   7.740  70.444  1.00  0.00    -0.213 NA 
HETATM    3  N   UNL     1     -12.168   8.237  71.490  1.00  0.00    -0.293 NA 
HETATM    4  C   UNL     1     -11.664   9.465  71.589  1.00  0.00    -0.398 A  
HETATM    5  N   UNL     1     -10.746   9.788  70.637  1.00  0.00    -0.311 NA 
HETATM    6  C   UNL     1     -10.619   8.678  69.931  1.00  0.00    -0.224 A  
ENDROOT
BRANCH   6   7
HETATM    7  C   UNL     1      -9.691   8.509  68.751  1.00  0.00    -0.168 C  
HETATM    8  C   UNL     1     -10.487   8.413  67.430  1.00  0.00    -0.283 C  
HETATM    9  N   UNL     1      -9.961   7.466  66.447  1.00  0.00    -0.451 NA 
HETATM   10  C   UNL     1      -8.447   5.776  65.669  1.00  0.00    -0.149 A  
HETATM   11  H   UNL     1     -10.381   7.457  65.518  1.00  0.00     0.000 HD 
HETATM   12  C   UNL     1      -8.933   6.589  66.700  1.00  0.00    -0.138 A  
HETATM   13  F   UNL     1      -6.908   4.176  64.868  1.00  0.00    -0.044 F  
HETATM   14  C   UNL     1      -8.269   6.537  67.924  1.00  0.00    -0.116 A  
HETATM   15  C   UNL     1      -7.361   4.925  65.880  1.00  0.00    -0.077 A  
HETATM   16  C   UNL     1      -6.740   4.847  67.116  1.00  0.00    -0.055 A  
HETATM   17  C   UNL     1      -8.661   7.428  69.020  1.00  0.00    -0.133 C  
HETATM   18  C   UNL     1      -7.210   5.659  68.147  1.00  0.00    -0.072 A  
HETATM   19  N   UNL     1      -8.105   7.374  70.198  1.00  0.00    -0.128 NA 
HETATM   20  O   UNL     1      -5.697   4.820  69.735  1.00  0.00    -0.012 OA 
HETATM   21  H   UNL     1      -6.774   6.375  71.372  1.00  0.00     0.000 HD 
HETATM   22  N   UNL     1      -7.138   6.447  70.421  1.00  0.00    -0.067 N  
HETATM   23  C   UNL     1      -6.606   5.598  69.482  1.00  0.00    -0.050 C  
BRANCH   8  24
HETATM   24  C   UNL     1     -10.533   9.808  66.795  1.00  0.00    -0.259 A  
HETATM   25  C   UNL     1     -10.287  11.175  64.797  1.00  0.00    -0.387 A  
HETATM   26  F   UNL     1     -11.310  13.298  64.719  1.00  0.00    -0.307 F  
HETATM   27  C   UNL     1     -11.018  12.187  65.407  1.00  0.00    -0.302 A  
HETATM   28  C   UNL     1     -11.474  12.053  66.711  1.00  0.00    -0.410 A  
HETATM   29  C   UNL     1     -11.233  10.866  67.404  1.00  0.00    -0.345 A  
HETATM   30  C   UNL     1     -10.033   9.993  65.493  1.00  0.00    -0.367 A  
ENDBRANCH   8  24
ENDBRANCH   6   7
TORSDOF 2
ENDMDL
MODEL       82
REMARK 921   NORMALIZED FREE ENERGY PREDICTED BY IDOCK:   -5.36 KCAL/MOL
REMARK 922        TOTAL FREE ENERGY PREDICTED BY IDOCK:   -6.66 KCAL/MOL
REMARK 923 INTER-LIGAND FREE ENERGY PREDICTED BY IDOCK:   -5.62 KCAL/MOL
REMARK 924 INTRA-LIGAND FREE ENERGY PREDICTED BY IDOCK:   -1.04 KCAL/MOL
REMARK 927      BINDING AFFINITY PREDICTED BY RF-SCORE:    0.00 PKD
ROOT
HETATM    1  C   UNL     1      -7.095  12.815  67.456  1.00  0.00    -0.148 C  
HETATM    2  N   UNL     1      -7.001  11.839  68.512  1.00  0.00    -0.077 NA 
HETATM    3  N   UNL     1      -6.188  12.078  69.559  1.00  0.00    -0.106 NA 
HETATM    4  C   UNL     1      -6.353  10.977  70.289  1.00  0.00    -0.120 A  
HETATM    5  N   UNL     1      -7.174  10.040  69.740  1.00  0.00    -0.109 NA 
HETATM    6  C   UNL     1      -7.599  10.607  68.624  1.00  0.00    -0.103 A  
ENDROOT
BRANCH   6   7
HETATM    7  C   UNL     1      -8.561   9.973  67.648  1.00  0.00    -0.118 C  
HETATM    8  C   UNL     1      -9.963   9.811  68.279  1.00  0.00    -0.153 C  
HETATM    9  N   UNL     1     -10.674   8.583  67.925  1.00  0.00    -0.461 NA 
HETATM   10  C   UNL     1     -10.896   6.444  66.861  1.00  0.00    -0.428 A  
HETATM   11  H   UNL     1     -11.646   8.489  68.220  1.00  0.00     0.000 HD 
HETATM   12  C   UNL     1     -10.110   7.547  67.219  1.00  0.00    -0.231 A  
HETATM   13  F   UNL     1     -11.152   4.381  65.744  1.00  0.00    -0.243 F  
HETATM   14  C   UNL     1      -8.800   7.581  66.744  1.00  0.00    -0.153 A  
HETATM   15  C   UNL     1     -10.368   5.410  66.087  1.00  0.00    -0.142 A  
HETATM   16  C   UNL     1      -9.049   5.433  65.662  1.00  0.00    -0.148 A  
HETATM   17  C   UNL     1      -7.948   8.746  66.999  1.00  0.00    -0.095 C  
HETATM   18  C   UNL     1      -8.261   6.530  66.005  1.00  0.00    -0.127 A  
HETATM   19  N   UNL     1      -6.702   8.797  66.622  1.00  0.00    -0.071 NA 
HETATM   20  O   UNL     1      -6.325   5.681  64.982  1.00  0.00    -0.038 OA 
HETATM   21  H   UNL     1      -5.172   7.757  65.769  1.00  0.00     0.000 HD 
HETATM   22  N   UNL     1      -6.169   7.722  65.984  1.00  0.00    -0.041 N  
HETATM   23  C   UNL     1      -6.851   6.593  65.603  1.00  0.00    -0.048 C  
BRANCH   8  24
HETATM   24  C   UNL     1     -10.819  11.013  67.860  1.00  0.00    -0.285 A  
HETATM   25  C   UNL     1     -11.710  13.207  68.415  1.00  0.00    -0.386 A  
HETATM   26  F   UNL     1     -12.430  14.634  66.681  1.00  0.00    -0.368 F  
HETATM   27  C   UNL     1     -11.952  13.444  67.068  1.00  0.00    -0.379 A  
HETATM   28  C   UNL     1     -11.682  12.474  66.113  1.00  0.00    -0.466 A  
HETATM   29  C   UNL     1     -11.116  11.261  66.506  1.00  0.00    -0.280 A  
HETATM   30  C   UNL     1     -11.156  11.990  68.813  1.00  0.00    -0.298 A  
ENDBRANCH   8  24
ENDBRANCH   6   7
TORSDOF 2
ENDMDL
MODEL       83
REMARK 921   NORMALIZED FREE ENERGY PREDICTED BY IDOCK:   -5.28 KCAL/MOL
REMARK 922        TOTAL FREE ENERGY PREDICTED BY IDOCK:   -6.57 KCAL/MOL
REMARK 923 INTER-LIGAND FREE ENERGY PREDICTED BY IDOCK:   -5.58 KCAL/MOL
REMARK 924 INTRA-LIGAND FREE ENERGY PREDICTED BY IDOCK:   -1.00 KCAL/MOL
REMARK 927      BINDING AFFINITY PREDICTED BY RF-SCORE:    0.00 PKD
ROOT
HETATM    1  C   UNL     1     -11.019   6.782  67.131  1.00  0.00    -0.388 C  
HETATM    2  N   UNL     1      -9.743   6.723  66.464  1.00  0.00    -0.157 NA 
HETATM    3  N   UNL     1      -9.355   5.570  65.885  1.00  0.00    -0.152 NA 
HETATM    4  C   UNL     1      -8.156   5.895  65.407  1.00  0.00    -0.130 A  
HETATM    5  N   UNL     1      -7.743   7.159  65.697  1.00  0.00    -0.096 NA 
HETATM    6  C   UNL     1      -8.768   7.684  66.347  1.00  0.00    -0.151 A  
ENDROOT
BRANCH   6   7
HETATM    7  C   UNL     1      -8.818   9.097  66.878  1.00  0.00    -0.137 C  
HETATM    8  C   UNL     1      -8.396  10.112  65.792  1.00  0.00    -0.145 C  
HETATM    9  N   UNL     1      -7.597  11.243  66.265  1.00  0.00    -0.330 NA 
HETATM   10  C   UNL     1      -6.411  12.508  67.922  1.00  0.00    -0.103 A  
HETATM   11  H   UNL     1      -7.399  11.997  65.608  1.00  0.00     0.000 HD 
HETATM   12  C   UNL     1      -7.099  11.349  67.542  1.00  0.00    -0.106 A  
HETATM   13  F   UNL     1      -5.317  13.801  69.566  1.00  0.00    -0.082 F  
HETATM   14  C   UNL     1      -7.333  10.391  68.526  1.00  0.00    -0.086 A  
HETATM   15  C   UNL     1      -5.953  12.672  69.230  1.00  0.00    -0.093 A  
HETATM   16  C   UNL     1      -6.149  11.690  70.188  1.00  0.00    -0.155 A  
HETATM   17  C   UNL     1      -8.127   9.197  68.226  1.00  0.00    -0.104 C  
HETATM   18  C   UNL     1      -6.841  10.537  69.822  1.00  0.00    -0.138 A  
HETATM   19  N   UNL     1      -8.324   8.250  69.100  1.00  0.00    -0.122 NA 
HETATM   20  O   UNL     1      -6.614   9.522  71.928  1.00  0.00    -0.298 OA 
HETATM   21  H   UNL     1      -7.862   7.578  70.966  1.00  0.00     0.000 HD 
HETATM   22  N   UNL     1      -7.757   8.368  70.328  1.00  0.00    -0.077 N  
HETATM   23  C   UNL     1      -7.055   9.455  70.790  1.00  0.00    -0.114 C  
BRANCH   8  24
HETATM   24  C   UNL     1      -9.665  10.652  65.121  1.00  0.00    -0.327 A  
HETATM   25  C   UNL     1     -11.599  12.123  65.246  1.00  0.00    -0.376 A  
HETATM   26  F   UNL     1     -12.673  12.788  63.254  1.00  0.00    -0.477 F  
HETATM   27  C   UNL     1     -11.728  12.060  63.864  1.00  0.00    -0.446 A  
HETATM   28  C   UNL     1     -10.877  11.273  63.102  1.00  0.00    -0.107 A  
HETATM   29  C   UNL     1      -9.846  10.571  63.728  1.00  0.00    -0.363 A  
HETATM   30  C   UNL     1     -10.577  11.412  65.876  1.00  0.00    -0.317 A  
ENDBRANCH   8  24
ENDBRANCH   6   7
TORSDOF 2
ENDMDL
MODEL       84
REMARK 921   NORMALIZED FREE ENERGY PREDICTED BY IDOCK:   -5.27 KCAL/MOL
REMARK 922        TOTAL FREE ENERGY PREDICTED BY IDOCK:   -6.57 KCAL/MOL
REMARK 923 INTER-LIGAND FREE ENERGY PREDICTED BY IDOCK:   -5.81 KCAL/MOL
REMARK 924 INTRA-LIGAND FREE ENERGY PREDICTED BY IDOCK:   -0.76 KCAL/MOL
REMARK 927      BINDING AFFINITY PREDICTED BY RF-SCORE:    0.00 PKD
ROOT
HETATM    1  C   UNL     1     -11.940  13.014  70.171  1.00  0.00    -0.303 C  
HETATM    2  N   UNL     1     -11.759  11.605  69.927  1.00  0.00    -0.331 NA 
HETATM    3  N   UNL     1     -12.457  10.715  70.658  1.00  0.00    -0.343 NA 
HETATM    4  C   UNL     1     -12.019   9.557  70.170  1.00  0.00     0.092 A  
HETATM    5  N   UNL     1     -11.051   9.663  69.218  1.00  0.00    -0.170 NA 
HETATM    6  C   UNL     1     -10.911  10.967  69.054  1.00  0.00    -0.229 A  
ENDROOT
BRANCH   6   7
HETATM    7  C   UNL     1      -9.956  11.615  68.080  1.00  0.00    -0.198 C  
HETATM    8  C   UNL     1      -8.701  12.149  68.808  1.00  0.00     0.114 C  
HETATM    9  N   UNL     1      -8.179  13.421  68.310  1.00  0.00    -0.156 NA 
HETATM   10  C   UNL     1      -8.201  15.364  66.903  1.00  0.00    -0.281 A  
HETATM   11  H   UNL     1      -7.286  13.750  68.677  1.00  0.00     0.000 HD 
HETATM   12  C   UNL     1      -8.819  14.200  67.375  1.00  0.00    -0.206 A  
HETATM   13  F   UNL     1      -8.170  17.234  65.463  1.00  0.00    -0.074 F  
HETATM   14  C   UNL     1     -10.028  13.832  66.787  1.00  0.00    -0.270 A  
HETATM   15  C   UNL     1      -8.797  16.138  65.906  1.00  0.00    -0.161 A  
HETATM   16  C   UNL     1     -10.024  15.788  65.364  1.00  0.00    -0.273 A  
HETATM   17  C   UNL     1     -10.686  12.578  67.162  1.00  0.00    -0.237 C  
HETATM   18  C   UNL     1     -10.643  14.626  65.820  1.00  0.00    -0.330 A  
HETATM   19  N   UNL     1     -11.843  12.223  66.678  1.00  0.00    -0.594 NA 
HETATM   20  O   UNL     1     -12.547  14.902  64.473  1.00  0.00    -0.519 OA 
HETATM   21  H   UNL     1     -13.407  12.792  65.504  1.00  0.00     0.000 HD 
HETATM   22  N   UNL     1     -12.469  13.056  65.807  1.00  0.00    -0.411 N  
HETATM   23  C   UNL     1     -11.953  14.222  65.297  1.00  0.00    -0.389 C  
BRANCH   8  24
HETATM   24  C   UNL     1      -7.598  11.089  68.700  1.00  0.00    -0.124 A  
HETATM   25  C   UNL     1      -6.099   9.545  69.837  1.00  0.00    -0.044 A  
HETATM   26  F   UNL     1      -5.192   7.726  68.642  1.00  0.00    -0.022 F  
HETATM   27  C   UNL     1      -5.934   8.842  68.650  1.00  0.00    -0.045 A  
HETATM   28  C   UNL     1      -6.546   9.262  67.478  1.00  0.00    -0.064 A  
HETATM   29  C   UNL     1      -7.377  10.383  67.502  1.00  0.00    -0.092 A  
HETATM   30  C   UNL     1      -6.919  10.674  69.860  1.00  0.00    -0.148 A  
ENDBRANCH   8  24
ENDBRANCH   6   7
TORSDOF 2
ENDMDL
MODEL       85
REMARK 921   NORMALIZED FREE ENERGY PREDICTED BY IDOCK:   -5.27 KCAL/MOL
REMARK 922        TOTAL FREE ENERGY PREDICTED BY IDOCK:   -6.56 KCAL/MOL
REMARK 923 INTER-LIGAND FREE ENERGY PREDICTED BY IDOCK:   -5.69 KCAL/MOL
REMARK 924 INTRA-LIGAND FREE ENERGY PREDICTED BY IDOCK:   -0.87 KCAL/MOL
REMARK 927      BINDING AFFINITY PREDICTED BY RF-SCORE:    0.00 PKD
ROOT
HETATM    1  C   UNL     1      -6.279   9.225  71.417  1.00  0.00    -0.066 C  
HETATM    2  N   UNL     1      -7.508   8.728  71.983  1.00  0.00    -0.311 NA 
HETATM    3  N   UNL     1      -7.627   8.641  73.322  1.00  0.00    -0.381 NA 
HETATM    4  C   UNL     1      -8.853   8.138  73.453  1.00  0.00    -0.253 A  
HETATM    5  N   UNL     1      -9.487   7.853  72.283  1.00  0.00    -0.172 NA 
HETATM    6  C   UNL     1      -8.635   8.254  71.356  1.00  0.00    -0.149 A  
ENDROOT
BRANCH   6   7
HETATM    7  C   UNL     1      -8.878   8.171  69.868  1.00  0.00    -0.139 C  
HETATM    8  C   UNL     1     -10.313   8.624  69.516  1.00  0.00    -0.214 C  
HETATM    9  N   UNL     1     -10.968   7.866  68.450  1.00  0.00    -0.419 NA 
HETATM   10  C   UNL     1     -11.111   6.113  66.819  1.00  0.00    -0.230 A  
HETATM   11  H   UNL     1     -11.865   8.204  68.103  1.00  0.00     0.000 HD 
HETATM   12  C   UNL     1     -10.446   6.724  67.889  1.00  0.00    -0.218 A  
HETATM   13  F   UNL     1     -11.221   4.444  65.153  1.00  0.00    -0.368 F  
HETATM   14  C   UNL     1      -9.216   6.191  68.268  1.00  0.00    -0.114 A  
HETATM   15  C   UNL     1     -10.570   4.992  66.186  1.00  0.00    -0.265 A  
HETATM   16  C   UNL     1      -9.369   4.442  66.604  1.00  0.00    -0.169 A  
HETATM   17  C   UNL     1      -8.419   6.834  69.316  1.00  0.00    -0.129 C  
HETATM   18  C   UNL     1      -8.695   5.049  67.662  1.00  0.00    -0.103 A  
HETATM   19  N   UNL     1      -7.290   6.339  69.739  1.00  0.00    -0.077 NA 
HETATM   20  O   UNL     1      -6.953   3.474  67.685  1.00  0.00    -0.049 OA 
HETATM   21  H   UNL     1      -6.001   4.767  69.603  1.00  0.00     0.000 HD 
HETATM   22  N   UNL     1      -6.846   5.173  69.200  1.00  0.00    -0.052 N  
HETATM   23  C   UNL     1      -7.432   4.493  68.161  1.00  0.00    -0.065 C  
BRANCH   8  24
HETATM   24  C   UNL     1     -10.263  10.102  69.108  1.00  0.00    -0.229 A  
HETATM   25  C   UNL     1      -8.954  11.960  68.240  1.00  0.00    -0.178 A  
HETATM   26  F   UNL     1     -10.065  13.800  67.269  1.00  0.00    -0.230 F  
HETATM   27  C   UNL     1     -10.129  12.623  67.907  1.00  0.00    -0.222 A  
HETATM   28  C   UNL     1     -11.368  12.074  68.201  1.00  0.00    -0.349 A  
HETATM   29  C   UNL     1     -11.437  10.815  68.800  1.00  0.00    -0.364 A  
HETATM   30  C   UNL     1      -9.019  10.708  68.851  1.00  0.00    -0.172 A  
ENDBRANCH   8  24
ENDBRANCH   6   7
TORSDOF 2
ENDMDL
MODEL       86
REMARK 921   NORMALIZED FREE ENERGY PREDICTED BY IDOCK:   -5.21 KCAL/MOL
REMARK 922        TOTAL FREE ENERGY PREDICTED BY IDOCK:   -6.49 KCAL/MOL
REMARK 923 INTER-LIGAND FREE ENERGY PREDICTED BY IDOCK:   -5.48 KCAL/MOL
REMARK 924 INTRA-LIGAND FREE ENERGY PREDICTED BY IDOCK:   -1.01 KCAL/MOL
REMARK 927      BINDING AFFINITY PREDICTED BY RF-SCORE:    0.00 PKD
ROOT
HETATM    1  C   UNL     1     -10.524   8.391  67.094  1.00  0.00    -0.310 C  
HETATM    2  N   UNL     1      -9.272   8.612  66.416  1.00  0.00    -0.178 NA 
HETATM    3  N   UNL     1      -8.820   7.687  65.548  1.00  0.00    -0.058 NA 
HETATM    4  C   UNL     1      -7.666   8.222  65.155  1.00  0.00    -0.102 A  
HETATM    5  N   UNL     1      -7.339   9.396  65.763  1.00  0.00    -0.094 NA 
HETATM    6  C   UNL     1      -8.376   9.647  66.543  1.00  0.00    -0.120 A  
ENDROOT
BRANCH   6   7
HETATM    7  C   UNL     1      -8.514  10.863  67.428  1.00  0.00    -0.120 C  
HETATM    8  C   UNL     1      -8.541  12.159  66.588  1.00  0.00    -0.122 C  
HETATM    9  N   UNL     1      -7.838  13.301  67.171  1.00  0.00    -0.368 NA 
HETATM   10  C   UNL     1      -6.489  14.393  68.827  1.00  0.00    -0.087 A  
HETATM   11  H   UNL     1      -7.931  14.207  66.712  1.00  0.00     0.000 HD 
HETATM   12  C   UNL     1      -7.059  13.227  68.301  1.00  0.00    -0.109 A  
HETATM   13  F   UNL     1      -5.235  15.493  70.497  1.00  0.00    -0.117 F  
HETATM   14  C   UNL     1      -6.886  12.047  69.022  1.00  0.00    -0.105 A  
HETATM   15  C   UNL     1      -5.749  14.358  70.010  1.00  0.00    -0.121 A  
HETATM   16  C   UNL     1      -5.543  13.169  70.692  1.00  0.00    -0.179 A  
HETATM   17  C   UNL     1      -7.532  10.807  68.584  1.00  0.00    -0.102 C  
HETATM   18  C   UNL     1      -6.114  12.005  70.182  1.00  0.00    -0.131 A  
HETATM   19  N   UNL     1      -7.352   9.671  69.197  1.00  0.00    -0.074 NA 
HETATM   20  O   UNL     1      -5.211  10.621  71.852  1.00  0.00    -0.259 OA 
HETATM   21  H   UNL     1      -6.338   8.718  70.684  1.00  0.00     0.000 HD 
HETATM   22  N   UNL     1      -6.521   9.633  70.271  1.00  0.00    -0.071 N  
HETATM   23  C   UNL     1      -5.906  10.715  70.851  1.00  0.00    -0.041 C  
BRANCH   8  24
HETATM   24  C   UNL     1     -10.007  12.550  66.357  1.00  0.00    -0.262 A  
HETATM   25  C   UNL     1     -11.833  14.087  66.830  1.00  0.00    -0.458 A  
HETATM   26  F   UNL     1     -13.650  14.216  65.333  1.00  0.00    -0.346 F  
HETATM   27  C   UNL     1     -12.492  13.644  65.691  1.00  0.00    -0.496 A  
HETATM   28  C   UNL     1     -11.958  12.635  64.902  1.00  0.00    -0.459 A  
HETATM   29  C   UNL     1     -10.717  12.089  65.233  1.00  0.00    -0.331 A  
HETATM   30  C   UNL     1     -10.598  13.533  67.172  1.00  0.00    -0.264 A  
ENDBRANCH   8  24
ENDBRANCH   6   7
TORSDOF 2
ENDMDL
MODEL       87
REMARK 921   NORMALIZED FREE ENERGY PREDICTED BY IDOCK:   -5.19 KCAL/MOL
REMARK 922        TOTAL FREE ENERGY PREDICTED BY IDOCK:   -6.48 KCAL/MOL
REMARK 923 INTER-LIGAND FREE ENERGY PREDICTED BY IDOCK:   -5.48 KCAL/MOL
REMARK 924 INTRA-LIGAND FREE ENERGY PREDICTED BY IDOCK:   -1.00 KCAL/MOL
REMARK 927      BINDING AFFINITY PREDICTED BY RF-SCORE:    0.00 PKD
ROOT
HETATM    1  C   UNL     1      -7.962   7.445  65.537  1.00  0.00    -0.122 C  
HETATM    2  N   UNL     1      -8.919   8.321  66.164  1.00  0.00    -0.172 NA 
HETATM    3  N   UNL     1      -9.267   9.466  65.547  1.00  0.00    -0.217 NA 
HETATM    4  C   UNL     1     -10.126   9.994  66.416  1.00  0.00    -0.241 A  
HETATM    5  N   UNL     1     -10.297   9.281  67.563  1.00  0.00    -0.245 NA 
HETATM    6  C   UNL     1      -9.545   8.209  67.383  1.00  0.00    -0.160 A  
ENDROOT
BRANCH   6   7
HETATM    7  C   UNL     1      -9.403   7.080  68.376  1.00  0.00    -0.130 C  
HETATM    8  C   UNL     1     -10.618   6.127  68.309  1.00  0.00    -0.262 C  
HETATM    9  N   UNL     1     -11.073   5.599  69.594  1.00  0.00    -0.243 NA 
HETATM   10  C   UNL     1     -11.034   5.396  71.984  1.00  0.00    -0.244 A  
HETATM   11  H   UNL     1     -11.792   4.875  69.587  1.00  0.00     0.000 HD 
HETATM   12  C   UNL     1     -10.590   6.018  70.811  1.00  0.00    -0.255 A  
HETATM   13  F   UNL     1     -10.941   5.126  74.327  1.00  0.00    -0.313 F  
HETATM   14  C   UNL     1      -9.589   6.979  70.935  1.00  0.00    -0.167 A  
HETATM   15  C   UNL     1     -10.511   5.755  73.227  1.00  0.00    -0.233 A  
HETATM   16  C   UNL     1      -9.550   6.747  73.342  1.00  0.00    -0.195 A  
HETATM   17  C   UNL     1      -9.009   7.606  69.743  1.00  0.00    -0.140 C  
HETATM   18  C   UNL     1      -9.095   7.367  72.179  1.00  0.00    -0.156 A  
HETATM   19  N   UNL     1      -8.111   8.547  69.815  1.00  0.00    -0.113 NA 
HETATM   20  O   UNL     1      -7.659   8.838  73.316  1.00  0.00    -0.381 OA 
HETATM   21  H   UNL     1      -7.066   9.766  71.070  1.00  0.00     0.000 HD 
HETATM   22  N   UNL     1      -7.711   8.976  71.041  1.00  0.00    -0.129 N  
HETATM   23  C   UNL     1      -8.097   8.441  72.246  1.00  0.00    -0.127 C  
BRANCH   8  24
HETATM   24  C   UNL     1     -10.255   4.951  67.394  1.00  0.00    -0.173 A  
HETATM   25  C   UNL     1     -10.143   4.048  65.138  1.00  0.00    -0.189 A  
HETATM   26  F   UNL     1      -8.685   2.252  64.684  1.00  0.00    -0.089 F  
HETATM   27  C   UNL     1      -9.229   3.096  65.570  1.00  0.00    -0.145 A  
HETATM   28  C   UNL     1      -8.850   3.022  66.903  1.00  0.00    -0.158 A  
HETATM   29  C   UNL     1      -9.361   3.948  67.814  1.00  0.00    -0.230 A  
HETATM   30  C   UNL     1     -10.666   4.966  66.049  1.00  0.00    -0.247 A  
ENDBRANCH   8  24
ENDBRANCH   6   7
TORSDOF 2
ENDMDL
MODEL       88
REMARK 921   NORMALIZED FREE ENERGY PREDICTED BY IDOCK:   -5.15 KCAL/MOL
REMARK 922        TOTAL FREE ENERGY PREDICTED BY IDOCK:   -6.43 KCAL/MOL
REMARK 923 INTER-LIGAND FREE ENERGY PREDICTED BY IDOCK:   -5.62 KCAL/MOL
REMARK 924 INTRA-LIGAND FREE ENERGY PREDICTED BY IDOCK:   -0.81 KCAL/MOL
REMARK 927      BINDING AFFINITY PREDICTED BY RF-SCORE:    0.00 PKD
ROOT
HETATM    1  C   UNL     1     -10.853   7.103  66.973  1.00  0.00    -0.312 C  
HETATM    2  N   UNL     1      -9.417   7.188  67.058  1.00  0.00    -0.147 NA 
HETATM    3  N   UNL     1      -8.680   7.004  65.946  1.00  0.00    -0.145 NA 
HETATM    4  C   UNL     1      -7.441   7.136  66.415  1.00  0.00    -0.087 A  
HETATM    5  N   UNL     1      -7.352   7.335  67.759  1.00  0.00    -0.091 NA 
HETATM    6  C   UNL     1      -8.612   7.391  68.154  1.00  0.00    -0.123 A  
ENDROOT
BRANCH   6   7
HETATM    7  C   UNL     1      -9.060   7.618  69.578  1.00  0.00    -0.146 C  
HETATM    8  C   UNL     1      -9.616   6.316  70.198  1.00  0.00    -0.162 C  
HETATM    9  N   UNL     1     -10.773   6.482  71.077  1.00  0.00    -0.234 NA 
HETATM   10  C   UNL     1     -12.496   7.747  72.165  1.00  0.00    -0.277 A  
HETATM   11  H   UNL     1     -11.098   5.670  71.601  1.00  0.00     0.000 HD 
HETATM   12  C   UNL     1     -11.448   7.669  71.240  1.00  0.00    -0.269 A  
HETATM   13  F   UNL     1     -14.139   9.001  73.306  1.00  0.00    -0.255 F  
HETATM   14  C   UNL     1     -11.073   8.845  70.595  1.00  0.00    -0.306 A  
HETATM   15  C   UNL     1     -13.155   8.956  72.400  1.00  0.00    -0.418 A  
HETATM   16  C   UNL     1     -12.804  10.108  71.716  1.00  0.00    -0.554 A  
HETATM   17  C   UNL     1      -9.924   8.860  69.685  1.00  0.00    -0.191 C  
HETATM   18  C   UNL     1     -11.756  10.043  70.800  1.00  0.00    -0.437 A  
HETATM   19  N   UNL     1      -9.573   9.924  69.020  1.00  0.00    -0.177 NA 
HETATM   20  O   UNL     1     -11.951  12.292  70.151  1.00  0.00    -0.334 OA 
HETATM   21  H   UNL     1     -10.060  11.851  68.573  1.00  0.00     0.000 HD 
HETATM   22  N   UNL     1     -10.310  11.056  69.163  1.00  0.00    -0.210 N  
HETATM   23  C   UNL     1     -11.360  11.228  70.030  1.00  0.00    -0.208 C  
BRANCH   8  24
HETATM   24  C   UNL     1      -8.489   5.642  70.990  1.00  0.00    -0.122 A  
HETATM   25  C   UNL     1      -6.538   5.891  72.423  1.00  0.00    -0.067 A  
HETATM   26  F   UNL     1      -5.853   4.078  73.766  1.00  0.00    -0.006 F  
HETATM   27  C   UNL     1      -6.677   4.571  72.832  1.00  0.00    -0.056 A  
HETATM   28  C   UNL     1      -7.675   3.761  72.307  1.00  0.00    -0.067 A  
HETATM   29  C   UNL     1      -8.580   4.295  71.389  1.00  0.00    -0.123 A  
HETATM   30  C   UNL     1      -7.433   6.424  71.495  1.00  0.00    -0.090 A  
ENDBRANCH   8  24
ENDBRANCH   6   7
TORSDOF 2
ENDMDL
MODEL       89
REMARK 921   NORMALIZED FREE ENERGY PREDICTED BY IDOCK:   -5.14 KCAL/MOL
REMARK 922        TOTAL FREE ENERGY PREDICTED BY IDOCK:   -6.42 KCAL/MOL
REMARK 923 INTER-LIGAND FREE ENERGY PREDICTED BY IDOCK:   -5.63 KCAL/MOL
REMARK 924 INTRA-LIGAND FREE ENERGY PREDICTED BY IDOCK:   -0.79 KCAL/MOL
REMARK 927      BINDING AFFINITY PREDICTED BY RF-SCORE:    0.00 PKD
ROOT
HETATM    1  C   UNL     1      -8.683  11.948  67.807  1.00  0.00    -0.158 C  
HETATM    2  N   UNL     1      -7.850  11.351  68.820  1.00  0.00    -0.140 NA 
HETATM    3  N   UNL     1      -6.792  12.037  69.291  1.00  0.00    -0.094 NA 
HETATM    4  C   UNL     1      -6.277  11.177  70.168  1.00  0.00    -0.147 A  
HETATM    5  N   UNL     1      -6.912   9.975  70.235  1.00  0.00    -0.143 NA 
HETATM    6  C   UNL     1      -7.923  10.104  69.394  1.00  0.00    -0.154 A  
ENDROOT
BRANCH   6   7
HETATM    7  C   UNL     1      -8.955   9.037  69.117  1.00  0.00    -0.140 C  
HETATM    8  C   UNL     1      -9.540   8.477  70.433  1.00  0.00    -0.172 C  
HETATM    9  N   UNL     1      -9.806   7.039  70.441  1.00  0.00    -0.179 NA 
HETATM   10  C   UNL     1      -9.799   4.834  69.496  1.00  0.00    -0.292 A  
HETATM   11  H   UNL     1     -10.303   6.648  71.242  1.00  0.00     0.000 HD 
HETATM   12  C   UNL     1      -9.429   6.183  69.434  1.00  0.00    -0.138 A  
HETATM   13  F   UNL     1      -9.874   2.679  68.537  1.00  0.00    -0.219 F  
HETATM   14  C   UNL     1      -8.772   6.615  68.283  1.00  0.00    -0.118 A  
HETATM   15  C   UNL     1      -9.487   3.957  68.456  1.00  0.00    -0.148 A  
HETATM   16  C   UNL     1      -8.791   4.389  67.338  1.00  0.00    -0.116 A  
HETATM   17  C   UNL     1      -8.438   8.031  68.106  1.00  0.00    -0.123 C  
HETATM   18  C   UNL     1      -8.426   5.732  67.262  1.00  0.00    -0.107 A  
HETATM   19  N   UNL     1      -7.776   8.469  67.072  1.00  0.00    -0.092 NA 
HETATM   20  O   UNL     1      -7.310   5.493  65.209  1.00  0.00    -0.069 OA 
HETATM   21  H   UNL     1      -6.784   7.934  65.375  1.00  0.00     0.000 HD 
HETATM   22  N   UNL     1      -7.366   7.576  66.133  1.00  0.00    -0.080 N  
HETATM   23  C   UNL     1      -7.665   6.236  66.113  1.00  0.00    -0.096 C  
BRANCH   8  24
HETATM   24  C   UNL     1     -10.847   9.221  70.732  1.00  0.00    -0.349 A  
HETATM   25  C   UNL     1     -12.711   9.592  72.251  1.00  0.00    -0.362 A  
HETATM   26  F   UNL     1     -13.945  11.596  72.097  1.00  0.00    -0.231 F  
HETATM   27  C   UNL     1     -12.972  10.805  71.626  1.00  0.00    -0.476 A  
HETATM   28  C   UNL     1     -12.222  11.222  70.535  1.00  0.00    -0.474 A  
HETATM   29  C   UNL     1     -11.161  10.433  70.089  1.00  0.00    -0.393 A  
HETATM   30  C   UNL     1     -11.659   8.795  71.798  1.00  0.00    -0.416 A  
ENDBRANCH   8  24
ENDBRANCH   6   7
TORSDOF 2
ENDMDL
MODEL       90
REMARK 921   NORMALIZED FREE ENERGY PREDICTED BY IDOCK:   -5.13 KCAL/MOL
REMARK 922        TOTAL FREE ENERGY PREDICTED BY IDOCK:   -6.41 KCAL/MOL
REMARK 923 INTER-LIGAND FREE ENERGY PREDICTED BY IDOCK:   -5.58 KCAL/MOL
REMARK 924 INTRA-LIGAND FREE ENERGY PREDICTED BY IDOCK:   -0.83 KCAL/MOL
REMARK 927      BINDING AFFINITY PREDICTED BY RF-SCORE:    0.00 PKD
ROOT
HETATM    1  C   UNL     1      -7.173   6.925  66.099  1.00  0.00    -0.074 C  
HETATM    2  N   UNL     1      -7.827   7.854  65.212  1.00  0.00    -0.104 NA 
HETATM    3  N   UNL     1      -7.630   7.747  63.885  1.00  0.00    -0.111 NA 
HETATM    4  C   UNL     1      -8.359   8.758  63.418  1.00  0.00    -0.156 A  
HETATM    5  N   UNL     1      -8.955   9.526  64.372  1.00  0.00    -0.228 NA 
HETATM    6  C   UNL     1      -8.631   8.929  65.506  1.00  0.00    -0.168 A  
ENDROOT
BRANCH   6   7
HETATM    7  C   UNL     1      -9.068   9.389  66.876  1.00  0.00    -0.160 C  
HETATM    8  C   UNL     1     -10.457   8.815  67.235  1.00  0.00    -0.283 C  
HETATM    9  N   UNL     1     -11.341   9.720  67.969  1.00  0.00    -0.499 NA 
HETATM   10  C   UNL     1     -11.933  11.813  68.982  1.00  0.00    -0.341 A  
HETATM   11  H   UNL     1     -12.217   9.346  68.332  1.00  0.00     0.000 HD 
HETATM   12  C   UNL     1     -11.060  11.046  68.201  1.00  0.00    -0.270 A  
HETATM   13  F   UNL     1     -12.485  13.841  70.056  1.00  0.00    -0.364 F  
HETATM   14  C   UNL     1      -9.879  11.653  67.776  1.00  0.00    -0.186 A  
HETATM   15  C   UNL     1     -11.639  13.142  69.289  1.00  0.00    -0.314 A  
HETATM   16  C   UNL     1     -10.485  13.749  68.820  1.00  0.00    -0.224 A  
HETATM   17  C   UNL     1      -8.874  10.885  67.035  1.00  0.00    -0.140 C  
HETATM   18  C   UNL     1      -9.605  12.992  68.049  1.00  0.00    -0.224 A  
HETATM   19  N   UNL     1      -7.783  11.427  66.572  1.00  0.00    -0.130 NA 
HETATM   20  O   UNL     1      -8.113  14.770  67.690  1.00  0.00    -0.144 OA 
HETATM   21  H   UNL     1      -6.756  13.169  66.329  1.00  0.00     0.000 HD 
HETATM   22  N   UNL     1      -7.579  12.755  66.768  1.00  0.00     0.187 N  
HETATM   23  C   UNL     1      -8.381  13.592  67.506  1.00  0.00    -0.184 C  
BRANCH   8  24
HETATM   24  C   UNL     1     -10.250   7.545  68.071  1.00  0.00    -0.239 A  
HETATM   25  C   UNL     1     -10.207   6.506  70.270  1.00  0.00    -0.227 A  
HETATM   26  F   UNL     1     -10.476   4.170  70.448  1.00  0.00    -0.138 F  
HETATM   27  C   UNL     1     -10.356   5.259  69.677  1.00  0.00    -0.278 A  
HETATM   28  C   UNL     1     -10.408   5.125  68.297  1.00  0.00    -0.140 A  
HETATM   29  C   UNL     1     -10.356   6.266  67.494  1.00  0.00    -0.249 A  
HETATM   30  C   UNL     1     -10.141   7.647  69.470  1.00  0.00    -0.192 A  
ENDBRANCH   8  24
ENDBRANCH   6   7
TORSDOF 2
ENDMDL
MODEL       91
REMARK 921   NORMALIZED FREE ENERGY PREDICTED BY IDOCK:   -5.10 KCAL/MOL
REMARK 922        TOTAL FREE ENERGY PREDICTED BY IDOCK:   -6.37 KCAL/MOL
REMARK 923 INTER-LIGAND FREE ENERGY PREDICTED BY IDOCK:   -5.53 KCAL/MOL
REMARK 924 INTRA-LIGAND FREE ENERGY PREDICTED BY IDOCK:   -0.85 KCAL/MOL
REMARK 927      BINDING AFFINITY PREDICTED BY RF-SCORE:    0.00 PKD
ROOT
HETATM    1  C   UNL     1      -7.352  11.134  67.744  1.00  0.00    -0.093 C  
HETATM    2  N   UNL     1      -6.906  10.889  69.092  1.00  0.00    -0.076 NA 
HETATM    3  N   UNL     1      -5.787  11.493  69.536  1.00  0.00    -0.068 NA 
HETATM    4  C   UNL     1      -5.695  11.018  70.777  1.00  0.00    -0.095 A  
HETATM    5  N   UNL     1      -6.653  10.114  71.120  1.00  0.00    -0.320 NA 
HETATM    6  C   UNL     1      -7.430  10.057  70.052  1.00  0.00    -0.173 A  
ENDROOT
BRANCH   6   7
HETATM    7  C   UNL     1      -8.666   9.197  69.931  1.00  0.00    -0.170 C  
HETATM    8  C   UNL     1      -9.901   9.918  70.516  1.00  0.00    -0.056 C  
HETATM    9  N   UNL     1     -10.842   9.065  71.242  1.00  0.00    -0.286 NA 
HETATM   10  C   UNL     1     -11.600   6.990  72.176  1.00  0.00    -0.320 A  
HETATM   11  H   UNL     1     -11.728   9.473  71.540  1.00  0.00     0.000 HD 
HETATM   12  C   UNL     1     -10.604   7.746  71.546  1.00  0.00    -0.213 A  
HETATM   13  F   UNL     1     -12.391   4.933  73.021  1.00  0.00    -0.322 F  
HETATM   14  C   UNL     1      -9.441   7.081  71.163  1.00  0.00    -0.165 A  
HETATM   15  C   UNL     1     -11.411   5.631  72.436  1.00  0.00    -0.251 A  
HETATM   16  C   UNL     1     -10.230   4.993  72.094  1.00  0.00    -0.259 A  
HETATM   17  C   UNL     1      -8.395   7.785  70.415  1.00  0.00    -0.123 C  
HETATM   18  C   UNL     1      -9.236   5.734  71.458  1.00  0.00    -0.159 A  
HETATM   19  N   UNL     1      -7.269   7.217  70.086  1.00  0.00    -0.072 NA 
HETATM   20  O   UNL     1      -7.717   3.945  71.364  1.00  0.00    -0.057 OA 
HETATM   21  H   UNL     1      -6.132   5.537  70.262  1.00  0.00     0.000 HD 
HETATM   22  N   UNL     1      -7.051   5.931  70.465  1.00  0.00    -0.068 N  
HETATM   23  C   UNL     1      -7.956   5.114  71.096  1.00  0.00    -0.103 C  
BRANCH   8  24
HETATM   24  C   UNL     1     -10.647  10.603  69.364  1.00  0.00    -0.270 A  
HETATM   25  C   UNL     1     -11.592  12.646  68.441  1.00  0.00    -0.370 A  
HETATM   26  F   UNL     1     -11.958  12.802  66.117  1.00  0.00    -0.405 F  
HETATM   27  C   UNL     1     -11.577  12.074  67.175  1.00  0.00    -0.316 A  
HETATM   28  C   UNL     1     -11.150  10.768  66.986  1.00  0.00    -0.245 A  
HETATM   29  C   UNL     1     -10.684  10.033  68.077  1.00  0.00    -0.303 A  
HETATM   30  C   UNL     1     -11.140  11.909  69.536  1.00  0.00    -0.169 A  
ENDBRANCH   8  24
ENDBRANCH   6   7
TORSDOF 2
ENDMDL
MODEL       92
REMARK 921   NORMALIZED FREE ENERGY PREDICTED BY IDOCK:   -5.07 KCAL/MOL
REMARK 922        TOTAL FREE ENERGY PREDICTED BY IDOCK:   -6.34 KCAL/MOL
REMARK 923 INTER-LIGAND FREE ENERGY PREDICTED BY IDOCK:   -5.58 KCAL/MOL
REMARK 924 INTRA-LIGAND FREE ENERGY PREDICTED BY IDOCK:   -0.77 KCAL/MOL
REMARK 927      BINDING AFFINITY PREDICTED BY RF-SCORE:    0.00 PKD
ROOT
HETATM    1  C   UNL     1      -6.704   8.507  68.815  1.00  0.00    -0.058 C  
HETATM    2  N   UNL     1      -7.739   9.404  68.365  1.00  0.00    -0.085 NA 
HETATM    3  N   UNL     1      -7.431  10.692  68.119  1.00  0.00    -0.088 NA 
HETATM    4  C   UNL     1      -8.612  11.189  67.754  1.00  0.00    -0.131 A  
HETATM    5  N   UNL     1      -9.649  10.308  67.810  1.00  0.00    -0.151 NA 
HETATM    6  C   UNL     1      -9.080   9.173  68.175  1.00  0.00    -0.132 A  
ENDROOT
BRANCH   6   7
HETATM    7  C   UNL     1      -9.811   7.865  68.365  1.00  0.00    -0.185 C  
HETATM    8  C   UNL     1      -9.826   7.450  69.853  1.00  0.00    -0.178 C  
HETATM    9  N   UNL     1      -9.672   6.019  70.109  1.00  0.00    -0.164 NA 
HETATM   10  C   UNL     1      -9.319   3.734  69.466  1.00  0.00    -0.249 A  
HETATM   11  H   UNL     1      -9.796   5.685  71.065  1.00  0.00     0.000 HD 
HETATM   12  C   UNL     1      -9.369   5.094  69.137  1.00  0.00    -0.124 A  
HETATM   13  F   UNL     1      -9.060   1.476  68.832  1.00  0.00    -0.103 F  
HETATM   14  C   UNL     1      -9.206   5.435  67.796  1.00  0.00    -0.115 A  
HETATM   15  C   UNL     1      -9.081   2.768  68.487  1.00  0.00    -0.163 A  
HETATM   16  C   UNL     1      -8.872   3.124  67.164  1.00  0.00    -0.155 A  
HETATM   17  C   UNL     1      -9.340   6.829  67.362  1.00  0.00    -0.130 C  
HETATM   18  C   UNL     1      -8.929   4.475  66.824  1.00  0.00    -0.115 A  
HETATM   19  N   UNL     1      -9.141   7.199  66.128  1.00  0.00    -0.151 NA 
HETATM   20  O   UNL     1      -8.410   4.107  64.563  1.00  0.00    -0.100 OA 
HETATM   21  H   UNL     1      -8.555   6.588  64.275  1.00  0.00     0.000 HD 
HETATM   22  N   UNL     1      -8.779   6.260  65.215  1.00  0.00    -0.060 N  
HETATM   23  C   UNL     1      -8.690   4.909  65.443  1.00  0.00    -0.143 C  
BRANCH   8  24
HETATM   24  C   UNL     1     -11.151   7.919  70.468  1.00  0.00    -0.260 A  
HETATM   25  C   UNL     1     -13.222   7.333  71.602  1.00  0.00    -0.421 A  
HETATM   26  F   UNL     1     -14.381   8.989  72.818  1.00  0.00    -0.482 F  
HETATM   27  C   UNL     1     -13.360   8.652  72.018  1.00  0.00    -0.392 A  
HETATM   28  C   UNL     1     -12.442   9.621  71.639  1.00  0.00    -0.494 A  
HETATM   29  C   UNL     1     -11.339   9.256  70.866  1.00  0.00    -0.373 A  
HETATM   30  C   UNL     1     -12.127   6.969  70.818  1.00  0.00    -0.374 A  
ENDBRANCH   8  24
ENDBRANCH   6   7
TORSDOF 2
ENDMDL
MODEL       93
REMARK 921   NORMALIZED FREE ENERGY PREDICTED BY IDOCK:   -5.04 KCAL/MOL
REMARK 922        TOTAL FREE ENERGY PREDICTED BY IDOCK:   -6.31 KCAL/MOL
REMARK 923 INTER-LIGAND FREE ENERGY PREDICTED BY IDOCK:   -5.46 KCAL/MOL
REMARK 924 INTRA-LIGAND FREE ENERGY PREDICTED BY IDOCK:   -0.85 KCAL/MOL
REMARK 927      BINDING AFFINITY PREDICTED BY RF-SCORE:    0.00 PKD
ROOT
HETATM    1  C   UNL     1     -12.060  10.380  71.101  1.00  0.00    -0.386 C  
HETATM    2  N   UNL     1     -12.248   8.953  71.182  1.00  0.00    -0.282 NA 
HETATM    3  N   UNL     1     -13.434   8.468  71.596  1.00  0.00    -0.350 NA 
HETATM    4  C   UNL     1     -13.219   7.155  71.558  1.00  0.00    -0.360 A  
HETATM    5  N   UNL     1     -11.958   6.788  71.201  1.00  0.00    -0.357 NA 
HETATM    6  C   UNL     1     -11.357   7.936  70.941  1.00  0.00    -0.277 A  
ENDROOT
BRANCH   6   7
HETATM    7  C   UNL     1      -9.926   8.073  70.479  1.00  0.00    -0.193 C  
HETATM    8  C   UNL     1      -9.078   8.834  71.524  1.00  0.00    -0.252 C  
HETATM    9  N   UNL     1      -8.080   9.752  70.976  1.00  0.00    -0.319 NA 
HETATM   10  C   UNL     1      -6.940  10.897  69.203  1.00  0.00    -0.096 A  
HETATM   11  H   UNL     1      -7.419  10.183  71.622  1.00  0.00     0.000 HD 
HETATM   12  C   UNL     1      -7.979  10.068  69.641  1.00  0.00    -0.170 A  
HETATM   13  F   UNL     1      -5.757  11.960  67.458  1.00  0.00    -0.055 F  
HETATM   14  C   UNL     1      -8.812   9.515  68.670  1.00  0.00    -0.132 A  
HETATM   15  C   UNL     1      -6.773  11.180  67.846  1.00  0.00    -0.063 A  
HETATM   16  C   UNL     1      -7.638  10.664  66.894  1.00  0.00    -0.115 A  
HETATM   17  C   UNL     1      -9.862   8.564  69.045  1.00  0.00    -0.183 C  
HETATM   18  C   UNL     1      -8.670   9.830  67.319  1.00  0.00    -0.135 A  
HETATM   19  N   UNL     1     -10.697   8.067  68.177  1.00  0.00    -0.098 NA 
HETATM   20  O   UNL     1      -9.566   9.549  65.166  1.00  0.00    -0.280 OA 
HETATM   21  H   UNL     1     -11.314   8.115  66.236  1.00  0.00     0.000 HD 
HETATM   22  N   UNL     1     -10.601   8.459  66.880  1.00  0.00    -0.280 N  
HETATM   23  C   UNL     1      -9.629   9.276  66.356  1.00  0.00    -0.238 C  
BRANCH   8  24
HETATM   24  C   UNL     1      -8.365   7.802  72.406  1.00  0.00    -0.164 A  
HETATM   25  C   UNL     1      -7.100   5.728  72.546  1.00  0.00    -0.085 A  
HETATM   26  F   UNL     1      -5.778   5.309  74.454  1.00  0.00    -0.033 F  
HETATM   27  C   UNL     1      -6.652   6.094  73.810  1.00  0.00    -0.075 A  
HETATM   28  C   UNL     1      -7.078   7.272  74.405  1.00  0.00    -0.111 A  
HETATM   29  C   UNL     1      -7.932   8.126  73.706  1.00  0.00    -0.266 A  
HETATM   30  C   UNL     1      -7.964   6.573  71.850  1.00  0.00    -0.103 A  
ENDBRANCH   8  24
ENDBRANCH   6   7
TORSDOF 2
ENDMDL
MODEL       94
REMARK 921   NORMALIZED FREE ENERGY PREDICTED BY IDOCK:   -4.93 KCAL/MOL
REMARK 922        TOTAL FREE ENERGY PREDICTED BY IDOCK:   -6.18 KCAL/MOL
REMARK 923 INTER-LIGAND FREE ENERGY PREDICTED BY IDOCK:   -6.12 KCAL/MOL
REMARK 924 INTRA-LIGAND FREE ENERGY PREDICTED BY IDOCK:   -0.06 KCAL/MOL
REMARK 927      BINDING AFFINITY PREDICTED BY RF-SCORE:    0.00 PKD
ROOT
HETATM    1  C   UNL     1     -12.660  11.312  69.664  1.00  0.00     0.022 C  
HETATM    2  N   UNL     1     -12.234  12.588  70.183  1.00  0.00    -0.276 NA 
HETATM    3  N   UNL     1     -12.811  13.068  71.301  1.00  0.00    -0.333 NA 
HETATM    4  C   UNL     1     -12.187  14.235  71.449  1.00  0.00    -0.331 A  
HETATM    5  N   UNL     1     -11.298  14.542  70.465  1.00  0.00    -0.176 NA 
HETATM    6  C   UNL     1     -11.318  13.479  69.680  1.00  0.00    -0.152 A  
ENDROOT
BRANCH   6   7
HETATM    7  C   UNL     1     -10.479  13.312  68.435  1.00  0.00    -0.261 C  
HETATM    8  C   UNL     1     -11.228  13.835  67.189  1.00  0.00    -0.311 C  
HETATM    9  N   UNL     1     -11.040  13.052  65.968  1.00  0.00    -0.275 NA 
HETATM   10  C   UNL     1     -10.188  11.206  64.694  1.00  0.00    -0.376 A  
HETATM   11  H   UNL     1     -11.416  13.424  65.096  1.00  0.00     0.000 HD 
HETATM   12  C   UNL     1     -10.386  11.843  65.925  1.00  0.00    -0.242 A  
HETATM   13  F   UNL     1      -9.281   9.440  63.417  1.00  0.00    -0.259 F  
HETATM   14  C   UNL     1      -9.810  11.256  67.050  1.00  0.00    -0.217 A  
HETATM   15  C   UNL     1      -9.469  10.012  64.612  1.00  0.00    -0.305 A  
HETATM   16  C   UNL     1      -8.944   9.413  65.745  1.00  0.00    -0.227 A  
HETATM   17  C   UNL     1      -9.895  11.914  68.356  1.00  0.00    -0.201 C  
HETATM   18  C   UNL     1      -9.127  10.043  66.975  1.00  0.00    -0.159 A  
HETATM   19  N   UNL     1      -9.419  11.374  69.443  1.00  0.00     0.301 NA 
HETATM   20  O   UNL     1      -8.036   8.362  68.198  1.00  0.00    -0.115 OA 
HETATM   21  H   UNL     1      -8.545   9.716  70.239  1.00  0.00     0.000 HD 
HETATM   22  N   UNL     1      -8.839  10.149  69.363  1.00  0.00    -0.181 N  
HETATM   23  C   UNL     1      -8.612   9.440  68.209  1.00  0.00    -0.120 C  
BRANCH   8  24
HETATM   24  C   UNL     1     -10.772  15.275  66.924  1.00  0.00    -0.313 A  
HETATM   25  C   UNL     1     -10.660  17.580  67.695  1.00  0.00    -0.355 A  
HETATM   26  F   UNL     1      -9.023  19.020  66.797  1.00  0.00    -0.275 F  
HETATM   27  C   UNL     1      -9.621  17.821  66.805  1.00  0.00    -0.300 A  
HETATM   28  C   UNL     1      -9.175  16.830  65.942  1.00  0.00    -0.142 A  
HETATM   29  C   UNL     1      -9.748  15.559  66.001  1.00  0.00    -0.378 A  
HETATM   30  C   UNL     1     -11.244  16.314  67.747  1.00  0.00    -0.163 A  
ENDBRANCH   8  24
ENDBRANCH   6   7
TORSDOF 2
ENDMDL
MODEL       95
REMARK 921   NORMALIZED FREE ENERGY PREDICTED BY IDOCK:   -4.92 KCAL/MOL
REMARK 922        TOTAL FREE ENERGY PREDICTED BY IDOCK:   -6.17 KCAL/MOL
REMARK 923 INTER-LIGAND FREE ENERGY PREDICTED BY IDOCK:   -5.38 KCAL/MOL
REMARK 924 INTRA-LIGAND FREE ENERGY PREDICTED BY IDOCK:   -0.79 KCAL/MOL
REMARK 927      BINDING AFFINITY PREDICTED BY RF-SCORE:    0.00 PKD
ROOT
HETATM    1  C   UNL     1     -11.249   6.373  67.506  1.00  0.00    -0.179 C  
HETATM    2  N   UNL     1      -9.835   6.104  67.568  1.00  0.00    -0.119 NA 
HETATM    3  N   UNL     1      -9.370   4.920  67.126  1.00  0.00    -0.124 NA 
HETATM    4  C   UNL     1      -8.065   5.036  67.358  1.00  0.00    -0.103 A  
HETATM    5  N   UNL     1      -7.689   6.193  67.968  1.00  0.00    -0.101 NA 
HETATM    6  C   UNL     1      -8.816   6.875  68.075  1.00  0.00    -0.123 A  
ENDROOT
BRANCH   6   7
HETATM    7  C   UNL     1      -8.936   8.254  68.677  1.00  0.00    -0.137 C  
HETATM    8  C   UNL     1      -9.774   8.221  69.975  1.00  0.00    -0.176 C  
HETATM    9  N   UNL     1     -10.662   9.365  70.180  1.00  0.00    -0.228 NA 
HETATM   10  C   UNL     1     -11.693  11.439  69.555  1.00  0.00    -0.417 A  
HETATM   11  H   UNL     1     -11.142   9.446  71.076  1.00  0.00     0.000 HD 
HETATM   12  C   UNL     1     -10.887  10.340  69.236  1.00  0.00    -0.238 A  
HETATM   13  F   UNL     1     -12.645  13.523  68.984  1.00  0.00    -0.259 F  
HETATM   14  C   UNL     1     -10.261  10.344  67.991  1.00  0.00    -0.199 A  
HETATM   15  C   UNL     1     -11.884  12.477  68.640  1.00  0.00    -0.297 A  
HETATM   16  C   UNL     1     -11.296  12.445  67.386  1.00  0.00    -0.381 A  
HETATM   17  C   UNL     1      -9.328   9.275  67.625  1.00  0.00    -0.128 C  
HETATM   18  C   UNL     1     -10.483  11.360  67.063  1.00  0.00    -0.271 A  
HETATM   19  N   UNL     1      -8.764   9.210  66.452  1.00  0.00    -0.127 NA 
HETATM   20  O   UNL     1     -10.047  12.112  64.881  1.00  0.00    -0.266 OA 
HETATM   21  H   UNL     1      -8.673  10.042  64.595  1.00  0.00     0.000 HD 
HETATM   22  N   UNL     1      -9.067  10.159  65.529  1.00  0.00    -0.166 N  
HETATM   23  C   UNL     1      -9.856  11.264  65.740  1.00  0.00    -0.232 C  
BRANCH   8  24
HETATM   24  C   UNL     1      -8.812   8.127  71.166  1.00  0.00    -0.171 A  
HETATM   25  C   UNL     1      -6.574   8.498  72.046  1.00  0.00    -0.080 A  
HETATM   26  F   UNL     1      -6.264   8.667  74.377  1.00  0.00    -0.118 F  
HETATM   27  C   UNL     1      -7.080   8.445  73.338  1.00  0.00    -0.074 A  
HETATM   28  C   UNL     1      -8.425   8.192  73.570  1.00  0.00    -0.310 A  
HETATM   29  C   UNL     1      -9.290   8.034  72.486  1.00  0.00    -0.289 A  
HETATM   30  C   UNL     1      -7.434   8.327  70.961  1.00  0.00    -0.068 A  
ENDBRANCH   8  24
ENDBRANCH   6   7
TORSDOF 2
ENDMDL
MODEL       96
REMARK 921   NORMALIZED FREE ENERGY PREDICTED BY IDOCK:   -4.82 KCAL/MOL
REMARK 922        TOTAL FREE ENERGY PREDICTED BY IDOCK:   -6.06 KCAL/MOL
REMARK 923 INTER-LIGAND FREE ENERGY PREDICTED BY IDOCK:   -5.68 KCAL/MOL
REMARK 924 INTRA-LIGAND FREE ENERGY PREDICTED BY IDOCK:   -0.38 KCAL/MOL
REMARK 927      BINDING AFFINITY PREDICTED BY RF-SCORE:    0.00 PKD
ROOT
HETATM    1  C   UNL     1     -12.399  10.979  69.343  1.00  0.00    -0.153 C  
HETATM    2  N   UNL     1     -12.232  12.202  70.088  1.00  0.00    -0.270 NA 
HETATM    3  N   UNL     1     -12.939  12.385  71.219  1.00  0.00    -0.276 NA 
HETATM    4  C   UNL     1     -12.540  13.597  71.597  1.00  0.00    -0.250 A  
HETATM    5  N   UNL     1     -11.670  14.208  70.747  1.00  0.00    -0.226 NA 
HETATM    6  C   UNL     1     -11.462  13.304  69.805  1.00  0.00    -0.158 A  
ENDROOT
BRANCH   6   7
HETATM    7  C   UNL     1     -10.546  13.491  68.619  1.00  0.00    -0.259 C  
HETATM    8  C   UNL     1      -9.220  12.722  68.819  1.00  0.00     0.168 C  
HETATM    9  N   UNL     1      -8.020  13.400  68.328  1.00  0.00    -0.141 NA 
HETATM   10  C   UNL     1      -6.822  15.230  67.342  1.00  0.00    -0.188 A  
HETATM   11  H   UNL     1      -7.142  12.881  68.329  1.00  0.00     0.000 HD 
HETATM   12  C   UNL     1      -8.006  14.695  67.865  1.00  0.00    -0.144 A  
HETATM   13  F   UNL     1      -5.652  16.991  66.293  1.00  0.00    -0.212 F  
HETATM   14  C   UNL     1      -9.152  15.483  67.793  1.00  0.00    -0.178 A  
HETATM   15  C   UNL     1      -6.795  16.517  66.803  1.00  0.00    -0.190 A  
HETATM   16  C   UNL     1      -7.931  17.310  66.783  1.00  0.00    -0.276 A  
HETATM   17  C   UNL     1     -10.446  14.955  68.234  1.00  0.00    -0.239 C  
HETATM   18  C   UNL     1      -9.117  16.784  67.292  1.00  0.00    -0.228 A  
HETATM   19  N   UNL     1     -11.532  15.676  68.236  1.00  0.00    -0.362 NA 
HETATM   20  O   UNL     1     -10.354  18.745  66.920  1.00  0.00    -0.361 OA 
HETATM   21  H   UNL     1     -12.303  17.534  67.916  1.00  0.00     0.000 HD 
HETATM   22  N   UNL     1     -11.456  16.971  67.831  1.00  0.00     0.172 N  
HETATM   23  C   UNL     1     -10.343  17.589  67.318  1.00  0.00    -0.337 C  
BRANCH   8  24
HETATM   24  C   UNL     1      -9.341  11.366  68.114  1.00  0.00    -0.181 A  
HETATM   25  C   UNL     1      -9.468   8.943  68.305  1.00  0.00    -0.150 A  
HETATM   26  F   UNL     1     -10.396   7.692  66.535  1.00  0.00    -0.332 F  
HETATM   27  C   UNL     1     -10.011   8.877  67.028  1.00  0.00    -0.233 A  
HETATM   28  C   UNL     1     -10.185  10.023  66.265  1.00  0.00    -0.285 A  
HETATM   29  C   UNL     1      -9.852  11.265  66.806  1.00  0.00    -0.227 A  
HETATM   30  C   UNL     1      -9.121  10.183  68.843  1.00  0.00    -0.165 A  
ENDBRANCH   8  24
ENDBRANCH   6   7
TORSDOF 2
ENDMDL
MODEL       97
REMARK 921   NORMALIZED FREE ENERGY PREDICTED BY IDOCK:   -4.79 KCAL/MOL
REMARK 922        TOTAL FREE ENERGY PREDICTED BY IDOCK:   -6.02 KCAL/MOL
REMARK 923 INTER-LIGAND FREE ENERGY PREDICTED BY IDOCK:   -5.38 KCAL/MOL
REMARK 924 INTRA-LIGAND FREE ENERGY PREDICTED BY IDOCK:   -0.65 KCAL/MOL
REMARK 927      BINDING AFFINITY PREDICTED BY RF-SCORE:    0.00 PKD
ROOT
HETATM    1  C   UNL     1     -12.203  11.078  70.696  1.00  0.00    -0.385 C  
HETATM    2  N   UNL     1     -12.729   9.772  71.004  1.00  0.00    -0.319 NA 
HETATM    3  N   UNL     1     -14.016   9.653  71.383  1.00  0.00    -0.123 NA 
HETATM    4  C   UNL     1     -14.119   8.343  71.592  1.00  0.00    -0.419 A  
HETATM    5  N   UNL     1     -12.965   7.640  71.422  1.00  0.00    -0.333 NA 
HETATM    6  C   UNL     1     -12.095   8.553  71.025  1.00  0.00    -0.205 A  
ENDROOT
BRANCH   6   7
HETATM    7  C   UNL     1     -10.651   8.275  70.683  1.00  0.00    -0.235 C  
HETATM    8  C   UNL     1      -9.727   8.592  71.880  1.00  0.00    -0.313 C  
HETATM    9  N   UNL     1      -8.440   9.197  71.539  1.00  0.00    -0.330 NA 
HETATM   10  C   UNL     1      -6.816  10.115  70.031  1.00  0.00    -0.137 A  
HETATM   11  H   UNL     1      -7.751   9.312  72.282  1.00  0.00     0.000 HD 
HETATM   12  C   UNL     1      -8.102   9.620  70.275  1.00  0.00    -0.183 A  
HETATM   13  F   UNL     1      -5.180  10.938  68.541  1.00  0.00    -0.041 F  
HETATM   14  C   UNL     1      -8.955   9.484  69.181  1.00  0.00    -0.148 A  
HETATM   15  C   UNL     1      -6.424  10.488  68.744  1.00  0.00    -0.051 A  
HETATM   16  C   UNL     1      -7.298  10.395  67.673  1.00  0.00    -0.088 A  
HETATM   17  C   UNL     1     -10.283   8.886  69.343  1.00  0.00    -0.209 C  
HETATM   18  C   UNL     1      -8.578   9.894  67.903  1.00  0.00    -0.125 A  
HETATM   19  N   UNL     1     -11.132   8.791  68.359  1.00  0.00     0.185 NA 
HETATM   20  O   UNL     1      -9.278  10.175  65.679  1.00  0.00    -0.166 OA 
HETATM   21  H   UNL     1     -11.490   9.265  66.411  1.00  0.00     0.000 HD 
HETATM   22  N   UNL     1     -10.779   9.282  67.143  1.00  0.00    -0.218 N  
HETATM   23  C   UNL     1      -9.551   9.798  66.809  1.00  0.00    -0.177 C  
BRANCH   8  24
HETATM   24  C   UNL     1      -9.470   7.288  72.646  1.00  0.00    -0.186 A  
HETATM   25  C   UNL     1     -10.108   5.800  74.461  1.00  0.00    -0.301 A  
HETATM   26  F   UNL     1      -9.459   3.534  74.379  1.00  0.00    -0.104 F  
HETATM   27  C   UNL     1      -9.424   4.761  73.842  1.00  0.00    -0.127 A  
HETATM   28  C   UNL     1      -8.725   4.969  72.661  1.00  0.00    -0.119 A  
HETATM   29  C   UNL     1      -8.748   6.229  72.063  1.00  0.00    -0.134 A  
HETATM   30  C   UNL     1     -10.121   7.064  73.872  1.00  0.00    -0.386 A  
ENDBRANCH   8  24
ENDBRANCH   6   7
TORSDOF 2
ENDMDL
MODEL       98
REMARK 921   NORMALIZED FREE ENERGY PREDICTED BY IDOCK:   -4.68 KCAL/MOL
REMARK 922        TOTAL FREE ENERGY PREDICTED BY IDOCK:   -5.90 KCAL/MOL
REMARK 923 INTER-LIGAND FREE ENERGY PREDICTED BY IDOCK:   -5.09 KCAL/MOL
REMARK 924 INTRA-LIGAND FREE ENERGY PREDICTED BY IDOCK:   -0.81 KCAL/MOL
REMARK 927      BINDING AFFINITY PREDICTED BY RF-SCORE:    0.00 PKD
ROOT
HETATM    1  C   UNL     1      -8.009   6.176  68.640  1.00  0.00    -0.101 C  
HETATM    2  N   UNL     1      -7.684   7.050  69.739  1.00  0.00    -0.106 NA 
HETATM    3  N   UNL     1      -7.086   6.539  70.832  1.00  0.00    -0.068 NA 
HETATM    4  C   UNL     1      -6.969   7.615  71.607  1.00  0.00    -0.061 A  
HETATM    5  N   UNL     1      -7.506   8.756  71.093  1.00  0.00    -0.092 NA 
HETATM    6  C   UNL     1      -7.935   8.392  69.897  1.00  0.00    -0.107 A  
ENDROOT
BRANCH   6   7
HETATM    7  C   UNL     1      -8.603   9.314  68.905  1.00  0.00    -0.130 C  
HETATM    8  C   UNL     1     -10.019   8.808  68.547  1.00  0.00    -0.182 C  
HETATM    9  N   UNL     1     -10.412   8.978  67.149  1.00  0.00    -0.272 NA 
HETATM   10  C   UNL     1     -10.050   9.610  64.863  1.00  0.00     0.286 A  
HETATM   11  H   UNL     1     -11.378   8.771  66.893  1.00  0.00     0.000 HD 
HETATM   12  C   UNL     1      -9.559   9.403  66.157  1.00  0.00    -0.247 A  
HETATM   13  F   UNL     1      -9.727  10.311  62.632  1.00  0.00    -0.319 F  
HETATM   14  C   UNL     1      -8.229   9.740  66.400  1.00  0.00    -0.120 A  
HETATM   15  C   UNL     1      -9.222  10.105  63.854  1.00  0.00    -0.280 A  
HETATM   16  C   UNL     1      -7.887  10.390  64.096  1.00  0.00    -0.052 A  
HETATM   17  C   UNL     1      -7.672   9.639  67.752  1.00  0.00    -0.094 C  
HETATM   18  C   UNL     1      -7.391  10.195  65.384  1.00  0.00    -0.144 A  
HETATM   19  N   UNL     1      -6.420   9.891  68.013  1.00  0.00    -0.056 NA 
HETATM   20  O   UNL     1      -5.200  10.827  64.823  1.00  0.00    -0.150 OA 
HETATM   21  H   UNL     1      -4.608  10.359  67.209  1.00  0.00     0.000 HD 
HETATM   22  N   UNL     1      -5.598  10.243  66.990  1.00  0.00    -0.045 N  
HETATM   23  C   UNL     1      -5.980  10.458  65.689  1.00  0.00    -0.118 C  
BRANCH   8  24
HETATM   24  C   UNL     1     -11.030   9.543  69.435  1.00  0.00    -0.192 A  
HETATM   25  C   UNL     1     -12.105   9.745  71.608  1.00  0.00    -0.475 A  
HETATM   26  F   UNL     1     -13.109  11.791  72.214  1.00  0.00    -0.571 F  
HETATM   27  C   UNL     1     -12.477  11.047  71.297  1.00  0.00    -0.370 A  
HETATM   28  C   UNL     1     -12.180  11.598  70.058  1.00  0.00    -0.338 A  
HETATM   29  C   UNL     1     -11.457  10.849  69.129  1.00  0.00    -0.373 A  
HETATM   30  C   UNL     1     -11.394   8.989  70.676  1.00  0.00    -0.311 A  
ENDBRANCH   8  24
ENDBRANCH   6   7
TORSDOF 2
ENDMDL
MODEL       99
REMARK 921   NORMALIZED FREE ENERGY PREDICTED BY IDOCK:   -4.64 KCAL/MOL
REMARK 922        TOTAL FREE ENERGY PREDICTED BY IDOCK:   -5.86 KCAL/MOL
REMARK 923 INTER-LIGAND FREE ENERGY PREDICTED BY IDOCK:   -5.00 KCAL/MOL
REMARK 924 INTRA-LIGAND FREE ENERGY PREDICTED BY IDOCK:   -0.86 KCAL/MOL
REMARK 927      BINDING AFFINITY PREDICTED BY RF-SCORE:    0.00 PKD
ROOT
HETATM    1  C   UNL     1      -7.101   8.250  67.803  1.00  0.00    -0.083 C  
HETATM    2  N   UNL     1      -8.464   8.439  67.376  1.00  0.00    -0.124 NA 
HETATM    3  N   UNL     1      -8.739   9.377  66.450  1.00  0.00    -0.133 NA 
HETATM    4  C   UNL     1     -10.061   9.267  66.335  1.00  0.00    -0.267 A  
HETATM    5  N   UNL     1     -10.638   8.359  67.169  1.00  0.00    -0.302 NA 
HETATM    6  C   UNL     1      -9.613   7.822  67.808  1.00  0.00    -0.146 A  
ENDROOT
BRANCH   6   7
HETATM    7  C   UNL     1      -9.721   6.732  68.848  1.00  0.00    -0.137 C  
HETATM    8  C   UNL     1      -9.353   7.266  70.250  1.00  0.00    -0.158 C  
HETATM    9  N   UNL     1      -8.601   6.341  71.098  1.00  0.00    -0.125 NA 
HETATM   10  C   UNL     1      -7.458   4.286  71.571  1.00  0.00    -0.060 A  
HETATM   11  H   UNL     1      -8.442   6.604  72.071  1.00  0.00     0.000 HD 
HETATM   12  C   UNL     1      -8.097   5.138  70.663  1.00  0.00    -0.106 A  
HETATM   13  F   UNL     1      -6.409   2.231  72.069  1.00  0.00    -0.012 F  
HETATM   14  C   UNL     1      -8.281   4.669  69.363  1.00  0.00    -0.073 A  
HETATM   15  C   UNL     1      -6.997   3.030  71.171  1.00  0.00    -0.032 A  
HETATM   16  C   UNL     1      -7.142   2.595  69.864  1.00  0.00    -0.033 A  
HETATM   17  C   UNL     1      -9.024   5.467  68.384  1.00  0.00    -0.108 C  
HETATM   18  C   UNL     1      -7.785   3.433  68.954  1.00  0.00    -0.051 A  
HETATM   19  N   UNL     1      -9.172   5.091  67.144  1.00  0.00    -0.117 NA 
HETATM   20  O   UNL     1      -7.496   1.972  67.138  1.00  0.00    -0.058 OA 
HETATM   21  H   UNL     1      -8.665   3.695  65.751  1.00  0.00     0.000 HD 
HETATM   22  N   UNL     1      -8.600   3.926  66.743  1.00  0.00    -0.105 N  
HETATM   23  C   UNL     1      -7.943   3.032  67.552  1.00  0.00    -0.076 C  
BRANCH   8  24
HETATM   24  C   UNL     1     -10.650   7.651  70.972  1.00  0.00    -0.226 A  
HETATM   25  C   UNL     1     -12.059   9.411  71.889  1.00  0.00    -0.427 A  
HETATM   26  F   UNL     1     -14.357   8.997  72.216  1.00  0.00    -0.457 F  
HETATM   27  C   UNL     1     -13.147   8.548  71.858  1.00  0.00    -0.362 A  
HETATM   28  C   UNL     1     -13.005   7.234  71.435  1.00  0.00    -0.420 A  
HETATM   29  C   UNL     1     -11.760   6.785  70.993  1.00  0.00    -0.406 A  
HETATM   30  C   UNL     1     -10.809   8.961  71.460  1.00  0.00    -0.396 A  
ENDBRANCH   8  24
ENDBRANCH   6   7
TORSDOF 2
ENDMDL
MODEL      100
REMARK 921   NORMALIZED FREE ENERGY PREDICTED BY IDOCK:   -4.55 KCAL/MOL
REMARK 922        TOTAL FREE ENERGY PREDICTED BY IDOCK:   -5.76 KCAL/MOL
REMARK 923 INTER-LIGAND FREE ENERGY PREDICTED BY IDOCK:   -5.42 KCAL/MOL
REMARK 924 INTRA-LIGAND FREE ENERGY PREDICTED BY IDOCK:   -0.34 KCAL/MOL
REMARK 927      BINDING AFFINITY PREDICTED BY RF-SCORE:    0.00 PKD
ROOT
HETATM    1  C   UNL     1     -11.621   6.457  69.781  1.00  0.00    -0.327 C  
HETATM    2  N   UNL     1     -11.955   7.682  70.462  1.00  0.00    -0.101 NA 
HETATM    3  N   UNL     1     -12.955   7.682  71.364  1.00  0.00    -0.333 NA 
HETATM    4  C   UNL     1     -12.975   8.956  71.750  1.00  0.00    -0.367 A  
HETATM    5  N   UNL     1     -12.089   9.766  71.108  1.00  0.00    -0.343 NA 
HETATM    6  C   UNL     1     -11.430   8.943  70.310  1.00  0.00    -0.105 A  
ENDROOT
BRANCH   6   7
HETATM    7  C   UNL     1     -10.310   9.354  69.384  1.00  0.00    -0.222 C  
HETATM    8  C   UNL     1     -10.836   9.593  67.951  1.00  0.00    -0.215 C  
HETATM    9  N   UNL     1      -9.950   9.152  66.874  1.00  0.00    -0.216 NA 
HETATM   10  C   UNL     1      -7.977   8.117  65.986  1.00  0.00    -0.100 A  
HETATM   11  H   UNL     1     -10.200   9.398  65.916  1.00  0.00     0.000 HD 
HETATM   12  C   UNL     1      -8.800   8.426  67.076  1.00  0.00    -0.134 A  
HETATM   13  F   UNL     1      -5.996   7.178  65.110  1.00  0.00    -0.034 F  
HETATM   14  C   UNL     1      -8.351   8.061  68.343  1.00  0.00    -0.127 A  
HETATM   15  C   UNL     1      -6.770   7.440  66.170  1.00  0.00    -0.053 A  
HETATM   16  C   UNL     1      -6.357   7.039  67.431  1.00  0.00    -0.042 A  
HETATM   17  C   UNL     1      -9.113   8.434  69.538  1.00  0.00    -0.153 C  
HETATM   18  C   UNL     1      -7.166   7.349  68.523  1.00  0.00    -0.087 A  
HETATM   19  N   UNL     1      -8.758   8.066  70.737  1.00  0.00    -0.135 NA 
HETATM   20  O   UNL     1      -5.776   6.273  70.081  1.00  0.00    -0.013 OA 
HETATM   21  H   UNL     1      -7.439   6.955  71.821  1.00  0.00     0.000 HD 
HETATM   22  N   UNL     1      -7.650   7.293  70.881  1.00  0.00    -0.083 N  
HETATM   23  C   UNL     1      -6.788   6.927  69.877  1.00  0.00    -0.050 C  
BRANCH   8  24
HETATM   24  C   UNL     1     -11.104  11.094  67.784  1.00  0.00    -0.344 A  
HETATM   25  C   UNL     1     -10.877  13.345  68.681  1.00  0.00    -0.287 A  
HETATM   26  F   UNL     1     -11.038  15.190  67.222  1.00  0.00    -0.303 F  
HETATM   27  C   UNL     1     -11.105  13.866  67.414  1.00  0.00    -0.298 A  
HETATM   28  C   UNL     1     -11.377  13.035  66.337  1.00  0.00    -0.355 A  
HETATM   29  C   UNL     1     -11.376  11.651  66.520  1.00  0.00    -0.331 A  
HETATM   30  C   UNL     1     -10.888  11.962  68.870  1.00  0.00    -0.261 A  
ENDBRANCH   8  24
ENDBRANCH   6   7
TORSDOF 2
ENDMDL
MODEL      101
REMARK 921   NORMALIZED FREE ENERGY PREDICTED BY IDOCK:   -4.48 KCAL/MOL
REMARK 922        TOTAL FREE ENERGY PREDICTED BY IDOCK:   -5.68 KCAL/MOL
REMARK 923 INTER-LIGAND FREE ENERGY PREDICTED BY IDOCK:   -5.12 KCAL/MOL
REMARK 924 INTRA-LIGAND FREE ENERGY PREDICTED BY IDOCK:   -0.57 KCAL/MOL
REMARK 927      BINDING AFFINITY PREDICTED BY RF-SCORE:    0.00 PKD
ROOT
HETATM    1  C   UNL     1      -9.093   9.730  70.088  1.00  0.00    -0.197 C  
HETATM    2  N   UNL     1      -7.693  10.052  70.211  1.00  0.00    -0.213 NA 
HETATM    3  N   UNL     1      -6.996   9.568  71.257  1.00  0.00    -0.324 NA 
HETATM    4  C   UNL     1      -5.787  10.081  71.039  1.00  0.00    -0.073 A  
HETATM    5  N   UNL     1      -5.696  10.900  69.955  1.00  0.00    -0.065 NA 
HETATM    6  C   UNL     1      -6.905  10.855  69.423  1.00  0.00    -0.114 A  
ENDROOT
BRANCH   6   7
HETATM    7  C   UNL     1      -7.323  11.591  68.172  1.00  0.00    -0.094 C  
HETATM    8  C   UNL     1      -8.395  12.658  68.491  1.00  0.00    -0.060 C  
HETATM    9  N   UNL     1      -9.448  12.811  67.487  1.00  0.00    -0.182 NA 
HETATM   10  C   UNL     1     -10.595  12.250  65.456  1.00  0.00    -0.304 A  
HETATM   11  H   UNL     1     -10.106  13.582  67.595  1.00  0.00     0.000 HD 
HETATM   12  C   UNL     1      -9.603  11.976  66.405  1.00  0.00    -0.228 A  
HETATM   13  F   UNL     1     -11.676  11.762  63.415  1.00  0.00    -0.489 F  
HETATM   14  C   UNL     1      -8.745  10.910  66.145  1.00  0.00    -0.189 A  
HETATM   15  C   UNL     1     -10.731  11.460  64.313  1.00  0.00    -0.356 A  
HETATM   16  C   UNL     1      -9.903  10.372  64.091  1.00  0.00    -0.379 A  
HETATM   17  C   UNL     1      -7.625  10.621  67.046  1.00  0.00    -0.110 C  
HETATM   18  C   UNL     1      -8.906  10.095  65.026  1.00  0.00    -0.205 A  
HETATM   19  N   UNL     1      -6.832   9.601  66.871  1.00  0.00    -0.079 NA 
HETATM   20  O   UNL     1      -8.141   8.179  63.903  1.00  0.00    -0.154 OA 
HETATM   21  H   UNL     1      -6.478   7.934  65.756  1.00  0.00     0.000 HD 
HETATM   22  N   UNL     1      -7.064   8.766  65.825  1.00  0.00    -0.079 N  
HETATM   23  C   UNL     1      -8.017   8.941  64.852  1.00  0.00    -0.129 C  
BRANCH   8  24
HETATM   24  C   UNL     1      -7.689  14.008  68.671  1.00  0.00    -0.135 A  
HETATM   25  C   UNL     1      -7.850  16.355  69.291  1.00  0.00    -0.153 A  
HETATM   26  F   UNL     1      -5.900  17.515  69.936  1.00  0.00    -0.213 F  
HETATM   27  C   UNL     1      -6.474  16.393  69.481  1.00  0.00    -0.210 A  
HETATM   28  C   UNL     1      -5.687  15.278  69.232  1.00  0.00    -0.097 A  
HETATM   29  C   UNL     1      -6.292  14.086  68.829  1.00  0.00    -0.090 A  
HETATM   30  C   UNL     1      -8.456  15.169  68.875  1.00  0.00    -0.199 A  
ENDBRANCH   8  24
ENDBRANCH   6   7
TORSDOF 2
ENDMDL
MODEL      102
REMARK 921   NORMALIZED FREE ENERGY PREDICTED BY IDOCK:   -4.45 KCAL/MOL
REMARK 922        TOTAL FREE ENERGY PREDICTED BY IDOCK:   -5.65 KCAL/MOL
REMARK 923 INTER-LIGAND FREE ENERGY PREDICTED BY IDOCK:   -4.89 KCAL/MOL
REMARK 924 INTRA-LIGAND FREE ENERGY PREDICTED BY IDOCK:   -0.75 KCAL/MOL
REMARK 927      BINDING AFFINITY PREDICTED BY RF-SCORE:    0.00 PKD
ROOT
HETATM    1  C   UNL     1      -9.948  11.340  68.642  1.00  0.00    -0.204 C  
HETATM    2  N   UNL     1      -8.616  10.970  68.235  1.00  0.00    -0.136 NA 
HETATM    3  N   UNL     1      -7.790  11.916  67.748  1.00  0.00    -0.129 NA 
HETATM    4  C   UNL     1      -6.696  11.207  67.474  1.00  0.00    -0.075 A  
HETATM    5  N   UNL     1      -6.803   9.870  67.707  1.00  0.00    -0.079 NA 
HETATM    6  C   UNL     1      -8.017   9.734  68.212  1.00  0.00    -0.096 A  
ENDROOT
BRANCH   6   7
HETATM    7  C   UNL     1      -8.621   8.424  68.658  1.00  0.00    -0.132 C  
HETATM    8  C   UNL     1      -9.898   8.100  67.850  1.00  0.00    -0.169 C  
HETATM    9  N   UNL     1     -10.983   7.480  68.610  1.00  0.00    -0.427 NA 
HETATM   10  C   UNL     1     -12.024   6.650  70.606  1.00  0.00    -0.404 A  
HETATM   11  H   UNL     1     -11.795   7.139  68.096  1.00  0.00     0.000 HD 
HETATM   12  C   UNL     1     -10.973   7.327  69.977  1.00  0.00    -0.253 A  
HETATM   13  F   UNL     1     -13.017   5.752  72.550  1.00  0.00    -0.205 F  
HETATM   14  C   UNL     1      -9.902   7.730  70.773  1.00  0.00    -0.183 A  
HETATM   15  C   UNL     1     -12.007   6.421  71.983  1.00  0.00    -0.326 A  
HETATM   16  C   UNL     1     -10.959   6.870  72.771  1.00  0.00    -0.315 A  
HETATM   17  C   UNL     1      -8.724   8.360  70.171  1.00  0.00    -0.136 C  
HETATM   18  C   UNL     1      -9.903   7.537  72.154  1.00  0.00    -0.209 A  
HETATM   19  N   UNL     1      -7.726   8.802  70.884  1.00  0.00    -0.096 NA 
HETATM   20  O   UNL     1      -8.753   7.940  74.161  1.00  0.00    -0.262 OA 
HETATM   21  H   UNL     1      -7.032   9.111  72.773  1.00  0.00     0.000 HD 
HETATM   22  N   UNL     1      -7.790   8.688  72.236  1.00  0.00    -0.058 N  
HETATM   23  C   UNL     1      -8.781   8.055  72.944  1.00  0.00    -0.213 C  
BRANCH   8  24
HETATM   24  C   UNL     1      -9.511   7.168  66.696  1.00  0.00    -0.219 A  
HETATM   25  C   UNL     1      -8.271   6.848  64.627  1.00  0.00    -0.026 A  
HETATM   26  F   UNL     1      -7.747   4.660  63.921  1.00  0.00    -0.066 F  
HETATM   27  C   UNL     1      -8.358   5.472  64.794  1.00  0.00    -0.136 A  
HETATM   28  C   UNL     1      -9.047   4.924  65.867  1.00  0.00    -0.147 A  
HETATM   29  C   UNL     1      -9.622   5.769  66.817  1.00  0.00    -0.161 A  
HETATM   30  C   UNL     1      -8.857   7.696  65.568  1.00  0.00    -0.029 A  
ENDBRANCH   8  24
ENDBRANCH   6   7
TORSDOF 2
ENDMDL
MODEL      103
REMARK 921   NORMALIZED FREE ENERGY PREDICTED BY IDOCK:   -4.40 KCAL/MOL
REMARK 922        TOTAL FREE ENERGY PREDICTED BY IDOCK:   -5.59 KCAL/MOL
REMARK 923 INTER-LIGAND FREE ENERGY PREDICTED BY IDOCK:   -4.84 KCAL/MOL
REMARK 924 INTRA-LIGAND FREE ENERGY PREDICTED BY IDOCK:   -0.75 KCAL/MOL
REMARK 927      BINDING AFFINITY PREDICTED BY RF-SCORE:    0.00 PKD
ROOT
HETATM    1  C   UNL     1     -11.757  14.350  69.419  1.00  0.00    -0.317 C  
HETATM    2  N   UNL     1     -11.529  13.960  68.050  1.00  0.00    -0.288 NA 
HETATM    3  N   UNL     1     -12.440  14.283  67.114  1.00  0.00    -0.132 NA 
HETATM    4  C   UNL     1     -11.903  13.754  66.016  1.00  0.00    -0.390 A  
HETATM    5  N   UNL     1     -10.742  13.072  66.215  1.00  0.00    -0.274 NA 
HETATM    6  C   UNL     1     -10.500  13.230  67.505  1.00  0.00    -0.235 A  
ENDROOT
BRANCH   6   7
HETATM    7  C   UNL     1      -9.299  12.672  68.231  1.00  0.00    -0.195 C  
HETATM    8  C   UNL     1      -7.988  13.052  67.507  1.00  0.00    -0.177 C  
HETATM    9  N   UNL     1      -6.955  12.018  67.492  1.00  0.00    -0.118 NA 
HETATM   10  C   UNL     1      -6.077   9.833  67.952  1.00  0.00    -0.051 A  
HETATM   11  H   UNL     1      -6.033  12.265  67.132  1.00  0.00     0.000 HD 
HETATM   12  C   UNL     1      -7.152  10.730  67.934  1.00  0.00    -0.085 A  
HETATM   13  F   UNL     1      -5.180   7.714  68.480  1.00  0.00    -0.022 F  
HETATM   14  C   UNL     1      -8.361  10.293  68.470  1.00  0.00    -0.116 A  
HETATM   15  C   UNL     1      -6.232   8.541  68.458  1.00  0.00    -0.053 A  
HETATM   16  C   UNL     1      -7.453   8.102  68.943  1.00  0.00    -0.089 A  
HETATM   17  C   UNL     1      -9.503  11.207  68.571  1.00  0.00    -0.193 C  
HETATM   18  C   UNL     1      -8.527   8.991  68.938  1.00  0.00    -0.130 A  
HETATM   19  N   UNL     1     -10.667  10.825  69.014  1.00  0.00    -0.213 NA 
HETATM   20  O   UNL     1     -10.051   7.429  69.806  1.00  0.00    -0.186 OA 
HETATM   21  H   UNL     1     -11.774   9.236  69.647  1.00  0.00     0.000 HD 
HETATM   22  N   UNL     1     -10.833   9.526  69.378  1.00  0.00    -0.225 N  
HETATM   23  C   UNL     1      -9.848   8.570  69.417  1.00  0.00    -0.185 C  
BRANCH   8  24
HETATM   24  C   UNL     1      -7.417  14.308  68.178  1.00  0.00    -0.131 A  
HETATM   25  C   UNL     1      -5.557  15.858  68.412  1.00  0.00    -0.109 A  
HETATM   26  F   UNL     1      -5.956  18.020  69.265  1.00  0.00    -0.193 F  
HETATM   27  C   UNL     1      -6.419  16.801  68.956  1.00  0.00    -0.195 A  
HETATM   28  C   UNL     1      -7.760  16.510  69.161  1.00  0.00    -0.205 A  
HETATM   29  C   UNL     1      -8.260  15.266  68.772  1.00  0.00    -0.169 A  
HETATM   30  C   UNL     1      -6.050  14.609  68.035  1.00  0.00    -0.164 A  
ENDBRANCH   8  24
ENDBRANCH   6   7
TORSDOF 2
ENDMDL
MODEL      104
REMARK 921   NORMALIZED FREE ENERGY PREDICTED BY IDOCK:   -4.26 KCAL/MOL
REMARK 922        TOTAL FREE ENERGY PREDICTED BY IDOCK:   -5.43 KCAL/MOL
REMARK 923 INTER-LIGAND FREE ENERGY PREDICTED BY IDOCK:   -4.85 KCAL/MOL
REMARK 924 INTRA-LIGAND FREE ENERGY PREDICTED BY IDOCK:   -0.58 KCAL/MOL
REMARK 927      BINDING AFFINITY PREDICTED BY RF-SCORE:    0.00 PKD
ROOT
HETATM    1  C   UNL     1      -8.087   8.339  64.097  1.00  0.00    -0.136 C  
HETATM    2  N   UNL     1      -7.330   7.401  64.886  1.00  0.00    -0.075 NA 
HETATM    3  N   UNL     1      -6.434   6.600  64.278  1.00  0.00    -0.037 NA 
HETATM    4  C   UNL     1      -5.968   5.886  65.300  1.00  0.00    -0.025 A  
HETATM    5  N   UNL     1      -6.553   6.150  66.501  1.00  0.00    -0.053 NA 
HETATM    6  C   UNL     1      -7.399   7.129  66.232  1.00  0.00    -0.076 A  
ENDROOT
BRANCH   6   7
HETATM    7  C   UNL     1      -8.292   7.800  67.248  1.00  0.00    -0.118 C  
HETATM    8  C   UNL     1      -9.756   7.330  67.095  1.00  0.00    -0.168 C  
HETATM    9  N   UNL     1     -10.772   8.362  67.300  1.00  0.00    -0.462 NA 
HETATM   10  C   UNL     1     -11.525  10.599  67.727  1.00  0.00    -0.219 A  
HETATM   11  H   UNL     1     -11.750   8.073  67.328  1.00  0.00     0.000 HD 
HETATM   12  C   UNL     1     -10.488   9.698  67.458  1.00  0.00    -0.262 A  
HETATM   13  F   UNL     1     -12.270  12.781  68.234  1.00  0.00    -0.349 F  
HETATM   14  C   UNL     1      -9.187  10.197  67.465  1.00  0.00    -0.150 A  
HETATM   15  C   UNL     1     -11.258  11.949  67.959  1.00  0.00    -0.257 A  
HETATM   16  C   UNL     1      -9.964  12.443  67.915  1.00  0.00    -0.204 A  
HETATM   17  C   UNL     1      -8.045   9.297  67.285  1.00  0.00    -0.113 C  
HETATM   18  C   UNL     1      -8.924  11.552  67.657  1.00  0.00    -0.160 A  
HETATM   19  N   UNL     1      -6.816   9.728  67.230  1.00  0.00    -0.082 NA 
HETATM   20  O   UNL     1      -7.260  13.209  67.703  1.00  0.00    -0.130 OA 
HETATM   21  H   UNL     1      -5.627  11.382  67.202  1.00  0.00     0.000 HD 
HETATM   22  N   UNL     1      -6.589  11.064  67.325  1.00  0.00    -0.072 N  
HETATM   23  C   UNL     1      -7.537  12.026  67.574  1.00  0.00    -0.147 C  
BRANCH   8  24
HETATM   24  C   UNL     1     -10.002   6.193  68.094  1.00  0.00    -0.158 A  
HETATM   25  C   UNL     1      -9.381   3.982  68.899  1.00  0.00    -0.230 A  
HETATM   26  F   UNL     1      -9.964   3.347  71.094  1.00  0.00    -0.244 F  
HETATM   27  C   UNL     1     -10.016   4.250  70.105  1.00  0.00    -0.136 A  
HETATM   28  C   UNL     1     -10.682   5.449  70.312  1.00  0.00    -0.286 A  
HETATM   29  C   UNL     1     -10.675   6.420  69.309  1.00  0.00    -0.349 A  
HETATM   30  C   UNL     1      -9.384   4.945  67.889  1.00  0.00    -0.155 A  
ENDBRANCH   8  24
ENDBRANCH   6   7
TORSDOF 2
ENDMDL
MODEL      105
REMARK 921   NORMALIZED FREE ENERGY PREDICTED BY IDOCK:   -4.24 KCAL/MOL
REMARK 922        TOTAL FREE ENERGY PREDICTED BY IDOCK:   -5.41 KCAL/MOL
REMARK 923 INTER-LIGAND FREE ENERGY PREDICTED BY IDOCK:   -4.81 KCAL/MOL
REMARK 924 INTRA-LIGAND FREE ENERGY PREDICTED BY IDOCK:   -0.61 KCAL/MOL
REMARK 927      BINDING AFFINITY PREDICTED BY RF-SCORE:    0.00 PKD
ROOT
HETATM    1  C   UNL     1     -11.687   8.585  73.050  1.00  0.00     0.436 C  
HETATM    2  N   UNL     1     -11.777   8.060  71.711  1.00  0.00    -0.276 NA 
HETATM    3  N   UNL     1     -12.369   6.867  71.510  1.00  0.00    -0.362 NA 
HETATM    4  C   UNL     1     -12.244   6.719  70.192  1.00  0.00     0.052 A  
HETATM    5  N   UNL     1     -11.563   7.716  69.563  1.00  0.00     0.333 NA 
HETATM    6  C   UNL     1     -11.292   8.573  70.532  1.00  0.00    -0.217 A  
ENDROOT
BRANCH   6   7
HETATM    7  C   UNL     1     -10.554   9.877  70.346  1.00  0.00    -0.364 C  
HETATM    8  C   UNL     1     -11.319  10.814  69.384  1.00  0.00    -0.285 C  
HETATM    9  N   UNL     1     -10.485  11.599  68.475  1.00  0.00    -0.211 NA 
HETATM   10  C   UNL     1      -8.403  12.281  67.497  1.00  0.00    -0.170 A  
HETATM   11  H   UNL     1     -10.937  12.317  67.908  1.00  0.00     0.000 HD 
HETATM   12  C   UNL     1      -9.128  11.427  68.337  1.00  0.00    -0.179 A  
HETATM   13  F   UNL     1      -6.350  13.017  66.594  1.00  0.00     0.320 F  
HETATM   14  C   UNL     1      -8.406  10.496  69.082  1.00  0.00    -0.154 A  
HETATM   15  C   UNL     1      -7.015  12.173  67.390  1.00  0.00    -0.146 A  
HETATM   16  C   UNL     1      -6.314  11.210  68.099  1.00  0.00    -0.053 A  
HETATM   17  C   UNL     1      -9.085   9.634  70.053  1.00  0.00    -0.237 C  
HETATM   18  C   UNL     1      -7.025  10.362  68.946  1.00  0.00    -0.067 A  
HETATM   19  N   UNL     1      -8.458   8.713  70.729  1.00  0.00    -0.142 NA 
HETATM   20  O   UNL     1      -5.131   9.130  69.589  1.00  0.00    -0.034 OA 
HETATM   21  H   UNL     1      -6.679   7.758  70.997  1.00  0.00     0.000 HD 
HETATM   22  N   UNL     1      -7.128   8.536  70.513  1.00  0.00    -0.038 N  
HETATM   23  C   UNL     1      -6.336   9.309  69.701  1.00  0.00    -0.039 C  
BRANCH   8  24
HETATM   24  C   UNL     1     -12.167  11.776  70.226  1.00  0.00    -0.381 A  
HETATM   25  C   UNL     1     -13.403  12.179  72.283  1.00  0.00    -0.316 A  
HETATM   26  F   UNL     1     -13.813  14.398  72.968  1.00  0.00    -0.490 F  
HETATM   27  C   UNL     1     -13.321  13.547  72.057  1.00  0.00    -0.475 A  
HETATM   28  C   UNL     1     -12.715  14.048  70.913  1.00  0.00    -0.420 A  
HETATM   29  C   UNL     1     -12.138  13.165  69.999  1.00  0.00    -0.375 A  
HETATM   30  C   UNL     1     -12.838  11.293  71.364  1.00  0.00    -0.515 A  
ENDBRANCH   8  24
ENDBRANCH   6   7
TORSDOF 2
ENDMDL
MODEL      106
REMARK 921   NORMALIZED FREE ENERGY PREDICTED BY IDOCK:   -4.23 KCAL/MOL
REMARK 922        TOTAL FREE ENERGY PREDICTED BY IDOCK:   -5.40 KCAL/MOL
REMARK 923 INTER-LIGAND FREE ENERGY PREDICTED BY IDOCK:   -4.92 KCAL/MOL
REMARK 924 INTRA-LIGAND FREE ENERGY PREDICTED BY IDOCK:   -0.48 KCAL/MOL
REMARK 927      BINDING AFFINITY PREDICTED BY RF-SCORE:    0.00 PKD
ROOT
HETATM    1  C   UNL     1      -7.810  10.108  64.495  1.00  0.00    -0.141 C  
HETATM    2  N   UNL     1      -9.111  10.727  64.533  1.00  0.00    -0.204 NA 
HETATM    3  N   UNL     1      -9.766  10.950  63.378  1.00  0.00    -0.318 NA 
HETATM    4  C   UNL     1     -10.884  11.533  63.808  1.00  0.00    -0.416 A  
HETATM    5  N   UNL     1     -10.946  11.739  65.152  1.00  0.00    -0.302 NA 
HETATM    6  C   UNL     1      -9.826  11.202  65.605  1.00  0.00    -0.235 A  
ENDROOT
BRANCH   6   7
HETATM    7  C   UNL     1      -9.421  11.153  67.059  1.00  0.00    -0.193 C  
HETATM    8  C   UNL     1      -8.071  11.871  67.281  1.00  0.00    -0.171 C  
HETATM    9  N   UNL     1      -7.178  11.244  68.255  1.00  0.00    -0.076 NA 
HETATM   10  C   UNL     1      -6.537   9.536  69.814  1.00  0.00    -0.051 A  
HETATM   11  H   UNL     1      -6.331  11.746  68.523  1.00  0.00     0.000 HD 
HETATM   12  C   UNL     1      -7.412  10.018  68.833  1.00  0.00    -0.083 A  
HETATM   13  F   UNL     1      -5.942   7.905  71.413  1.00  0.00    -0.035 F  
HETATM   14  C   UNL     1      -8.550   9.261  68.561  1.00  0.00    -0.128 A  
HETATM   15  C   UNL     1      -6.787   8.327  70.465  1.00  0.00    -0.037 A  
HETATM   16  C   UNL     1      -7.897   7.559  70.151  1.00  0.00    -0.098 A  
HETATM   17  C   UNL     1      -9.558   9.749  67.616  1.00  0.00    -0.145 C  
HETATM   18  C   UNL     1      -8.779   8.035  69.182  1.00  0.00    -0.137 A  
HETATM   19  N   UNL     1     -10.609   9.048  67.291  1.00  0.00    -0.269 NA 
HETATM   20  O   UNL     1     -10.182   6.154  69.286  1.00  0.00    -0.173 OA 
HETATM   21  H   UNL     1     -11.554   7.257  67.508  1.00  0.00     0.000 HD 
HETATM   22  N   UNL     1     -10.765   7.814  67.838  1.00  0.00    -0.149 N  
HETATM   23  C   UNL     1      -9.957   7.250  68.794  1.00  0.00    -0.166 C  
BRANCH   8  24
HETATM   24  C   UNL     1      -8.360  13.308  67.734  1.00  0.00    -0.171 A  
HETATM   25  C   UNL     1      -9.901  15.191  67.769  1.00  0.00    -0.223 A  
HETATM   26  F   UNL     1      -9.672  16.839  69.440  1.00  0.00    -0.237 F  
HETATM   27  C   UNL     1      -9.220  15.720  68.858  1.00  0.00    -0.227 A  
HETATM   28  C   UNL     1      -8.092  15.094  69.369  1.00  0.00    -0.200 A  
HETATM   29  C   UNL     1      -7.662  13.890  68.809  1.00  0.00    -0.096 A  
HETATM   30  C   UNL     1      -9.466  13.993  67.199  1.00  0.00    -0.241 A  
ENDBRANCH   8  24
ENDBRANCH   6   7
TORSDOF 2
ENDMDL
MODEL      107
REMARK 921   NORMALIZED FREE ENERGY PREDICTED BY IDOCK:   -4.16 KCAL/MOL
REMARK 922        TOTAL FREE ENERGY PREDICTED BY IDOCK:   -5.32 KCAL/MOL
REMARK 923 INTER-LIGAND FREE ENERGY PREDICTED BY IDOCK:   -4.29 KCAL/MOL
REMARK 924 INTRA-LIGAND FREE ENERGY PREDICTED BY IDOCK:   -1.03 KCAL/MOL
REMARK 927      BINDING AFFINITY PREDICTED BY RF-SCORE:    0.00 PKD
ROOT
HETATM    1  C   UNL     1      -6.458   6.876  64.273  1.00  0.00    -0.036 C  
HETATM    2  N   UNL     1      -7.551   7.802  64.425  1.00  0.00    -0.102 NA 
HETATM    3  N   UNL     1      -7.688   8.809  63.541  1.00  0.00    -0.125 NA 
HETATM    4  C   UNL     1      -8.764   9.438  64.008  1.00  0.00    -0.200 A  
HETATM    5  N   UNL     1      -9.276   8.924  65.160  1.00  0.00    -0.111 NA 
HETATM    6  C   UNL     1      -8.514   7.871  65.402  1.00  0.00    -0.119 A  
ENDROOT
BRANCH   6   7
HETATM    7  C   UNL     1      -8.685   6.936  66.575  1.00  0.00    -0.137 C  
HETATM    8  C   UNL     1      -9.970   6.089  66.425  1.00  0.00    -0.093 C  
HETATM    9  N   UNL     1     -10.709   5.844  67.663  1.00  0.00    -0.270 NA 
HETATM   10  C   UNL     1     -11.128   6.080  70.013  1.00  0.00    -0.451 A  
HETATM   11  H   UNL     1     -11.493   5.193  67.632  1.00  0.00     0.000 HD 
HETATM   12  C   UNL     1     -10.410   6.439  68.866  1.00  0.00    -0.201 A  
HETATM   13  F   UNL     1     -11.494   6.238  72.340  1.00  0.00    -0.285 F  
HETATM   14  C   UNL     1      -9.344   7.322  69.027  1.00  0.00    -0.148 A  
HETATM   15  C   UNL     1     -10.802   6.617  71.260  1.00  0.00    -0.238 A  
HETATM   16  C   UNL     1      -9.770   7.532  71.399  1.00  0.00    -0.180 A  
HETATM   17  C   UNL     1      -8.489   7.669  67.889  1.00  0.00    -0.123 C  
HETATM   18  C   UNL     1      -9.044   7.889  70.264  1.00  0.00    -0.152 A  
HETATM   19  N   UNL     1      -7.517   8.532  67.983  1.00  0.00    -0.096 NA 
HETATM   20  O   UNL     1      -7.678   9.421  71.406  1.00  0.00    -0.334 OA 
HETATM   21  H   UNL     1      -6.584   9.871  69.202  1.00  0.00     0.000 HD 
HETATM   22  N   UNL     1      -7.300   9.144  69.176  1.00  0.00    -0.070 N  
HETATM   23  C   UNL     1      -7.957   8.872  70.351  1.00  0.00    -0.117 C  
BRANCH   8  24
HETATM   24  C   UNL     1      -9.585   4.739  65.807  1.00  0.00    -0.187 A  
HETATM   25  C   UNL     1      -9.401   3.360  63.811  1.00  0.00    -0.120 A  
HETATM   26  F   UNL     1      -7.942   1.507  63.819  1.00  0.00    -0.057 F  
HETATM   27  C   UNL     1      -8.510   2.527  64.477  1.00  0.00    -0.088 A  
HETATM   28  C   UNL     1      -8.180   2.749  65.806  1.00  0.00    -0.089 A  
HETATM   29  C   UNL     1      -8.715   3.854  66.471  1.00  0.00    -0.115 A  
HETATM   30  C   UNL     1      -9.947   4.457  64.477  1.00  0.00    -0.046 A  
ENDBRANCH   8  24
ENDBRANCH   6   7
TORSDOF 2
ENDMDL
MODEL      108
REMARK 921   NORMALIZED FREE ENERGY PREDICTED BY IDOCK:   -4.16 KCAL/MOL
REMARK 922        TOTAL FREE ENERGY PREDICTED BY IDOCK:   -5.32 KCAL/MOL
REMARK 923 INTER-LIGAND FREE ENERGY PREDICTED BY IDOCK:   -4.87 KCAL/MOL
REMARK 924 INTRA-LIGAND FREE ENERGY PREDICTED BY IDOCK:   -0.44 KCAL/MOL
REMARK 927      BINDING AFFINITY PREDICTED BY RF-SCORE:    0.00 PKD
ROOT
HETATM    1  C   UNL     1      -6.943   8.922  65.546  1.00  0.00    -0.080 C  
HETATM    2  N   UNL     1      -8.296   9.416  65.541  1.00  0.00    -0.128 NA 
HETATM    3  N   UNL     1      -8.656  10.342  64.632  1.00  0.00    -0.182 NA 
HETATM    4  C   UNL     1      -9.932  10.553  64.948  1.00  0.00    -0.334 A  
HETATM    5  N   UNL     1     -10.379   9.860  66.031  1.00  0.00    -0.187 NA 
HETATM    6  C   UNL     1      -9.341   9.123  66.385  1.00  0.00    -0.204 A  
ENDROOT
BRANCH   6   7
HETATM    7  C   UNL     1      -9.329   8.150  67.540  1.00  0.00    -0.165 C  
HETATM    8  C   UNL     1      -8.621   8.761  68.771  1.00  0.00    -0.137 C  
HETATM    9  N   UNL     1      -7.798   7.834  69.547  1.00  0.00    -0.109 NA 
HETATM   10  C   UNL     1      -6.782   5.709  70.005  1.00  0.00    -0.048 A  
HETATM   11  H   UNL     1      -7.411   8.162  70.432  1.00  0.00     0.000 HD 
HETATM   12  C   UNL     1      -7.515   6.547  69.155  1.00  0.00    -0.095 A  
HETATM   13  F   UNL     1      -5.852   3.599  70.507  1.00  0.00    -0.014 F  
HETATM   14  C   UNL     1      -8.016   5.988  67.980  1.00  0.00    -0.109 A  
HETATM   15  C   UNL     1      -6.538   4.378  69.663  1.00  0.00    -0.033 A  
HETATM   16  C   UNL     1      -6.999   3.848  68.468  1.00  0.00    -0.047 A  
HETATM   17  C   UNL     1      -8.871   6.776  67.088  1.00  0.00    -0.119 C  
HETATM   18  C   UNL     1      -7.738   4.671  67.620  1.00  0.00    -0.086 A  
HETATM   19  N   UNL     1      -9.314   6.312  65.954  1.00  0.00    -0.044 NA 
HETATM   20  O   UNL     1      -7.983   3.030  65.957  1.00  0.00    -0.083 OA 
HETATM   21  H   UNL     1      -9.250   4.747  64.651  1.00  0.00     0.000 HD 
HETATM   22  N   UNL     1      -8.954   5.057  65.577  1.00  0.00    -0.149 N  
HETATM   23  C   UNL     1      -8.229   4.168  66.332  1.00  0.00    -0.101 C  
BRANCH   8  24
HETATM   24  C   UNL     1      -9.692   9.357  69.693  1.00  0.00    -0.202 A  
HETATM   25  C   UNL     1     -11.564  10.888  69.963  1.00  0.00    -0.424 A  
HETATM   26  F   UNL     1     -13.088  10.547  71.730  1.00  0.00    -0.456 F  
HETATM   27  C   UNL     1     -11.963  10.191  71.097  1.00  0.00    -0.386 A  
HETATM   28  C   UNL     1     -11.226   9.114  71.569  1.00  0.00    -0.430 A  
HETATM   29  C   UNL     1     -10.094   8.697  70.869  1.00  0.00    -0.262 A  
HETATM   30  C   UNL     1     -10.424  10.481  69.268  1.00  0.00    -0.258 A  
ENDBRANCH   8  24
ENDBRANCH   6   7
TORSDOF 2
ENDMDL
MODEL      109
REMARK 921   NORMALIZED FREE ENERGY PREDICTED BY IDOCK:   -4.10 KCAL/MOL
REMARK 922        TOTAL FREE ENERGY PREDICTED BY IDOCK:   -5.26 KCAL/MOL
REMARK 923 INTER-LIGAND FREE ENERGY PREDICTED BY IDOCK:   -4.22 KCAL/MOL
REMARK 924 INTRA-LIGAND FREE ENERGY PREDICTED BY IDOCK:   -1.04 KCAL/MOL
REMARK 927      BINDING AFFINITY PREDICTED BY RF-SCORE:    0.00 PKD
ROOT
HETATM    1  C   UNL     1      -9.950  10.443  68.170  1.00  0.00    -0.149 C  
HETATM    2  N   UNL     1      -8.676  10.596  67.514  1.00  0.00    -0.125 NA 
HETATM    3  N   UNL     1      -8.046   9.506  67.038  1.00  0.00    -0.112 NA 
HETATM    4  C   UNL     1      -6.931  10.033  66.537  1.00  0.00    -0.095 A  
HETATM    5  N   UNL     1      -6.796  11.376  66.719  1.00  0.00    -0.140 NA 
HETATM    6  C   UNL     1      -7.920  11.727  67.319  1.00  0.00    -0.161 A  
ENDROOT
BRANCH   6   7
HETATM    7  C   UNL     1      -8.274  13.137  67.726  1.00  0.00    -0.168 C  
HETATM    8  C   UNL     1      -8.442  14.046  66.488  1.00  0.00     0.308 C  
HETATM    9  N   UNL     1      -7.939  15.411  66.636  1.00  0.00    -0.319 NA 
HETATM   10  C   UNL     1      -6.846  17.196  67.809  1.00  0.00    -0.165 A  
HETATM   11  H   UNL     1      -8.136  16.079  65.891  1.00  0.00     0.000 HD 
HETATM   12  C   UNL     1      -7.217  15.849  67.722  1.00  0.00    -0.147 A  
HETATM   13  F   UNL     1      -5.850  18.979  68.992  1.00  0.00    -0.202 F  
HETATM   14  C   UNL     1      -6.916  15.029  68.808  1.00  0.00    -0.107 A  
HETATM   15  C   UNL     1      -6.171  17.682  68.931  1.00  0.00    -0.207 A  
HETATM   16  C   UNL     1      -5.834  16.846  69.983  1.00  0.00    -0.213 A  
HETATM   17  C   UNL     1      -7.356  13.631  68.828  1.00  0.00    -0.093 C  
HETATM   18  C   UNL     1      -6.207  15.505  69.910  1.00  0.00    -0.157 A  
HETATM   19  N   UNL     1      -7.049  12.816  69.798  1.00  0.00     0.378 NA 
HETATM   20  O   UNL     1      -5.205  14.933  71.956  1.00  0.00    -0.139 OA 
HETATM   21  H   UNL     1      -5.988  12.597  71.523  1.00  0.00     0.000 HD 
HETATM   22  N   UNL     1      -6.278  13.275  70.818  1.00  0.00     0.082 N  
HETATM   23  C   UNL     1      -5.854  14.571  70.985  1.00  0.00    -0.147 C  
BRANCH   8  24
HETATM   24  C   UNL     1      -9.934  14.107  66.136  1.00  0.00    -0.328 A  
HETATM   25  C   UNL     1     -11.679  13.773  64.474  1.00  0.00    -0.432 A  
HETATM   26  F   UNL     1     -13.908  13.478  65.185  1.00  0.00     0.281 F  
HETATM   27  C   UNL     1     -12.628  13.729  65.488  1.00  0.00    -0.512 A  
HETATM   28  C   UNL     1     -12.265  13.914  66.815  1.00  0.00    -0.438 A  
HETATM   29  C   UNL     1     -10.921  14.103  67.140  1.00  0.00    -0.304 A  
HETATM   30  C   UNL     1     -10.336  13.974  64.795  1.00  0.00    -0.407 A  
ENDBRANCH   8  24
ENDBRANCH   6   7
TORSDOF 2
ENDMDL
MODEL      110
REMARK 921   NORMALIZED FREE ENERGY PREDICTED BY IDOCK:   -3.86 KCAL/MOL
REMARK 922        TOTAL FREE ENERGY PREDICTED BY IDOCK:   -4.99 KCAL/MOL
REMARK 923 INTER-LIGAND FREE ENERGY PREDICTED BY IDOCK:   -4.65 KCAL/MOL
REMARK 924 INTRA-LIGAND FREE ENERGY PREDICTED BY IDOCK:   -0.34 KCAL/MOL
REMARK 927      BINDING AFFINITY PREDICTED BY RF-SCORE:    0.00 PKD
ROOT
HETATM    1  C   UNL     1      -6.241  10.176  69.853  1.00  0.00    -0.063 C  
HETATM    2  N   UNL     1      -7.155  11.066  69.182  1.00  0.00    -0.106 NA 
HETATM    3  N   UNL     1      -6.929  12.392  69.221  1.00  0.00    -0.034 NA 
HETATM    4  C   UNL     1      -7.963  12.866  68.528  1.00  0.00    -0.095 A  
HETATM    5  N   UNL     1      -8.852  11.925  68.106  1.00  0.00    -0.173 NA 
HETATM    6  C   UNL     1      -8.317  10.784  68.505  1.00  0.00    -0.138 A  
ENDROOT
BRANCH   6   7
HETATM    7  C   UNL     1      -8.918   9.420  68.262  1.00  0.00    -0.128 C  
HETATM    8  C   UNL     1      -8.878   8.561  69.546  1.00  0.00    -0.141 C  
HETATM    9  N   UNL     1      -8.585   7.142  69.345  1.00  0.00    -0.133 NA 
HETATM   10  C   UNL     1      -8.022   5.217  68.029  1.00  0.00    -0.091 A  
HETATM   11  H   UNL     1      -8.667   6.517  70.147  1.00  0.00     0.000 HD 
HETATM   12  C   UNL     1      -8.205   6.601  68.140  1.00  0.00    -0.114 A  
HETATM   13  F   UNL     1      -7.554   3.305  66.727  1.00  0.00    -0.072 F  
HETATM   14  C   UNL     1      -8.089   7.358  66.975  1.00  0.00    -0.113 A  
HETATM   15  C   UNL     1      -7.702   4.633  66.802  1.00  0.00    -0.095 A  
HETATM   16  C   UNL     1      -7.541   5.402  65.661  1.00  0.00    -0.082 A  
HETATM   17  C   UNL     1      -8.360   8.798  66.996  1.00  0.00    -0.103 C  
HETATM   18  C   UNL     1      -7.730   6.780  65.759  1.00  0.00    -0.096 A  
HETATM   19  N   UNL     1      -8.209   9.552  65.943  1.00  0.00    -0.114 NA 
HETATM   20  O   UNL     1      -7.202   7.188  63.507  1.00  0.00    -0.064 OA 
HETATM   21  H   UNL     1      -7.586   9.609  64.005  1.00  0.00     0.000 HD 
HETATM   22  N   UNL     1      -7.769   8.984  64.791  1.00  0.00    -0.105 N  
HETATM   23  C   UNL     1      -7.548   7.644  64.587  1.00  0.00    -0.111 C  
BRANCH   8  24
HETATM   24  C   UNL     1     -10.236   8.687  70.249  1.00  0.00    -0.213 A  
HETATM   25  C   UNL     1     -11.930   7.666  71.666  1.00  0.00    -0.329 A  
HETATM   26  F   UNL     1     -13.461   9.046  72.812  1.00  0.00    -0.472 F  
HETATM   27  C   UNL     1     -12.446   8.925  71.946  1.00  0.00    -0.378 A  
HETATM   28  C   UNL     1     -11.910  10.064  71.361  1.00  0.00    -0.447 A  
HETATM   29  C   UNL     1     -10.807   9.946  70.515  1.00  0.00    -0.391 A  
HETATM   30  C   UNL     1     -10.835   7.545  70.810  1.00  0.00    -0.253 A  
ENDBRANCH   8  24
ENDBRANCH   6   7
TORSDOF 2
ENDMDL
MODEL      111
REMARK 921   NORMALIZED FREE ENERGY PREDICTED BY IDOCK:   -3.85 KCAL/MOL
REMARK 922        TOTAL FREE ENERGY PREDICTED BY IDOCK:   -4.98 KCAL/MOL
REMARK 923 INTER-LIGAND FREE ENERGY PREDICTED BY IDOCK:   -4.48 KCAL/MOL
REMARK 924 INTRA-LIGAND FREE ENERGY PREDICTED BY IDOCK:   -0.50 KCAL/MOL
REMARK 927      BINDING AFFINITY PREDICTED BY RF-SCORE:    0.00 PKD
ROOT
HETATM    1  C   UNL     1     -11.991  13.685  68.673  1.00  0.00    -0.360 C  
HETATM    2  N   UNL     1     -11.769  13.186  67.339  1.00  0.00    -0.355 NA 
HETATM    3  N   UNL     1     -12.676  12.356  66.788  1.00  0.00     0.697 NA 
HETATM    4  C   UNL     1     -12.128  12.105  65.601  1.00  0.00    -0.104 A  
HETATM    5  N   UNL     1     -10.911  12.679  65.395  1.00  0.00    -0.280 NA 
HETATM    6  C   UNL     1     -10.703  13.382  66.495  1.00  0.00    -0.286 A  
ENDROOT
BRANCH   6   7
HETATM    7  C   UNL     1      -9.482  14.230  66.757  1.00  0.00    -0.287 C  
HETATM    8  C   UNL     1      -8.832  13.860  68.110  1.00  0.00    -0.184 C  
HETATM    9  N   UNL     1      -8.297  14.984  68.878  1.00  0.00    -0.173 NA 
HETATM   10  C   UNL     1      -7.864  17.306  69.294  1.00  0.00     0.075 A  
HETATM   11  H   UNL     1      -7.754  14.776  69.717  1.00  0.00     0.000 HD 
HETATM   12  C   UNL     1      -8.482  16.303  68.538  1.00  0.00    -0.206 A  
HETATM   13  F   UNL     1      -7.358  19.582  69.665  1.00  0.00    -0.356 F  
HETATM   14  C   UNL     1      -9.181  16.698  67.400  1.00  0.00    -0.216 A  
HETATM   15  C   UNL     1      -7.979  18.649  68.932  1.00  0.00    -0.220 A  
HETATM   16  C   UNL     1      -8.718  19.033  67.825  1.00  0.00    -0.328 A  
HETATM   17  C   UNL     1      -9.774  15.697  66.508  1.00  0.00    -0.266 C  
HETATM   18  C   UNL     1      -9.330  18.042  67.061  1.00  0.00    -0.265 A  
HETATM   19  N   UNL     1     -10.483  16.024  65.464  1.00  0.00    -0.393 NA 
HETATM   20  O   UNL     1     -10.332  19.560  65.575  1.00  0.00    -0.442 OA 
HETATM   21  H   UNL     1     -11.316  17.567  64.427  1.00  0.00     0.000 HD 
HETATM   22  N   UNL     1     -10.694  17.341  65.204  1.00  0.00    -0.115 N  
HETATM   23  C   UNL     1     -10.145  18.394  65.893  1.00  0.00    -0.162 C  
BRANCH   8  24
HETATM   24  C   UNL     1      -7.697  12.864  67.840  1.00  0.00    -0.143 A  
HETATM   25  C   UNL     1      -6.046  11.322  68.743  1.00  0.00    -0.044 A  
HETATM   26  F   UNL     1      -5.163   9.633  67.354  1.00  0.00    -0.035 F  
HETATM   27  C   UNL     1      -5.948  10.709  67.500  1.00  0.00    -0.048 A  
HETATM   28  C   UNL     1      -6.671  11.178  66.413  1.00  0.00    -0.102 A  
HETATM   29  C   UNL     1      -7.545  12.253  66.581  1.00  0.00     0.214 A  
HETATM   30  C   UNL     1      -6.909  12.406  68.911  1.00  0.00    -0.099 A  
ENDBRANCH   8  24
ENDBRANCH   6   7
TORSDOF 2
ENDMDL
MODEL      112
REMARK 921   NORMALIZED FREE ENERGY PREDICTED BY IDOCK:   -3.78 KCAL/MOL
REMARK 922        TOTAL FREE ENERGY PREDICTED BY IDOCK:   -4.90 KCAL/MOL
REMARK 923 INTER-LIGAND FREE ENERGY PREDICTED BY IDOCK:   -4.30 KCAL/MOL
REMARK 924 INTRA-LIGAND FREE ENERGY PREDICTED BY IDOCK:   -0.60 KCAL/MOL
REMARK 927      BINDING AFFINITY PREDICTED BY RF-SCORE:    0.00 PKD
ROOT
HETATM    1  C   UNL     1      -9.807  11.180  63.561  1.00  0.00    -0.353 C  
HETATM    2  N   UNL     1     -10.662  11.487  64.680  1.00  0.00    -0.309 NA 
HETATM    3  N   UNL     1     -11.775  12.218  64.476  1.00  0.00    -0.346 NA 
HETATM    4  C   UNL     1     -12.274  12.305  65.708  1.00  0.00    -0.073 A  
HETATM    5  N   UNL     1     -11.516  11.723  66.678  1.00  0.00    -0.468 NA 
HETATM    6  C   UNL     1     -10.508  11.186  66.012  1.00  0.00    -0.256 A  
ENDROOT
BRANCH   6   7
HETATM    7  C   UNL     1      -9.382  10.400  66.640  1.00  0.00    -0.185 C  
HETATM    8  C   UNL     1      -8.009  10.911  66.149  1.00  0.00    -0.155 C  
HETATM    9  N   UNL     1      -6.998   9.879  65.922  1.00  0.00    -0.101 NA 
HETATM   10  C   UNL     1      -6.203   7.618  65.818  1.00  0.00    -0.038 A  
HETATM   11  H   UNL     1      -6.045  10.179  65.715  1.00  0.00     0.000 HD 
HETATM   12  C   UNL     1      -7.255   8.530  65.972  1.00  0.00    -0.077 A  
HETATM   13  F   UNL     1      -5.392   5.402  65.799  1.00  0.00    -0.011 F  
HETATM   14  C   UNL     1      -8.513   8.011  66.274  1.00  0.00    -0.138 A  
HETATM   15  C   UNL     1      -6.423   6.244  65.931  1.00  0.00    -0.046 A  
HETATM   16  C   UNL     1      -7.688   5.739  66.183  1.00  0.00    -0.095 A  
HETATM   17  C   UNL     1      -9.641   8.908  66.542  1.00  0.00    -0.232 C  
HETATM   18  C   UNL     1      -8.741   6.638  66.347  1.00  0.00    -0.144 A  
HETATM   19  N   UNL     1     -10.845   8.466  66.773  1.00  0.00    -0.027 NA 
HETATM   20  O   UNL     1     -10.361   4.961  66.631  1.00  0.00    -0.244 OA 
HETATM   21  H   UNL     1     -12.030   6.811  66.855  1.00  0.00     0.000 HD 
HETATM   22  N   UNL     1     -11.065   7.126  66.747  1.00  0.00    -0.078 N  
HETATM   23  C   UNL     1     -10.105   6.156  66.591  1.00  0.00    -0.162 C  
BRANCH   8  24
HETATM   24  C   UNL     1      -7.471  11.908  67.184  1.00  0.00    -0.146 A  
HETATM   25  C   UNL     1      -7.674  14.083  68.256  1.00  0.00    -0.141 A  
HETATM   26  F   UNL     1      -6.690  14.423  70.371  1.00  0.00    -0.166 F  
HETATM   27  C   UNL     1      -6.904  13.625  69.317  1.00  0.00    -0.063 A  
HETATM   28  C   UNL     1      -6.374  12.342  69.315  1.00  0.00    -0.106 A  
HETATM   29  C   UNL     1      -6.657  11.484  68.251  1.00  0.00    -0.061 A  
HETATM   30  C   UNL     1      -7.948  13.231  67.184  1.00  0.00    -0.077 A  
ENDBRANCH   8  24
ENDBRANCH   6   7
TORSDOF 2
ENDMDL
MODEL      113
REMARK 921   NORMALIZED FREE ENERGY PREDICTED BY IDOCK:   -3.77 KCAL/MOL
REMARK 922        TOTAL FREE ENERGY PREDICTED BY IDOCK:   -4.88 KCAL/MOL
REMARK 923 INTER-LIGAND FREE ENERGY PREDICTED BY IDOCK:   -4.03 KCAL/MOL
REMARK 924 INTRA-LIGAND FREE ENERGY PREDICTED BY IDOCK:   -0.86 KCAL/MOL
REMARK 927      BINDING AFFINITY PREDICTED BY RF-SCORE:    0.00 PKD
ROOT
HETATM    1  C   UNL     1     -10.163  10.837  65.873  1.00  0.00    -0.259 C  
HETATM    2  N   UNL     1      -9.180   9.784  65.904  1.00  0.00    -0.172 NA 
HETATM    3  N   UNL     1      -8.899   9.112  64.772  1.00  0.00    -0.185 NA 
HETATM    4  C   UNL     1      -7.989   8.236  65.194  1.00  0.00    -0.128 A  
HETATM    5  N   UNL     1      -7.723   8.280  66.528  1.00  0.00    -0.091 NA 
HETATM    6  C   UNL     1      -8.466   9.282  66.966  1.00  0.00    -0.124 A  
ENDROOT
BRANCH   6   7
HETATM    7  C   UNL     1      -8.516   9.755  68.399  1.00  0.00    -0.114 C  
HETATM    8  C   UNL     1      -7.097  10.047  68.935  1.00  0.00    -0.068 C  
HETATM    9  N   UNL     1      -6.862   9.672  70.329  1.00  0.00    -0.092 NA 
HETATM   10  C   UNL     1      -7.474   8.717  72.443  1.00  0.00    -0.020 A  
HETATM   11  H   UNL     1      -5.982   9.955  70.760  1.00  0.00     0.000 HD 
HETATM   12  C   UNL     1      -7.756   8.961  71.093  1.00  0.00    -0.129 A  
HETATM   13  F   UNL     1      -8.102   7.858  74.550  1.00  0.00    -0.207 F  
HETATM   14  C   UNL     1      -8.999   8.550  70.614  1.00  0.00    -0.182 A  
HETATM   15  C   UNL     1      -8.394   8.057  73.259  1.00  0.00    -0.211 A  
HETATM   16  C   UNL     1      -9.606   7.609  72.758  1.00  0.00    -0.253 A  
HETATM   17  C   UNL     1      -9.402   8.854  69.238  1.00  0.00    -0.149 C  
HETATM   18  C   UNL     1      -9.901   7.855  71.418  1.00  0.00    -0.203 A  
HETATM   19  N   UNL     1     -10.530   8.441  68.733  1.00  0.00    -0.205 NA 
HETATM   20  O   UNL     1     -11.966   6.739  71.487  1.00  0.00    -0.314 OA 
HETATM   21  H   UNL     1     -12.193   7.311  69.062  1.00  0.00     0.000 HD 
HETATM   22  N   UNL     1     -11.354   7.685  69.505  1.00  0.00     0.088 N  
HETATM   23  C   UNL     1     -11.159   7.381  70.830  1.00  0.00    -0.263 C  
BRANCH   8  24
HETATM   24  C   UNL     1      -6.824  11.548  68.778  1.00  0.00    -0.084 A  
HETATM   25  C   UNL     1      -7.661  13.743  68.143  1.00  0.00    -0.128 A  
HETATM   26  F   UNL     1      -6.586  15.672  68.971  1.00  0.00    -0.111 F  
HETATM   27  C   UNL     1      -6.636  14.337  68.869  1.00  0.00    -0.096 A  
HETATM   28  C   UNL     1      -5.678  13.568  69.514  1.00  0.00    -0.098 A  
HETATM   29  C   UNL     1      -5.771  12.176  69.469  1.00  0.00    -0.087 A  
HETATM   30  C   UNL     1      -7.749  12.352  68.085  1.00  0.00    -0.139 A  
ENDBRANCH   8  24
ENDBRANCH   6   7
TORSDOF 2
ENDMDL
MODEL      114
REMARK 921   NORMALIZED FREE ENERGY PREDICTED BY IDOCK:   -3.58 KCAL/MOL
REMARK 922        TOTAL FREE ENERGY PREDICTED BY IDOCK:   -4.68 KCAL/MOL
REMARK 923 INTER-LIGAND FREE ENERGY PREDICTED BY IDOCK:   -3.71 KCAL/MOL
REMARK 924 INTRA-LIGAND FREE ENERGY PREDICTED BY IDOCK:   -0.97 KCAL/MOL
REMARK 927      BINDING AFFINITY PREDICTED BY RF-SCORE:    0.00 PKD
ROOT
HETATM    1  C   UNL     1      -9.631  10.738  68.001  1.00  0.00    -0.163 C  
HETATM    2  N   UNL     1      -8.240  10.582  68.343  1.00  0.00    -0.116 NA 
HETATM    3  N   UNL     1      -7.440  11.665  68.355  1.00  0.00    -0.100 NA 
HETATM    4  C   UNL     1      -6.265  11.133  68.686  1.00  0.00    -0.043 A  
HETATM    5  N   UNL     1      -6.267   9.779  68.829  1.00  0.00    -0.042 NA 
HETATM    6  C   UNL     1      -7.530   9.442  68.632  1.00  0.00    -0.079 A  
ENDROOT
BRANCH   6   7
HETATM    7  C   UNL     1      -8.065   8.032  68.700  1.00  0.00    -0.125 C  
HETATM    8  C   UNL     1      -8.242   7.577  70.167  1.00  0.00    -0.132 C  
HETATM    9  N   UNL     1      -7.905   6.179  70.436  1.00  0.00    -0.104 NA 
HETATM   10  C   UNL     1      -7.102   3.997  69.846  1.00  0.00    -0.042 A  
HETATM   11  H   UNL     1      -8.119   5.804  71.360  1.00  0.00     0.000 HD 
HETATM   12  C   UNL     1      -7.315   5.342  69.519  1.00  0.00    -0.061 A  
HETATM   13  F   UNL     1      -6.396   1.825  69.249  1.00  0.00    -0.023 F  
HETATM   14  C   UNL     1      -7.005   5.742  68.221  1.00  0.00    -0.069 A  
HETATM   15  C   UNL     1      -6.568   3.108  68.911  1.00  0.00    -0.033 A  
HETATM   16  C   UNL     1      -6.218   3.531  67.639  1.00  0.00    -0.032 A  
HETATM   17  C   UNL     1      -7.289   7.110  67.778  1.00  0.00    -0.097 C  
HETATM   18  C   UNL     1      -6.435   4.865  67.300  1.00  0.00    -0.045 A  
HETATM   19  N   UNL     1      -6.965   7.542  66.592  1.00  0.00    -0.072 NA 
HETATM   20  O   UNL     1      -5.526   4.648  65.145  1.00  0.00    -0.013 OA 
HETATM   21  H   UNL     1      -6.014   7.084  64.850  1.00  0.00     0.000 HD 
HETATM   22  N   UNL     1      -6.325   6.698  65.742  1.00  0.00    -0.041 N  
HETATM   23  C   UNL     1      -6.059   5.371  65.975  1.00  0.00    -0.033 C  
BRANCH   8  24
HETATM   24  C   UNL     1      -9.702   7.816  70.570  1.00  0.00    -0.175 A  
HETATM   25  C   UNL     1     -11.968   6.945  70.737  1.00  0.00    -0.424 A  
HETATM   26  F   UNL     1     -13.482   7.945  72.243  1.00  0.00    -0.268 F  
HETATM   27  C   UNL     1     -12.273   7.931  71.666  1.00  0.00    -0.308 A  
HETATM   28  C   UNL     1     -11.335   8.889  72.026  1.00  0.00    -0.427 A  
HETATM   29  C   UNL     1     -10.051   8.832  71.480  1.00  0.00    -0.371 A  
HETATM   30  C   UNL     1     -10.690   6.893  70.180  1.00  0.00    -0.270 A  
ENDBRANCH   8  24
ENDBRANCH   6   7
TORSDOF 2
ENDMDL
MODEL      115
REMARK 921   NORMALIZED FREE ENERGY PREDICTED BY IDOCK:   -3.52 KCAL/MOL
REMARK 922        TOTAL FREE ENERGY PREDICTED BY IDOCK:   -4.61 KCAL/MOL
REMARK 923 INTER-LIGAND FREE ENERGY PREDICTED BY IDOCK:   -3.89 KCAL/MOL
REMARK 924 INTRA-LIGAND FREE ENERGY PREDICTED BY IDOCK:   -0.71 KCAL/MOL
REMARK 927      BINDING AFFINITY PREDICTED BY RF-SCORE:    0.00 PKD
ROOT
HETATM    1  C   UNL     1     -10.347  11.381  63.396  1.00  0.00    -0.402 C  
HETATM    2  N   UNL     1     -11.372  12.101  64.110  1.00  0.00    -0.353 NA 
HETATM    3  N   UNL     1     -12.460  12.531  63.443  1.00  0.00    -0.703 NA 
HETATM    4  C   UNL     1     -13.143  13.147  64.406  1.00  0.00     0.320 A  
HETATM    5  N   UNL     1     -12.527  13.179  65.619  1.00  0.00    -0.456 NA 
HETATM    6  C   UNL     1     -11.415  12.491  65.427  1.00  0.00    -0.344 A  
ENDROOT
BRANCH   6   7
HETATM    7  C   UNL     1     -10.377  12.217  66.489  1.00  0.00    -0.239 C  
HETATM    8  C   UNL     1      -9.080  13.010  66.213  1.00  0.00     0.009 C  
HETATM    9  N   UNL     1      -7.835  12.304  66.516  1.00  0.00    -0.380 NA 
HETATM   10  C   UNL     1      -6.539  10.410  67.216  1.00  0.00    -0.068 A  
HETATM   11  H   UNL     1      -6.961  12.829  66.465  1.00  0.00     0.000 HD 
HETATM   12  C   UNL     1      -7.771  10.977  66.868  1.00  0.00    -0.140 A  
HETATM   13  F   UNL     1      -5.265   8.579  67.987  1.00  0.00    -0.031 F  
HETATM   14  C   UNL     1      -8.904  10.175  66.996  1.00  0.00    -0.144 A  
HETATM   15  C   UNL     1      -6.455   9.084  67.642  1.00  0.00    -0.060 A  
HETATM   16  C   UNL     1      -7.583   8.282  67.718  1.00  0.00    -0.102 A  
HETATM   17  C   UNL     1     -10.238  10.727  66.741  1.00  0.00    -0.230 C  
HETATM   18  C   UNL     1      -8.816   8.839  67.383  1.00  0.00    -0.140 A  
HETATM   19  N   UNL     1     -11.317   9.999  66.795  1.00  0.00     0.237 NA 
HETATM   20  O   UNL     1     -10.007   6.843  67.723  1.00  0.00    -0.138 OA 
HETATM   21  H   UNL     1     -12.051   8.115  67.042  1.00  0.00     0.000 HD 
HETATM   22  N   UNL     1     -11.200   8.677  67.082  1.00  0.00     0.535 N  
HETATM   23  C   UNL     1     -10.038   8.028  67.422  1.00  0.00    -0.228 C  
BRANCH   8  24
HETATM   24  C   UNL     1      -9.124  14.304  67.035  1.00  0.00    -0.246 A  
HETATM   25  C   UNL     1     -10.146  15.562  68.850  1.00  0.00    -0.214 A  
HETATM   26  F   UNL     1      -8.951  17.339  69.838  1.00  0.00     0.484 F  
HETATM   27  C   UNL     1      -9.028  16.385  68.900  1.00  0.00    -0.256 A  
HETATM   28  C   UNL     1      -7.978  16.220  68.009  1.00  0.00    -0.151 A  
HETATM   29  C   UNL     1      -8.024  15.181  67.078  1.00  0.00    -0.223 A  
HETATM   30  C   UNL     1     -10.201  14.530  67.912  1.00  0.00    -0.231 A  
ENDBRANCH   8  24
ENDBRANCH   6   7
TORSDOF 2
ENDMDL
MODEL      116
REMARK 921   NORMALIZED FREE ENERGY PREDICTED BY IDOCK:   -3.46 KCAL/MOL
REMARK 922        TOTAL FREE ENERGY PREDICTED BY IDOCK:   -4.54 KCAL/MOL
REMARK 923 INTER-LIGAND FREE ENERGY PREDICTED BY IDOCK:   -3.84 KCAL/MOL
REMARK 924 INTRA-LIGAND FREE ENERGY PREDICTED BY IDOCK:   -0.70 KCAL/MOL
REMARK 927      BINDING AFFINITY PREDICTED BY RF-SCORE:    0.00 PKD
ROOT
HETATM    1  C   UNL     1      -5.829   9.665  71.543  1.00  0.00    -0.024 C  
HETATM    2  N   UNL     1      -6.722   8.914  72.390  1.00  0.00    -0.296 NA 
HETATM    3  N   UNL     1      -6.611   9.027  73.727  1.00  0.00    -0.336 NA 
HETATM    4  C   UNL     1      -7.561   8.196  74.150  1.00  0.00    -0.206 A  
HETATM    5  N   UNL     1      -8.223   7.528  73.165  1.00  0.00    -0.114 NA 
HETATM    6  C   UNL     1      -7.699   8.009  72.051  1.00  0.00    -0.103 A  
ENDROOT
BRANCH   6   7
HETATM    7  C   UNL     1      -8.111   7.597  70.658  1.00  0.00    -0.108 C  
HETATM    8  C   UNL     1      -6.890   7.126  69.836  1.00  0.00    -0.056 C  
HETATM    9  N   UNL     1      -6.894   7.513  68.426  1.00  0.00    -0.061 NA 
HETATM   10  C   UNL     1      -7.783   8.618  66.490  1.00  0.00    -0.095 A  
HETATM   11  H   UNL     1      -6.172   7.124  67.819  1.00  0.00     0.000 HD 
HETATM   12  C   UNL     1      -7.814   8.369  67.868  1.00  0.00    -0.107 A  
HETATM   13  F   UNL     1      -8.698   9.629  64.564  1.00  0.00    -0.154 F  
HETATM   14  C   UNL     1      -8.858   8.935  68.597  1.00  0.00    -0.137 A  
HETATM   15  C   UNL     1      -8.745   9.429  65.886  1.00  0.00    -0.154 A  
HETATM   16  C   UNL     1      -9.749  10.026  66.631  1.00  0.00    -0.246 A  
HETATM   17  C   UNL     1      -9.010   8.643  70.025  1.00  0.00    -0.147 C  
HETATM   18  C   UNL     1      -9.795   9.778  68.002  1.00  0.00    -0.173 A  
HETATM   19  N   UNL     1      -9.937   9.194  70.757  1.00  0.00    -0.246 NA 
HETATM   20  O   UNL     1     -11.646  11.176  68.371  1.00  0.00    -0.298 OA 
HETATM   21  H   UNL     1     -11.449  10.559  70.787  1.00  0.00     0.000 HD 
HETATM   22  N   UNL     1     -10.783  10.085  70.176  1.00  0.00    -0.288 N  
HETATM   23  C   UNL     1     -10.823  10.404  68.841  1.00  0.00    -0.236 C  
BRANCH   8  24
HETATM   24  C   UNL     1      -6.812   5.597  69.926  1.00  0.00    -0.060 A  
HETATM   25  C   UNL     1      -5.429   3.611  70.177  1.00  0.00    -0.012 A  
HETATM   26  F   UNL     1      -6.414   1.606  70.932  1.00  0.00    -0.021 F  
HETATM   27  C   UNL     1      -6.550   2.886  70.561  1.00  0.00    -0.032 A  
HETATM   28  C   UNL     1      -7.806   3.475  70.591  1.00  0.00    -0.046 A  
HETATM   29  C   UNL     1      -7.938   4.828  70.276  1.00  0.00    -0.068 A  
HETATM   30  C   UNL     1      -5.560   4.961  69.848  1.00  0.00    -0.015 A  
ENDBRANCH   8  24
ENDBRANCH   6   7
TORSDOF 2
ENDMDL
MODEL      117
REMARK 921   NORMALIZED FREE ENERGY PREDICTED BY IDOCK:   -3.42 KCAL/MOL
REMARK 922        TOTAL FREE ENERGY PREDICTED BY IDOCK:   -4.49 KCAL/MOL
REMARK 923 INTER-LIGAND FREE ENERGY PREDICTED BY IDOCK:   -4.29 KCAL/MOL
REMARK 924 INTRA-LIGAND FREE ENERGY PREDICTED BY IDOCK:   -0.21 KCAL/MOL
REMARK 927      BINDING AFFINITY PREDICTED BY RF-SCORE:    0.00 PKD
ROOT
HETATM    1  C   UNL     1      -9.442   5.581  73.412  1.00  0.00    -0.138 C  
HETATM    2  N   UNL     1      -9.725   4.367  72.689  1.00  0.00    -0.144 NA 
HETATM    3  N   UNL     1      -9.930   3.226  73.374  1.00  0.00    -0.111 NA 
HETATM    4  C   UNL     1     -10.135   2.351  72.391  1.00  0.00    -0.160 A  
HETATM    5  N   UNL     1     -10.016   2.860  71.134  1.00  0.00    -0.018 NA 
HETATM    6  C   UNL     1      -9.779   4.145  71.334  1.00  0.00    -0.181 A  
ENDROOT
BRANCH   6   7
HETATM    7  C   UNL     1      -9.585   5.166  70.239  1.00  0.00    -0.249 C  
HETATM    8  C   UNL     1      -8.091   5.305  69.871  1.00  0.00    -0.084 C  
HETATM    9  N   UNL     1      -7.642   6.663  69.566  1.00  0.00    -0.093 NA 
HETATM   10  C   UNL     1      -7.927   9.035  69.346  1.00  0.00    -0.100 A  
HETATM   11  H   UNL     1      -6.697   6.786  69.202  1.00  0.00     0.000 HD 
HETATM   12  C   UNL     1      -8.418   7.785  69.740  1.00  0.00    -0.133 A  
HETATM   13  F   UNL     1      -8.225  11.357  69.044  1.00  0.00    -0.144 F  
HETATM   14  C   UNL     1      -9.731   7.730  70.204  1.00  0.00    -0.183 A  
HETATM   15  C   UNL     1      -8.718  10.181  69.449  1.00  0.00    -0.176 A  
HETATM   16  C   UNL     1     -10.005  10.120  69.957  1.00  0.00    -0.213 A  
HETATM   17  C   UNL     1     -10.345   6.443  70.545  1.00  0.00    -0.202 C  
HETATM   18  C   UNL     1     -10.507   8.879  70.344  1.00  0.00    -0.245 A  
HETATM   19  N   UNL     1     -11.549   6.351  71.034  1.00  0.00    -0.335 NA 
HETATM   20  O   UNL     1     -12.561   9.744  71.085  1.00  0.00    -0.315 OA 
HETATM   21  H   UNL     1     -13.164   7.397  71.705  1.00  0.00     0.000 HD 
HETATM   22  N   UNL     1     -12.255   7.492  71.250  1.00  0.00    -0.323 N  
HETATM   23  C   UNL     1     -11.855   8.761  70.912  1.00  0.00    -0.230 C  
BRANCH   8  24
HETATM   24  C   UNL     1      -7.811   4.411  68.656  1.00  0.00    -0.074 A  
HETATM   25  C   UNL     1      -7.585   2.162  67.757  1.00  0.00    -0.055 A  
HETATM   26  F   UNL     1      -7.829   1.817  65.437  1.00  0.00    -0.067 F  
HETATM   27  C   UNL     1      -7.776   2.662  66.475  1.00  0.00    -0.076 A  
HETATM   28  C   UNL     1      -7.939   4.022  66.255  1.00  0.00    -0.098 A  
HETATM   29  C   UNL     1      -7.958   4.896  67.343  1.00  0.00    -0.095 A  
HETATM   30  C   UNL     1      -7.589   3.035  68.845  1.00  0.00    -0.048 A  
ENDBRANCH   8  24
ENDBRANCH   6   7
TORSDOF 2
ENDMDL
MODEL      118
REMARK 921   NORMALIZED FREE ENERGY PREDICTED BY IDOCK:   -3.23 KCAL/MOL
REMARK 922        TOTAL FREE ENERGY PREDICTED BY IDOCK:   -4.29 KCAL/MOL
REMARK 923 INTER-LIGAND FREE ENERGY PREDICTED BY IDOCK:   -3.75 KCAL/MOL
REMARK 924 INTRA-LIGAND FREE ENERGY PREDICTED BY IDOCK:   -0.54 KCAL/MOL
REMARK 927      BINDING AFFINITY PREDICTED BY RF-SCORE:    0.00 PKD
ROOT
HETATM    1  C   UNL     1      -8.428  10.630  65.764  1.00  0.00    -0.178 C  
HETATM    2  N   UNL     1      -9.632  10.491  66.544  1.00  0.00    -0.170 NA 
HETATM    3  N   UNL     1     -10.568  11.457  66.486  1.00  0.00    -0.253 NA 
HETATM    4  C   UNL     1     -11.490  10.994  67.328  1.00  0.00    -0.081 A  
HETATM    5  N   UNL     1     -11.166   9.828  67.952  1.00  0.00    -0.096 NA 
HETATM    6  C   UNL     1      -9.996   9.505  67.429  1.00  0.00    -0.189 A  
ENDROOT
BRANCH   6   7
HETATM    7  C   UNL     1      -9.207   8.266  67.782  1.00  0.00    -0.144 C  
HETATM    8  C   UNL     1      -9.384   7.173  66.704  1.00  0.00    -0.166 C  
HETATM    9  N   UNL     1      -9.469   5.802  67.208  1.00  0.00    -0.112 NA 
HETATM   10  C   UNL     1      -9.554   4.133  68.929  1.00  0.00    -0.222 A  
HETATM   11  H   UNL     1      -9.465   5.040  66.529  1.00  0.00     0.000 HD 
HETATM   12  C   UNL     1      -9.555   5.478  68.541  1.00  0.00    -0.127 A  
HETATM   13  F   UNL     1      -9.549   2.482  70.616  1.00  0.00    -0.201 F  
HETATM   14  C   UNL     1      -9.541   6.437  69.553  1.00  0.00    -0.154 A  
HETATM   15  C   UNL     1      -9.572   3.777  70.279  1.00  0.00    -0.187 A  
HETATM   16  C   UNL     1      -9.607   4.739  71.274  1.00  0.00    -0.232 A  
HETATM   17  C   UNL     1      -9.446   7.862  69.225  1.00  0.00    -0.152 C  
HETATM   18  C   UNL     1      -9.599   6.082  70.899  1.00  0.00    -0.196 A  
HETATM   19  N   UNL     1      -9.486   8.793  70.135  1.00  0.00    -0.163 NA 
HETATM   20  O   UNL     1      -9.746   6.880  73.103  1.00  0.00    -0.157 OA 
HETATM   21  H   UNL     1      -9.742   9.179  72.119  1.00  0.00     0.000 HD 
HETATM   22  N   UNL     1      -9.637   8.429  71.435  1.00  0.00    -0.176 N  
HETATM   23  C   UNL     1      -9.660   7.141  71.912  1.00  0.00    -0.149 C  
BRANCH   8  24
HETATM   24  C   UNL     1      -8.204   7.265  65.729  1.00  0.00    -0.135 A  
HETATM   25  C   UNL     1      -7.430   7.655  63.455  1.00  0.00    -0.108 A  
HETATM   26  F   UNL     1      -5.189   8.294  63.092  1.00  0.00    -0.056 F  
HETATM   27  C   UNL     1      -6.155   7.915  63.941  1.00  0.00    -0.058 A  
HETATM   28  C   UNL     1      -5.870   7.813  65.295  1.00  0.00    -0.038 A  
HETATM   29  C   UNL     1      -6.892   7.490  66.189  1.00  0.00    -0.061 A  
HETATM   30  C   UNL     1      -8.451   7.319  64.345  1.00  0.00     0.209 A  
ENDBRANCH   8  24
ENDBRANCH   6   7
TORSDOF 2
ENDMDL
MODEL      119
REMARK 921   NORMALIZED FREE ENERGY PREDICTED BY IDOCK:   -3.20 KCAL/MOL
REMARK 922        TOTAL FREE ENERGY PREDICTED BY IDOCK:   -4.26 KCAL/MOL
REMARK 923 INTER-LIGAND FREE ENERGY PREDICTED BY IDOCK:   -3.46 KCAL/MOL
REMARK 924 INTRA-LIGAND FREE ENERGY PREDICTED BY IDOCK:   -0.80 KCAL/MOL
REMARK 927      BINDING AFFINITY PREDICTED BY RF-SCORE:    0.00 PKD
ROOT
HETATM    1  C   UNL     1     -11.550   6.401  69.677  1.00  0.00    -0.282 C  
HETATM    2  N   UNL     1     -11.069   7.421  70.574  1.00  0.00    -0.257 NA 
HETATM    3  N   UNL     1     -11.937   8.027  71.406  1.00  0.00    -0.293 NA 
HETATM    4  C   UNL     1     -11.148   8.892  72.041  1.00  0.00    -0.351 A  
HETATM    5  N   UNL     1      -9.853   8.904  71.620  1.00  0.00    -0.307 NA 
HETATM    6  C   UNL     1      -9.808   7.950  70.707  1.00  0.00    -0.180 A  
ENDROOT
BRANCH   6   7
HETATM    7  C   UNL     1      -8.571   7.549  69.940  1.00  0.00    -0.139 C  
HETATM    8  C   UNL     1      -8.612   8.098  68.496  1.00  0.00    -0.130 C  
HETATM    9  N   UNL     1      -8.077   7.205  67.469  1.00  0.00    -0.113 NA 
HETATM   10  C   UNL     1      -7.130   5.150  66.671  1.00  0.00    -0.069 A  
HETATM   11  H   UNL     1      -7.973   7.570  66.522  1.00  0.00     0.000 HD 
HETATM   12  C   UNL     1      -7.705   5.902  67.702  1.00  0.00    -0.097 A  
HETATM   13  F   UNL     1      -6.118   3.164  65.895  1.00  0.00    -0.021 F  
HETATM   14  C   UNL     1      -7.778   5.311  68.962  1.00  0.00    -0.082 A  
HETATM   15  C   UNL     1      -6.682   3.848  66.898  1.00  0.00    -0.047 A  
HETATM   16  C   UNL     1      -6.805   3.253  68.143  1.00  0.00    -0.049 A  
HETATM   17  C   UNL     1      -8.281   6.070  70.111  1.00  0.00    -0.119 C  
HETATM   18  C   UNL     1      -7.368   3.997  69.179  1.00  0.00    -0.054 A  
HETATM   19  N   UNL     1      -8.418   5.539  71.293  1.00  0.00    -0.125 NA 
HETATM   20  O   UNL     1      -7.231   2.249  70.742  1.00  0.00    -0.033 OA 
HETATM   21  H   UNL     1      -8.289   3.819  72.377  1.00  0.00     0.000 HD 
HETATM   22  N   UNL     1      -8.100   4.229  71.462  1.00  0.00    -0.085 N  
HETATM   23  C   UNL     1      -7.545   3.407  70.512  1.00  0.00    -0.040 C  
BRANCH   8  24
HETATM   24  C   UNL     1      -7.826   9.414  68.461  1.00  0.00    -0.089 A  
HETATM   25  C   UNL     1      -7.859  11.832  68.188  1.00  0.00    -0.135 A  
HETATM   26  F   UNL     1      -6.079  13.115  69.053  1.00  0.00    -0.072 F  
HETATM   27  C   UNL     1      -6.624  11.914  68.819  1.00  0.00    -0.080 A  
HETATM   28  C   UNL     1      -5.956  10.771  69.233  1.00  0.00    -0.043 A  
HETATM   29  C   UNL     1      -6.555   9.523  69.056  1.00  0.00    -0.050 A  
HETATM   30  C   UNL     1      -8.455  10.585  67.998  1.00  0.00    -0.120 A  
ENDBRANCH   8  24
ENDBRANCH   6   7
TORSDOF 2
ENDMDL
MODEL      120
REMARK 921   NORMALIZED FREE ENERGY PREDICTED BY IDOCK:   -3.06 KCAL/MOL
REMARK 922        TOTAL FREE ENERGY PREDICTED BY IDOCK:   -4.09 KCAL/MOL
REMARK 923 INTER-LIGAND FREE ENERGY PREDICTED BY IDOCK:   -3.09 KCAL/MOL
REMARK 924 INTRA-LIGAND FREE ENERGY PREDICTED BY IDOCK:   -1.00 KCAL/MOL
REMARK 927      BINDING AFFINITY PREDICTED BY RF-SCORE:    0.00 PKD
ROOT
HETATM    1  C   UNL     1     -10.247   4.870  72.144  1.00  0.00    -0.196 C  
HETATM    2  N   UNL     1     -10.785   5.886  71.275  1.00  0.00    -0.255 NA 
HETATM    3  N   UNL     1     -11.996   6.408  71.544  1.00  0.00    -0.317 NA 
HETATM    4  C   UNL     1     -12.151   7.270  70.541  1.00  0.00    -0.113 A  
HETATM    5  N   UNL     1     -11.139   7.281  69.630  1.00  0.00    -0.189 NA 
HETATM    6  C   UNL     1     -10.266   6.417  70.118  1.00  0.00    -0.187 A  
ENDROOT
BRANCH   6   7
HETATM    7  C   UNL     1      -8.941   6.076  69.478  1.00  0.00    -0.131 C  
HETATM    8  C   UNL     1      -7.915   7.212  69.691  1.00  0.00    -0.124 C  
HETATM    9  N   UNL     1      -7.029   7.479  68.558  1.00  0.00    -0.076 NA 
HETATM   10  C   UNL     1      -6.224   7.157  66.321  1.00  0.00    -0.040 A  
HETATM   11  H   UNL     1      -6.260   8.134  68.695  1.00  0.00     0.000 HD 
HETATM   12  C   UNL     1      -7.170   6.898  67.320  1.00  0.00    -0.089 A  
HETATM   13  F   UNL     1      -5.373   6.784  64.151  1.00  0.00    -0.024 F  
HETATM   14  C   UNL     1      -8.168   5.968  67.032  1.00  0.00    -0.105 A  
HETATM   15  C   UNL     1      -6.305   6.529  65.077  1.00  0.00    -0.041 A  
HETATM   16  C   UNL     1      -7.330   5.644  64.786  1.00  0.00    -0.068 A  
HETATM   17  C   UNL     1      -9.136   5.575  68.059  1.00  0.00    -0.108 C  
HETATM   18  C   UNL     1      -8.272   5.371  65.776  1.00  0.00    -0.121 A  
HETATM   19  N   UNL     1     -10.117   4.752  67.816  1.00  0.00    -0.110 NA 
HETATM   20  O   UNL     1      -9.544   3.938  64.418  1.00  0.00    -0.151 OA 
HETATM   21  H   UNL     1     -11.076   3.674  66.378  1.00  0.00     0.000 HD 
HETATM   22  N   UNL     1     -10.256   4.254  66.560  1.00  0.00    -0.137 N  
HETATM   23  C   UNL     1      -9.392   4.460  65.513  1.00  0.00    -0.162 C  
BRANCH   8  24
HETATM   24  C   UNL     1      -7.058   6.861  70.913  1.00  0.00    -0.068 A  
HETATM   25  C   UNL     1      -6.346   7.433  73.168  1.00  0.00    -0.060 A  
HETATM   26  F   UNL     1      -5.446   5.753  74.556  1.00  0.00    -0.032 F  
HETATM   27  C   UNL     1      -5.925   6.124  73.361  1.00  0.00    -0.057 A  
HETATM   28  C   UNL     1      -6.016   5.186  72.343  1.00  0.00    -0.025 A  
HETATM   29  C   UNL     1      -6.582   5.552  71.121  1.00  0.00    -0.044 A  
HETATM   30  C   UNL     1      -6.901   7.806  71.943  1.00  0.00    -0.060 A  
ENDBRANCH   8  24
ENDBRANCH   6   7
TORSDOF 2
ENDMDL
MODEL      121
REMARK 921   NORMALIZED FREE ENERGY PREDICTED BY IDOCK:   -3.04 KCAL/MOL
REMARK 922        TOTAL FREE ENERGY PREDICTED BY IDOCK:   -4.07 KCAL/MOL
REMARK 923 INTER-LIGAND FREE ENERGY PREDICTED BY IDOCK:   -3.37 KCAL/MOL
REMARK 924 INTRA-LIGAND FREE ENERGY PREDICTED BY IDOCK:   -0.70 KCAL/MOL
REMARK 927      BINDING AFFINITY PREDICTED BY RF-SCORE:    0.00 PKD
ROOT
HETATM    1  C   UNL     1     -12.194  13.171  68.640  1.00  0.00    -0.043 C  
HETATM    2  N   UNL     1     -11.891  13.361  67.244  1.00  0.00    -0.372 NA 
HETATM    3  N   UNL     1     -12.738  14.073  66.477  1.00  0.00    -0.183 NA 
HETATM    4  C   UNL     1     -12.145  14.013  65.287  1.00  0.00    -0.408 A  
HETATM    5  N   UNL     1     -11.010  13.262  65.246  1.00  0.00    -0.286 NA 
HETATM    6  C   UNL     1     -10.845  12.873  66.499  1.00  0.00    -0.271 A  
ENDROOT
BRANCH   6   7
HETATM    7  C   UNL     1      -9.701  12.019  66.991  1.00  0.00    -0.204 C  
HETATM    8  C   UNL     1      -8.360  12.482  66.376  1.00  0.00     0.273 C  
HETATM    9  N   UNL     1      -7.427  11.412  66.025  1.00  0.00    -0.368 NA 
HETATM   10  C   UNL     1      -6.756   9.121  65.788  1.00  0.00    -0.072 A  
HETATM   11  H   UNL     1      -6.487  11.673  65.730  1.00  0.00     0.000 HD 
HETATM   12  C   UNL     1      -7.742  10.074  66.069  1.00  0.00    -0.110 A  
HETATM   13  F   UNL     1      -6.058   6.871  65.636  1.00  0.00    -0.032 F  
HETATM   14  C   UNL     1      -8.987   9.605  66.484  1.00  0.00    -0.171 A  
HETATM   15  C   UNL     1      -7.029   7.756  65.891  1.00  0.00    -0.061 A  
HETATM   16  C   UNL     1      -8.286   7.301  66.257  1.00  0.00    -0.123 A  
HETATM   17  C   UNL     1     -10.038  10.544  66.885  1.00  0.00    -0.216 C  
HETATM   18  C   UNL     1      -9.272   8.242  66.548  1.00  0.00    -0.236 A  
HETATM   19  N   UNL     1     -11.233  10.151  67.227  1.00  0.00    -0.201 NA 
HETATM   20  O   UNL     1     -10.934   6.633  66.954  1.00  0.00    -0.376 OA 
HETATM   21  H   UNL     1     -12.482   8.550  67.389  1.00  0.00     0.000 HD 
HETATM   22  N   UNL     1     -11.519   8.823  67.192  1.00  0.00     1.369 N  
HETATM   23  C   UNL     1     -10.627   7.816  66.917  1.00  0.00    -0.277 C  
BRANCH   8  24
HETATM   24  C   UNL     1      -7.675  13.423  67.374  1.00  0.00    -0.146 A  
HETATM   25  C   UNL     1      -7.891  14.941  69.263  1.00  0.00    -0.158 A  
HETATM   26  F   UNL     1      -6.002  15.398  70.599  1.00  0.00    -0.144 F  
HETATM   27  C   UNL     1      -6.535  14.796  69.528  1.00  0.00    -0.142 A  
HETATM   28  C   UNL     1      -5.727  14.015  68.713  1.00  0.00    -0.085 A  
HETATM   29  C   UNL     1      -6.295  13.329  67.638  1.00  0.00    -0.161 A  
HETATM   30  C   UNL     1      -8.459  14.267  68.182  1.00  0.00    -0.167 A  
ENDBRANCH   8  24
ENDBRANCH   6   7
TORSDOF 2
ENDMDL
MODEL      122
REMARK 921   NORMALIZED FREE ENERGY PREDICTED BY IDOCK:   -2.97 KCAL/MOL
REMARK 922        TOTAL FREE ENERGY PREDICTED BY IDOCK:   -4.00 KCAL/MOL
REMARK 923 INTER-LIGAND FREE ENERGY PREDICTED BY IDOCK:   -3.43 KCAL/MOL
REMARK 924 INTRA-LIGAND FREE ENERGY PREDICTED BY IDOCK:   -0.57 KCAL/MOL
REMARK 927      BINDING AFFINITY PREDICTED BY RF-SCORE:    0.00 PKD
ROOT
HETATM    1  C   UNL     1      -7.897   8.223  64.693  1.00  0.00    -0.132 C  
HETATM    2  N   UNL     1      -7.200   7.466  65.703  1.00  0.00    -0.064 NA 
HETATM    3  N   UNL     1      -6.062   6.825  65.376  1.00  0.00    -0.035 NA 
HETATM    4  C   UNL     1      -5.736   6.244  66.529  1.00  0.00    -0.017 A  
HETATM    5  N   UNL     1      -6.626   6.434  67.541  1.00  0.00    -0.052 NA 
HETATM    6  C   UNL     1      -7.539   7.231  67.013  1.00  0.00    -0.106 A  
ENDROOT
BRANCH   6   7
HETATM    7  C   UNL     1      -8.749   7.759  67.746  1.00  0.00    -0.123 C  
HETATM    8  C   UNL     1      -8.504   9.196  68.257  1.00  0.00    -0.125 C  
HETATM    9  N   UNL     1      -9.069   9.502  69.571  1.00  0.00    -0.172 NA 
HETATM   10  C   UNL     1     -10.225   8.968  71.604  1.00  0.00    -0.418 A  
HETATM   11  H   UNL     1      -9.036  10.469  69.894  1.00  0.00     0.000 HD 
HETATM   12  C   UNL     1      -9.642   8.564  70.397  1.00  0.00    -0.172 A  
HETATM   13  F   UNL     1     -11.439   8.470  73.566  1.00  0.00     0.304 F  
HETATM   14  C   UNL     1      -9.764   7.221  70.043  1.00  0.00    -0.175 A  
HETATM   15  C   UNL     1     -10.873   8.047  72.429  1.00  0.00    -0.327 A  
HETATM   16  C   UNL     1     -10.945   6.706  72.090  1.00  0.00    -0.277 A  
HETATM   17  C   UNL     1      -9.261   6.744  68.752  1.00  0.00    -0.130 C  
HETATM   18  C   UNL     1     -10.375   6.295  70.886  1.00  0.00    -0.253 A  
HETATM   19  N   UNL     1      -9.305   5.489  68.406  1.00  0.00    -0.109 NA 
HETATM   20  O   UNL     1     -10.897   4.028  71.211  1.00  0.00     0.596 OA 
HETATM   21  H   UNL     1      -9.772   3.603  69.017  1.00  0.00     0.000 HD 
HETATM   22  N   UNL     1      -9.820   4.587  69.282  1.00  0.00    -0.192 N  
HETATM   23  C   UNL     1     -10.401   4.882  70.490  1.00  0.00    -0.172 C  
BRANCH   8  24
HETATM   24  C   UNL     1      -9.088  10.176  67.231  1.00  0.00    -0.151 A  
HETATM   25  C   UNL     1     -11.014  10.900  65.932  1.00  0.00    -0.054 A  
HETATM   26  F   UNL     1     -11.073  13.100  65.085  1.00  0.00    -0.288 F  
HETATM   27  C   UNL     1     -10.411  12.137  65.740  1.00  0.00    -0.253 A  
HETATM   28  C   UNL     1      -9.143  12.399  66.238  1.00  0.00    -0.099 A  
HETATM   29  C   UNL     1      -8.482  11.422  66.983  1.00  0.00    -0.159 A  
HETATM   30  C   UNL     1     -10.349   9.916  66.665  1.00  0.00    -0.275 A  
ENDBRANCH   8  24
ENDBRANCH   6   7
TORSDOF 2
ENDMDL
MODEL      123
REMARK 921   NORMALIZED FREE ENERGY PREDICTED BY IDOCK:   -2.92 KCAL/MOL
REMARK 922        TOTAL FREE ENERGY PREDICTED BY IDOCK:   -3.94 KCAL/MOL
REMARK 923 INTER-LIGAND FREE ENERGY PREDICTED BY IDOCK:   -3.05 KCAL/MOL
REMARK 924 INTRA-LIGAND FREE ENERGY PREDICTED BY IDOCK:   -0.89 KCAL/MOL
REMARK 927      BINDING AFFINITY PREDICTED BY RF-SCORE:    0.00 PKD
ROOT
HETATM    1  C   UNL     1      -8.445  10.547  63.716  1.00  0.00    -0.127 C  
HETATM    2  N   UNL     1      -7.242  10.783  64.474  1.00  0.00     0.230 NA 
HETATM    3  N   UNL     1      -6.110  11.113  63.824  1.00  0.00     0.575 NA 
HETATM    4  C   UNL     1      -5.243  11.227  64.829  1.00  0.00     0.615 A  
HETATM    5  N   UNL     1      -5.746  10.936  66.059  1.00  0.00    -0.139 NA 
HETATM    6  C   UNL     1      -7.022  10.679  65.826  1.00  0.00    -0.094 A  
ENDROOT
BRANCH   6   7
HETATM    7  C   UNL     1      -8.035  10.314  66.885  1.00  0.00    -0.112 C  
HETATM    8  C   UNL     1      -8.056  11.367  68.016  1.00  0.00    -0.134 C  
HETATM    9  N   UNL     1      -8.238  10.835  69.367  1.00  0.00    -0.357 NA 
HETATM   10  C   UNL     1      -8.490   9.080  70.983  1.00  0.00    -0.254 A  
HETATM   11  H   UNL     1      -8.379  11.498  70.128  1.00  0.00     0.000 HD 
HETATM   12  C   UNL     1      -8.230   9.494  69.671  1.00  0.00    -0.141 A  
HETATM   13  F   UNL     1      -8.827   7.362  72.565  1.00  0.00    -0.132 F  
HETATM   14  C   UNL     1      -8.074   8.502  68.705  1.00  0.00    -0.121 A  
HETATM   15  C   UNL     1      -8.555   7.724  71.306  1.00  0.00    -0.120 A  
HETATM   16  C   UNL     1      -8.349   6.746  70.345  1.00  0.00    -0.130 A  
HETATM   17  C   UNL     1      -7.892   8.860  67.295  1.00  0.00    -0.096 C  
HETATM   18  C   UNL     1      -8.099   7.148  69.035  1.00  0.00    -0.121 A  
HETATM   19  N   UNL     1      -7.687   7.967  66.368  1.00  0.00    -0.094 NA 
HETATM   20  O   UNL     1      -7.828   4.958  68.230  1.00  0.00    -0.081 OA 
HETATM   21  H   UNL     1      -7.384   5.988  65.994  1.00  0.00     0.000 HD 
HETATM   22  N   UNL     1      -7.622   6.658  66.725  1.00  0.00    -0.089 N  
HETATM   23  C   UNL     1      -7.849   6.155  67.983  1.00  0.00    -0.106 C  
BRANCH   8  24
HETATM   24  C   UNL     1      -9.187  12.361  67.724  1.00  0.00    -0.193 A  
HETATM   25  C   UNL     1     -10.274  13.839  66.125  1.00  0.00    -0.305 A  
HETATM   26  F   UNL     1     -12.522  14.461  66.473  1.00  0.00    -0.457 F  
HETATM   27  C   UNL     1     -11.427  13.819  66.901  1.00  0.00    -0.347 A  
HETATM   28  C   UNL     1     -11.469  13.124  68.101  1.00  0.00    -0.349 A  
HETATM   29  C   UNL     1     -10.352  12.395  68.512  1.00  0.00    -0.232 A  
HETATM   30  C   UNL     1      -9.151  13.122  66.541  1.00  0.00    -0.135 A  
ENDBRANCH   8  24
ENDBRANCH   6   7
TORSDOF 2
ENDMDL
MODEL      124
REMARK 921   NORMALIZED FREE ENERGY PREDICTED BY IDOCK:   -2.69 KCAL/MOL
REMARK 922        TOTAL FREE ENERGY PREDICTED BY IDOCK:   -3.68 KCAL/MOL
REMARK 923 INTER-LIGAND FREE ENERGY PREDICTED BY IDOCK:   -4.64 KCAL/MOL
REMARK 924 INTRA-LIGAND FREE ENERGY PREDICTED BY IDOCK:    0.96 KCAL/MOL
REMARK 927      BINDING AFFINITY PREDICTED BY RF-SCORE:    0.00 PKD
ROOT
HETATM    1  C   UNL     1     -12.108  11.617  71.260  1.00  0.00     0.148 C  
HETATM    2  N   UNL     1     -12.655  10.284  71.269  1.00  0.00    -0.380 NA 
HETATM    3  N   UNL     1     -13.570   9.955  72.200  1.00  0.00    -0.371 NA 
HETATM    4  C   UNL     1     -13.812   8.679  71.906  1.00  0.00    -0.432 A  
HETATM    5  N   UNL     1     -13.067   8.172  70.886  1.00  0.00     0.111 NA 
HETATM    6  C   UNL     1     -12.353   9.205  70.473  1.00  0.00     0.166 A  
ENDROOT
BRANCH   6   7
HETATM    7  C   UNL     1     -11.365   9.169  69.331  1.00  0.00     0.177 C  
HETATM    8  C   UNL     1     -10.096   8.379  69.723  1.00  0.00    -0.197 C  
HETATM    9  N   UNL     1      -8.837   8.920  69.211  1.00  0.00    -0.138 NA 
HETATM   10  C   UNL     1      -7.490  10.524  68.040  1.00  0.00    -0.090 A  
HETATM   11  H   UNL     1      -7.989   8.368  69.342  1.00  0.00     0.000 HD 
HETATM   12  C   UNL     1      -8.727  10.128  68.563  1.00  0.00    -0.123 A  
HETATM   13  F   UNL     1      -6.172  12.051  66.815  1.00  0.00    -0.150 F  
HETATM   14  C   UNL     1      -9.824  10.948  68.306  1.00  0.00    -0.179 A  
HETATM   15  C   UNL     1      -7.365  11.712  67.320  1.00  0.00    -0.136 A  
HETATM   16  C   UNL     1      -8.453  12.544  67.113  1.00  0.00    -0.186 A  
HETATM   17  C   UNL     1     -11.166  10.552  68.740  1.00  0.00    -0.262 C  
HETATM   18  C   UNL     1      -9.691  12.155  67.621  1.00  0.00    -0.188 A  
HETATM   19  N   UNL     1     -12.210  11.314  68.570  1.00  0.00    -0.553 NA 
HETATM   20  O   UNL     1     -10.798  14.092  66.888  1.00  0.00    -0.290 OA 
HETATM   21  H   UNL     1     -12.861  13.136  67.932  1.00  0.00     0.000 HD 
HETATM   22  N   UNL     1     -12.043  12.528  67.983  1.00  0.00    -0.209 N  
HETATM   23  C   UNL     1     -10.871  13.010  67.452  1.00  0.00    -0.251 C  
BRANCH   8  24
HETATM   24  C   UNL     1     -10.253   6.939  69.220  1.00  0.00    -0.197 A  
HETATM   25  C   UNL     1     -10.829   5.442  67.391  1.00  0.00    -0.024 A  
HETATM   26  F   UNL     1     -10.035   3.222  67.422  1.00  0.00    -0.168 F  
HETATM   27  C   UNL     1     -10.146   4.412  68.026  1.00  0.00     0.072 A  
HETATM   28  C   UNL     1      -9.553   4.606  69.265  1.00  0.00    -0.251 A  
HETATM   29  C   UNL     1      -9.605   5.866  69.862  1.00  0.00    -0.194 A  
HETATM   30  C   UNL     1     -10.894   6.700  67.991  1.00  0.00    -0.345 A  
ENDBRANCH   8  24
ENDBRANCH   6   7
TORSDOF 2
ENDMDL
MODEL      125
REMARK 921   NORMALIZED FREE ENERGY PREDICTED BY IDOCK:   -2.28 KCAL/MOL
REMARK 922        TOTAL FREE ENERGY PREDICTED BY IDOCK:   -3.23 KCAL/MOL
REMARK 923 INTER-LIGAND FREE ENERGY PREDICTED BY IDOCK:   -2.31 KCAL/MOL
REMARK 924 INTRA-LIGAND FREE ENERGY PREDICTED BY IDOCK:   -0.92 KCAL/MOL
REMARK 927      BINDING AFFINITY PREDICTED BY RF-SCORE:    0.00 PKD
ROOT
HETATM    1  C   UNL     1      -8.813  10.372  70.274  1.00  0.00     0.716 C  
HETATM    2  N   UNL     1      -9.610   9.266  70.740  1.00  0.00    -0.267 NA 
HETATM    3  N   UNL     1     -10.703   9.511  71.487  1.00  0.00    -0.298 NA 
HETATM    4  C   UNL     1     -11.148   8.280  71.732  1.00  0.00    -0.278 A  
HETATM    5  N   UNL     1     -10.372   7.278  71.233  1.00  0.00    -0.194 NA 
HETATM    6  C   UNL     1      -9.413   7.915  70.584  1.00  0.00    -0.162 A  
ENDROOT
BRANCH   6   7
HETATM    7  C   UNL     1      -8.291   7.243  69.829  1.00  0.00    -0.135 C  
HETATM    8  C   UNL     1      -8.744   6.843  68.406  1.00  0.00    -0.124 C  
HETATM    9  N   UNL     1      -8.227   5.565  67.918  1.00  0.00    -0.100 NA 
HETATM   10  C   UNL     1      -6.999   3.513  68.114  1.00  0.00    -0.050 A  
HETATM   11  H   UNL     1      -8.400   5.318  66.944  1.00  0.00     0.000 HD 
HETATM   12  C   UNL     1      -7.520   4.676  68.694  1.00  0.00    -0.065 A  
HETATM   13  F   UNL     1      -5.720   1.536  68.272  1.00  0.00    -0.016 F  
HETATM   14  C   UNL     1      -7.203   4.925  70.028  1.00  0.00    -0.054 A  
HETATM   15  C   UNL     1      -6.220   2.628  68.861  1.00  0.00    -0.029 A  
HETATM   16  C   UNL     1      -5.953   2.862  70.201  1.00  0.00    -0.023 A  
HETATM   17  C   UNL     1      -7.633   6.168  70.674  1.00  0.00    -0.093 C  
HETATM   18  C   UNL     1      -6.459   4.021  70.785  1.00  0.00    -0.030 A  
HETATM   19  N   UNL     1      -7.406   6.416  71.933  1.00  0.00    -0.090 NA 
HETATM   20  O   UNL     1      -5.610   3.528  72.918  1.00  0.00     0.000 OA 
HETATM   21  H   UNL     1      -6.665   5.665  73.676  1.00  0.00     0.000 HD 
HETATM   22  N   UNL     1      -6.762   5.480  72.677  1.00  0.00    -0.069 N  
HETATM   23  C   UNL     1      -6.227   4.306  72.205  1.00  0.00    -0.020 C  
BRANCH   8  24
HETATM   24  C   UNL     1      -8.313   7.950  67.437  1.00  0.00    -0.123 A  
HETATM   25  C   UNL     1      -6.512   9.304  66.518  1.00  0.00    -0.067 A  
HETATM   26  F   UNL     1      -6.803  10.343  64.421  1.00  0.00    -0.135 F  
HETATM   27  C   UNL     1      -7.308   9.607  65.420  1.00  0.00    -0.108 A  
HETATM   28  C   UNL     1      -8.610   9.136  65.330  1.00  0.00    -0.192 A  
HETATM   29  C   UNL     1      -9.113   8.309  66.335  1.00  0.00    -0.226 A  
HETATM   30  C   UNL     1      -7.016   8.488  67.531  1.00  0.00    -0.079 A  
ENDBRANCH   8  24
ENDBRANCH   6   7
TORSDOF 2
ENDMDL
MODEL      126
REMARK 921   NORMALIZED FREE ENERGY PREDICTED BY IDOCK:   -2.12 KCAL/MOL
REMARK 922        TOTAL FREE ENERGY PREDICTED BY IDOCK:   -3.04 KCAL/MOL
REMARK 923 INTER-LIGAND FREE ENERGY PREDICTED BY IDOCK:   -2.56 KCAL/MOL
REMARK 924 INTRA-LIGAND FREE ENERGY PREDICTED BY IDOCK:   -0.48 KCAL/MOL
REMARK 927      BINDING AFFINITY PREDICTED BY RF-SCORE:    0.00 PKD
ROOT
HETATM    1  C   UNL     1      -6.402   7.055  65.252  1.00  0.00    -0.037 C  
HETATM    2  N   UNL     1      -7.425   8.070  65.225  1.00  0.00    -0.076 NA 
HETATM    3  N   UNL     1      -7.899   8.494  64.038  1.00  0.00    -0.141 NA 
HETATM    4  C   UNL     1      -8.785   9.415  64.413  1.00  0.00    -0.199 A  
HETATM    5  N   UNL     1      -8.855   9.634  65.754  1.00  0.00    -0.149 NA 
HETATM    6  C   UNL     1      -8.006   8.758  66.262  1.00  0.00    -0.106 A  
ENDROOT
BRANCH   6   7
HETATM    7  C   UNL     1      -7.727   8.584  67.736  1.00  0.00    -0.103 C  
HETATM    8  C   UNL     1      -6.246   8.883  68.058  1.00  0.00    -0.051 C  
HETATM    9  N   UNL     1      -5.634   8.018  69.067  1.00  0.00    -0.033 NA 
HETATM   10  C   UNL     1      -5.611   6.185  70.615  1.00  0.00    -0.018 A  
HETATM   11  H   UNL     1      -4.699   8.254  69.398  1.00  0.00     0.000 HD 
HETATM   12  C   UNL     1      -6.246   6.906  69.596  1.00  0.00    -0.034 A  
HETATM   13  F   UNL     1      -5.611   4.438  72.202  1.00  0.00    -0.006 F  
HETATM   14  C   UNL     1      -7.532   6.509  69.236  1.00  0.00    -0.095 A  
HETATM   15  C   UNL     1      -6.237   5.092  71.217  1.00  0.00    -0.029 A  
HETATM   16  C   UNL     1      -7.497   4.677  70.816  1.00  0.00    -0.053 A  
HETATM   17  C   UNL     1      -8.295   7.272  68.245  1.00  0.00    -0.125 C  
HETATM   18  C   UNL     1      -8.141   5.394  69.809  1.00  0.00    -0.096 A  
HETATM   19  N   UNL     1      -9.478   6.905  67.840  1.00  0.00    -0.121 NA 
HETATM   20  O   UNL     1     -10.026   3.992  69.777  1.00  0.00    -0.180 OA 
HETATM   21  H   UNL     1     -10.907   5.458  67.951  1.00  0.00     0.000 HD 
HETATM   22  N   UNL     1     -10.015   5.763  68.342  1.00  0.00    -0.143 N  
HETATM   23  C   UNL     1      -9.466   4.982  69.330  1.00  0.00    -0.137 C  
BRANCH   8  24
HETATM   24  C   UNL     1      -6.142  10.338  68.532  1.00  0.00    -0.043 A  
HETATM   25  C   UNL     1      -7.104  12.573  68.559  1.00  0.00    -0.107 A  
HETATM   26  F   UNL     1      -6.485  14.075  70.269  1.00  0.00    -0.150 F  
HETATM   27  C   UNL     1      -6.340  12.881  69.678  1.00  0.00    -0.089 A  
HETATM   28  C   UNL     1      -5.447  11.962  70.209  1.00  0.00    -0.131 A  
HETATM   29  C   UNL     1      -5.348  10.692  69.638  1.00  0.00    -0.038 A  
HETATM   30  C   UNL     1      -6.997  11.309  67.978  1.00  0.00    -0.068 A  
ENDBRANCH   8  24
ENDBRANCH   6   7
TORSDOF 2
ENDMDL
MODEL      127
REMARK 921   NORMALIZED FREE ENERGY PREDICTED BY IDOCK:   -1.95 KCAL/MOL
REMARK 922        TOTAL FREE ENERGY PREDICTED BY IDOCK:   -2.86 KCAL/MOL
REMARK 923 INTER-LIGAND FREE ENERGY PREDICTED BY IDOCK:   -2.81 KCAL/MOL
REMARK 924 INTRA-LIGAND FREE ENERGY PREDICTED BY IDOCK:   -0.04 KCAL/MOL
REMARK 927      BINDING AFFINITY PREDICTED BY RF-SCORE:    0.00 PKD
ROOT
HETATM    1  C   UNL     1      -8.275   7.670  65.072  1.00  0.00    -0.113 C  
HETATM    2  N   UNL     1      -7.792   6.473  65.713  1.00  0.00    -0.099 NA 
HETATM    3  N   UNL     1      -7.456   5.411  64.957  1.00  0.00    -0.071 NA 
HETATM    4  C   UNL     1      -7.087   4.525  65.879  1.00  0.00    -0.071 A  
HETATM    5  N   UNL     1      -7.224   4.944  67.167  1.00  0.00    -0.076 NA 
HETATM    6  C   UNL     1      -7.649   6.190  67.050  1.00  0.00    -0.095 A  
ENDROOT
BRANCH   6   7
HETATM    7  C   UNL     1      -7.940   7.113  68.210  1.00  0.00    -0.123 C  
HETATM    8  C   UNL     1      -6.811   8.154  68.385  1.00  0.00    -0.068 C  
HETATM    9  N   UNL     1      -6.469   8.484  69.768  1.00  0.00    -0.035 NA 
HETATM   10  C   UNL     1      -6.647   8.261  72.150  1.00  0.00    -0.075 A  
HETATM   11  H   UNL     1      -5.817   9.251  69.931  1.00  0.00     0.000 HD 
HETATM   12  C   UNL     1      -6.974   7.821  70.862  1.00  0.00    -0.049 A  
HETATM   13  F   UNL     1      -6.881   8.109  74.494  1.00  0.00    -0.124 F  
HETATM   14  C   UNL     1      -7.892   6.779  70.755  1.00  0.00    -0.101 A  
HETATM   15  C   UNL     1      -7.198   7.651  73.278  1.00  0.00    -0.089 A  
HETATM   16  C   UNL     1      -8.073   6.583  73.159  1.00  0.00    -0.106 A  
HETATM   17  C   UNL     1      -8.355   6.328  69.440  1.00  0.00    -0.121 C  
HETATM   18  C   UNL     1      -8.412   6.143  71.881  1.00  0.00    -0.129 A  
HETATM   19  N   UNL     1      -9.169   5.321  69.292  1.00  0.00    -0.110 NA 
HETATM   20  O   UNL     1      -9.770   4.389  72.655  1.00  0.00    -0.140 OA 
HETATM   21  H   UNL     1     -10.165   3.825  70.250  1.00  0.00     0.000 HD 
HETATM   22  N   UNL     1      -9.591   4.655  70.398  1.00  0.00    -0.181 N  
HETATM   23  C   UNL     1      -9.314   5.000  71.699  1.00  0.00    -0.148 C  
BRANCH   8  24
HETATM   24  C   UNL     1      -7.229   9.441  67.662  1.00  0.00    -0.083 A  
HETATM   25  C   UNL     1      -9.015  10.969  67.034  1.00  0.00    -0.151 A  
HETATM   26  F   UNL     1      -8.482  13.190  66.448  1.00  0.00    -0.039 F  
HETATM   27  C   UNL     1      -8.074  11.962  66.796  1.00  0.00    -0.108 A  
HETATM   28  C   UNL     1      -6.717  11.710  66.939  1.00  0.00    -0.124 A  
HETATM   29  C   UNL     1      -6.294  10.452  67.371  1.00  0.00    -0.058 A  
HETATM   30  C   UNL     1      -8.595   9.706  67.454  1.00  0.00    -0.125 A  
ENDBRANCH   8  24
ENDBRANCH   6   7
TORSDOF 2
ENDMDL
MODEL      128
REMARK 921   NORMALIZED FREE ENERGY PREDICTED BY IDOCK:   -1.40 KCAL/MOL
REMARK 922        TOTAL FREE ENERGY PREDICTED BY IDOCK:   -2.24 KCAL/MOL
REMARK 923 INTER-LIGAND FREE ENERGY PREDICTED BY IDOCK:   -1.85 KCAL/MOL
REMARK 924 INTRA-LIGAND FREE ENERGY PREDICTED BY IDOCK:   -0.39 KCAL/MOL
REMARK 927      BINDING AFFINITY PREDICTED BY RF-SCORE:    0.00 PKD
ROOT
HETATM    1  C   UNL     1      -8.061  17.672  68.363  1.00  0.00    -0.285 C  
HETATM    2  N   UNL     1      -9.314  17.835  67.669  1.00  0.00    -0.249 NA 
HETATM    3  N   UNL     1      -9.562  18.989  67.022  1.00  0.00    -0.309 NA 
HETATM    4  C   UNL     1     -10.783  18.773  66.538  1.00  0.00    -0.268 A  
HETATM    5  N   UNL     1     -11.338  17.580  66.888  1.00  0.00     0.584 NA 
HETATM    6  C   UNL     1     -10.388  16.982  67.585  1.00  0.00    -0.332 A  
ENDROOT
BRANCH   6   7
HETATM    7  C   UNL     1     -10.503  15.604  68.192  1.00  0.00    -0.259 C  
HETATM    8  C   UNL     1      -9.814  15.550  69.575  1.00  0.00    -0.284 C  
HETATM    9  N   UNL     1      -9.099  14.310  69.873  1.00  0.00     0.347 NA 
HETATM   10  C   UNL     1      -8.261  12.121  69.359  1.00  0.00     0.859 A  
HETATM   11  H   UNL     1      -8.733  14.181  70.816  1.00  0.00     0.000 HD 
HETATM   12  C   UNL     1      -8.890  13.305  68.957  1.00  0.00     0.455 A  
HETATM   13  F   UNL     1      -7.510   9.933  68.890  1.00  0.00    -0.072 F  
HETATM   14  C   UNL     1      -9.371  13.364  67.650  1.00  0.00    -0.217 A  
HETATM   15  C   UNL     1      -8.097  11.059  68.468  1.00  0.00    -0.140 A  
HETATM   16  C   UNL     1      -8.536  11.149  67.157  1.00  0.00    -0.137 A  
HETATM   17  C   UNL     1     -10.123  14.534  67.187  1.00  0.00    -0.252 C  
HETATM   18  C   UNL     1      -9.171  12.320  66.749  1.00  0.00    -0.210 A  
HETATM   19  N   UNL     1     -10.541  14.654  65.958  1.00  0.00    -0.298 NA 
HETATM   20  O   UNL     1      -9.452  11.603  64.530  1.00  0.00    -0.161 OA 
HETATM   21  H   UNL     1     -10.527  13.820  64.100  1.00  0.00     0.000 HD 
HETATM   22  N   UNL     1     -10.255  13.666  65.071  1.00  0.00    -0.352 N  
HETATM   23  C   UNL     1      -9.633  12.477  65.365  1.00  0.00     0.000 C  
BRANCH   8  24
HETATM   24  C   UNL     1     -10.884  15.771  70.652  1.00  0.00    -0.281 A  
HETATM   25  C   UNL     1     -12.578  14.806  72.108  1.00  0.00    -0.410 A  
HETATM   26  F   UNL     1     -13.255  15.989  74.033  1.00  0.00    -0.560 F  
HETATM   27  C   UNL     1     -12.522  15.937  72.913  1.00  0.00    -0.479 A  
HETATM   28  C   UNL     1     -11.698  17.006  72.588  1.00  0.00     0.419 A  
HETATM   29  C   UNL     1     -10.880  16.924  71.460  1.00  0.00     1.400 A  
HETATM   30  C   UNL     1     -11.771  14.727  70.973  1.00  0.00    -0.358 A  
ENDBRANCH   8  24
ENDBRANCH   6   7
TORSDOF 2
ENDMDL
MODEL      129
REMARK 921   NORMALIZED FREE ENERGY PREDICTED BY IDOCK:   -0.80 KCAL/MOL
REMARK 922        TOTAL FREE ENERGY PREDICTED BY IDOCK:   -1.57 KCAL/MOL
REMARK 923 INTER-LIGAND FREE ENERGY PREDICTED BY IDOCK:   -2.42 KCAL/MOL
REMARK 924 INTRA-LIGAND FREE ENERGY PREDICTED BY IDOCK:    0.85 KCAL/MOL
REMARK 927      BINDING AFFINITY PREDICTED BY RF-SCORE:    0.00 PKD
ROOT
HETATM    1  C   UNL     1      -9.596   9.945  70.938  1.00  0.00     0.396 C  
HETATM    2  N   UNL     1      -8.772   8.806  70.623  1.00  0.00    -0.162 NA 
HETATM    3  N   UNL     1      -8.727   7.768  71.481  1.00  0.00    -0.118 NA 
HETATM    4  C   UNL     1      -7.873   6.948  70.872  1.00  0.00    -0.097 A  
HETATM    5  N   UNL     1      -7.337   7.429  69.716  1.00  0.00    -0.081 NA 
HETATM    6  C   UNL     1      -7.933   8.598  69.555  1.00  0.00    -0.097 A  
ENDROOT
BRANCH   6   7
HETATM    7  C   UNL     1      -7.694   9.534  68.394  1.00  0.00    -0.085 C  
HETATM    8  C   UNL     1      -8.453  10.865  68.590  1.00  0.00    -0.152 C  
HETATM    9  N   UNL     1      -9.034  11.442  67.379  1.00  0.00    -0.152 NA 
HETATM   10  C   UNL     1      -9.575  11.468  65.041  1.00  0.00    -0.222 A  
HETATM   11  H   UNL     1      -9.439  12.377  67.438  1.00  0.00     0.000 HD 
HETATM   12  C   UNL     1      -9.067  10.801  66.163  1.00  0.00    -0.174 A  
HETATM   13  F   UNL     1     -10.033  11.539  62.727  1.00  0.00    -0.324 F  
HETATM   14  C   UNL     1      -8.519   9.536  65.962  1.00  0.00    -0.132 A  
HETATM   15  C   UNL     1      -9.559  10.866  63.782  1.00  0.00    -0.292 A  
HETATM   16  C   UNL     1      -9.055   9.587  63.604  1.00  0.00    -0.145 A  
HETATM   17  C   UNL     1      -7.883   8.817  67.070  1.00  0.00    -0.095 C  
HETATM   18  C   UNL     1      -8.539   8.918  64.712  1.00  0.00    -0.184 A  
HETATM   19  N   UNL     1      -7.408   7.610  66.940  1.00  0.00    -0.088 NA 
HETATM   20  O   UNL     1      -8.042   6.958  63.517  1.00  0.00    -0.094 OA 
HETATM   21  H   UNL     1      -7.212   6.020  65.682  1.00  0.00     0.000 HD 
HETATM   22  N   UNL     1      -7.522   6.991  65.736  1.00  0.00    -0.078 N  
HETATM   23  C   UNL     1      -8.016   7.553  64.585  1.00  0.00    -0.133 C  
BRANCH   8  24
HETATM   24  C   UNL     1      -7.484  11.883  69.204  1.00  0.00     0.066 A  
HETATM   25  C   UNL     1      -7.094  14.159  69.970  1.00  0.00     0.239 A  
HETATM   26  F   UNL     1      -5.346  14.580  71.497  1.00  0.00    -0.127 F  
HETATM   27  C   UNL     1      -6.010  13.716  70.718  1.00  0.00    -0.130 A  
HETATM   28  C   UNL     1      -5.620  12.384  70.690  1.00  0.00    -0.168 A  
HETATM   29  C   UNL     1      -6.355  11.469  69.935  1.00  0.00    -0.136 A  
HETATM   30  C   UNL     1      -7.823  13.249  69.205  1.00  0.00     0.345 A  
ENDBRANCH   8  24
ENDBRANCH   6   7
TORSDOF 2
ENDMDL
MODEL      130
REMARK 921   NORMALIZED FREE ENERGY PREDICTED BY IDOCK:   -0.80 KCAL/MOL
REMARK 922        TOTAL FREE ENERGY PREDICTED BY IDOCK:   -1.57 KCAL/MOL
REMARK 923 INTER-LIGAND FREE ENERGY PREDICTED BY IDOCK:   -1.13 KCAL/MOL
REMARK 924 INTRA-LIGAND FREE ENERGY PREDICTED BY IDOCK:   -0.43 KCAL/MOL
REMARK 927      BINDING AFFINITY PREDICTED BY RF-SCORE:    0.00 PKD
ROOT
HETATM    1  C   UNL     1      -5.920   9.540  64.736  1.00  0.00    -0.074 C  
HETATM    2  N   UNL     1      -7.325   9.857  64.681  1.00  0.00    -0.135 NA 
HETATM    3  N   UNL     1      -7.717  11.012  64.109  1.00  0.00     0.486 NA 
HETATM    4  C   UNL     1      -9.038  10.958  64.264  1.00  0.00    -0.152 A  
HETATM    5  N   UNL     1      -9.494   9.870  64.944  1.00  0.00    -0.278 NA 
HETATM    6  C   UNL     1      -8.401   9.166  65.183  1.00  0.00    -0.154 A  
ENDROOT
BRANCH   6   7
HETATM    7  C   UNL     1      -8.371   7.842  65.907  1.00  0.00    -0.135 C  
HETATM    8  C   UNL     1      -7.362   7.873  67.077  1.00  0.00    -0.091 C  
HETATM    9  N   UNL     1      -6.604   6.640  67.286  1.00  0.00    -0.052 NA 
HETATM   10  C   UNL     1      -5.936   4.397  66.757  1.00  0.00    -0.027 A  
HETATM   11  H   UNL     1      -6.016   6.573  68.117  1.00  0.00     0.000 HD 
HETATM   12  C   UNL     1      -6.636   5.564  66.430  1.00  0.00    -0.056 A  
HETATM   13  F   UNL     1      -5.340   2.161  66.293  1.00  0.00    -0.010 F  
HETATM   14  C   UNL     1      -7.426   5.538  65.282  1.00  0.00    -0.074 A  
HETATM   15  C   UNL     1      -6.005   3.267  65.940  1.00  0.00    -0.023 A  
HETATM   16  C   UNL     1      -6.755   3.270  64.775  1.00  0.00    -0.040 A  
HETATM   17  C   UNL     1      -8.260   6.689  64.927  1.00  0.00    -0.085 C  
HETATM   18  C   UNL     1      -7.464   4.423  64.445  1.00  0.00    -0.071 A  
HETATM   19  N   UNL     1      -8.970   6.727  63.835  1.00  0.00     0.935 NA 
HETATM   20  O   UNL     1      -8.291   3.549  62.429  1.00  0.00    -0.071 OA 
HETATM   21  H   UNL     1      -9.424   5.756  62.103  1.00  0.00     0.000 HD 
HETATM   22  N   UNL     1      -8.920   5.668  62.986  1.00  0.00     0.245 N  
HETATM   23  C   UNL     1      -8.253   4.488  63.210  1.00  0.00    -0.098 C  
BRANCH   8  24
HETATM   24  C   UNL     1      -8.129   8.203  68.364  1.00  0.00    -0.128 A  
HETATM   25  C   UNL     1     -10.113   9.160  69.397  1.00  0.00    -0.198 A  
HETATM   26  F   UNL     1     -10.695   8.520  71.591  1.00  0.00    -0.265 F  
HETATM   27  C   UNL     1      -9.839   8.455  70.562  1.00  0.00    -0.184 A  
HETATM   28  C   UNL     1      -8.705   7.662  70.668  1.00  0.00    -0.140 A  
HETATM   29  C   UNL     1      -7.851   7.534  69.571  1.00  0.00    -0.120 A  
HETATM   30  C   UNL     1      -9.254   9.045  68.303  1.00  0.00    -0.139 A  
ENDBRANCH   8  24
ENDBRANCH   6   7
TORSDOF 2
ENDMDL
MODEL      131
REMARK 921   NORMALIZED FREE ENERGY PREDICTED BY IDOCK:    0.84 KCAL/MOL
REMARK 922        TOTAL FREE ENERGY PREDICTED BY IDOCK:    0.26 KCAL/MOL
REMARK 923 INTER-LIGAND FREE ENERGY PREDICTED BY IDOCK:    1.29 KCAL/MOL
REMARK 924 INTRA-LIGAND FREE ENERGY PREDICTED BY IDOCK:   -1.03 KCAL/MOL
REMARK 927      BINDING AFFINITY PREDICTED BY RF-SCORE:    0.00 PKD
ROOT
HETATM    1  C   UNL     1      -5.126  17.599  64.616  1.00  0.00     0.760 C  
HETATM    2  N   UNL     1      -5.912  18.792  64.425  1.00  0.00    -0.388 NA 
HETATM    3  N   UNL     1      -5.637  19.602  63.385  1.00  0.00    -0.308 NA 
HETATM    4  C   UNL     1      -6.532  20.573  63.552  1.00  0.00     0.063 A  
HETATM    5  N   UNL     1      -7.314  20.451  64.659  1.00  0.00     0.057 NA 
HETATM    6  C   UNL     1      -6.929  19.305  65.194  1.00  0.00     0.058 A  
ENDROOT
BRANCH   6   7
HETATM    7  C   UNL     1      -7.512  18.701  66.448  1.00  0.00    -0.275 C  
HETATM    8  C   UNL     1      -9.049  18.579  66.341  1.00  0.00    -0.269 C  
HETATM    9  N   UNL     1      -9.789  18.856  67.572  1.00  0.00    -0.316 NA 
HETATM   10  C   UNL     1      -9.992  19.511  69.871  1.00  0.00     0.303 A  
HETATM   11  H   UNL     1     -10.792  18.672  67.581  1.00  0.00     0.000 HD 
HETATM   12  C   UNL     1      -9.213  19.351  68.718  1.00  0.00    -0.369 A  
HETATM   13  F   UNL     1     -10.188  20.069  72.156  1.00  0.00     1.475 F  
HETATM   14  C   UNL     1      -7.849  19.612  68.825  1.00  0.00    -0.332 A  
HETATM   15  C   UNL     1      -9.419  19.947  71.067  1.00  0.00     2.037 A  
HETATM   16  C   UNL     1      -8.070  20.250  71.148  1.00  0.00     1.879 A  
HETATM   17  C   UNL     1      -6.956  19.377  67.687  1.00  0.00    -0.222 C  
HETATM   18  C   UNL     1      -7.284  20.086  70.009  1.00  0.00     0.190 A  
HETATM   19  N   UNL     1      -5.684  19.659  67.726  1.00  0.00    -0.193 NA 
HETATM   20  O   UNL     1      -5.321  20.866  71.036  1.00  0.00    -0.517 OA 
HETATM   21  H   UNL     1      -4.191  20.491  68.836  1.00  0.00     0.000 HD 
HETATM   22  N   UNL     1      -5.172  20.208  68.859  1.00  0.00    -0.192 N  
HETATM   23  C   UNL     1      -5.855  20.416  70.032  1.00  0.00    -0.352 C  
BRANCH   8  24
HETATM   24  C   UNL     1      -9.386  17.157  65.875  1.00  0.00    -0.061 A  
HETATM   25  C   UNL     1      -9.076  14.761  66.167  1.00  0.00    -0.161 A  
HETATM   26  F   UNL     1     -10.693  13.275  65.307  1.00  0.00    -0.284 F  
HETATM   27  C   UNL     1     -10.244  14.529  65.451  1.00  0.00    -0.389 A  
HETATM   28  C   UNL     1     -10.968  15.579  64.905  1.00  0.00    -0.452 A  
HETATM   29  C   UNL     1     -10.542  16.891  65.117  1.00  0.00    -0.087 A  
HETATM   30  C   UNL     1      -8.640  16.071  66.369  1.00  0.00    -0.369 A  
ENDBRANCH   8  24
ENDBRANCH   6   7
TORSDOF 2
ENDMDL
MODEL      132
REMARK 921   NORMALIZED FREE ENERGY PREDICTED BY IDOCK:    1.36 KCAL/MOL
REMARK 922        TOTAL FREE ENERGY PREDICTED BY IDOCK:    0.84 KCAL/MOL
REMARK 923 INTER-LIGAND FREE ENERGY PREDICTED BY IDOCK:   -2.43 KCAL/MOL
REMARK 924 INTRA-LIGAND FREE ENERGY PREDICTED BY IDOCK:    3.27 KCAL/MOL
REMARK 927      BINDING AFFINITY PREDICTED BY RF-SCORE:    0.00 PKD
ROOT
HETATM    1  C   UNL     1     -11.497   9.371  67.165  1.00  0.00     1.497 C  
HETATM    2  N   UNL     1     -10.824  10.602  66.838  1.00  0.00    -0.238 NA 
HETATM    3  N   UNL     1     -11.157  11.253  65.707  1.00  0.00    -0.152 NA 
HETATM    4  C   UNL     1     -10.333  12.299  65.742  1.00  0.00    -0.258 A  
HETATM    5  N   UNL     1      -9.466  12.314  66.792  1.00  0.00    -0.216 NA 
HETATM    6  C   UNL     1      -9.803  11.246  67.495  1.00  0.00    -0.178 A  
ENDROOT
BRANCH   6   7
HETATM    7  C   UNL     1      -9.143  10.821  68.785  1.00  0.00    -0.180 C  
HETATM    8  C   UNL     1      -7.623  10.622  68.589  1.00  0.00    -0.103 C  
HETATM    9  N   UNL     1      -7.036   9.500  69.321  1.00  0.00    -0.056 NA 
HETATM   10  C   UNL     1      -7.114   7.572  70.746  1.00  0.00    -0.059 A  
HETATM   11  H   UNL     1      -6.021   9.404  69.318  1.00  0.00     0.000 HD 
HETATM   12  C   UNL     1      -7.771   8.566  70.012  1.00  0.00    -0.086 A  
HETATM   13  F   UNL     1      -7.173   5.727  72.218  1.00  0.00    -0.080 F  
HETATM   14  C   UNL     1      -9.161   8.618  70.105  1.00  0.00    -0.165 A  
HETATM   15  C   UNL     1      -7.833   6.652  71.511  1.00  0.00    -0.099 A  
HETATM   16  C   UNL     1      -9.218   6.684  71.556  1.00  0.00    -0.146 A  
HETATM   17  C   UNL     1      -9.910   9.688  69.440  1.00  0.00    -0.193 C  
HETATM   18  C   UNL     1      -9.882   7.676  70.836  1.00  0.00    -0.179 A  
HETATM   19  N   UNL     1     -11.213   9.742  69.455  1.00  0.00    -0.167 NA 
HETATM   20  O   UNL     1     -12.024   6.916  71.428  1.00  0.00    -0.309 OA 
HETATM   21  H   UNL     1     -12.918   8.786  70.026  1.00  0.00     0.000 HD 
HETATM   22  N   UNL     1     -11.900   8.761  70.096  1.00  0.00     0.144 N  
HETATM   23  C   UNL     1     -11.348   7.740  70.829  1.00  0.00    -0.279 C  
BRANCH   8  24
HETATM   24  C   UNL     1      -6.912  11.913  69.017  1.00  0.00    -0.098 A  
HETATM   25  C   UNL     1      -6.910  14.345  69.080  1.00  0.00    -0.111 A  
HETATM   26  F   UNL     1      -5.596  15.457  70.691  1.00  0.00    -0.133 F  
HETATM   27  C   UNL     1      -5.987  14.311  70.117  1.00  0.00    -0.151 A  
HETATM   28  C   UNL     1      -5.483  13.107  70.587  1.00  0.00    -0.169 A  
HETATM   29  C   UNL     1      -5.944  11.909  70.039  1.00  0.00    -0.159 A  
HETATM   30  C   UNL     1      -7.363  13.149  68.521  1.00  0.00    -0.111 A  
ENDBRANCH   8  24
ENDBRANCH   6   7
TORSDOF 2
ENDMDL
MODEL      133
REMARK 921   NORMALIZED FREE ENERGY PREDICTED BY IDOCK:    2.07 KCAL/MOL
REMARK 922        TOTAL FREE ENERGY PREDICTED BY IDOCK:    1.64 KCAL/MOL
REMARK 923 INTER-LIGAND FREE ENERGY PREDICTED BY IDOCK:   -0.51 KCAL/MOL
REMARK 924 INTRA-LIGAND FREE ENERGY PREDICTED BY IDOCK:    2.15 KCAL/MOL
REMARK 927      BINDING AFFINITY PREDICTED BY RF-SCORE:    0.00 PKD
ROOT
HETATM    1  C   UNL     1      -9.883  10.020  63.251  1.00  0.00     0.300 C  
HETATM    2  N   UNL     1      -9.404  11.027  64.163  1.00  0.00    -0.222 NA 
HETATM    3  N   UNL     1      -9.300  12.302  63.742  1.00  0.00     0.127 NA 
HETATM    4  C   UNL     1      -8.821  12.909  64.825  1.00  0.00     2.042 A  
HETATM    5  N   UNL     1      -8.566  12.088  65.880  1.00  0.00     0.181 NA 
HETATM    6  C   UNL     1      -8.962  10.900  65.458  1.00  0.00    -0.197 A  
ENDROOT
BRANCH   6   7
HETATM    7  C   UNL     1      -8.905   9.632  66.277  1.00  0.00    -0.172 C  
HETATM    8  C   UNL     1      -8.298   9.901  67.672  1.00  0.00    -0.114 C  
HETATM    9  N   UNL     1      -7.424   8.850  68.192  1.00  0.00    -0.091 NA 
HETATM   10  C   UNL     1      -6.240   6.766  68.068  1.00  0.00    -0.033 A  
HETATM   11  H   UNL     1      -7.099   8.928  69.155  1.00  0.00     0.000 HD 
HETATM   12  C   UNL     1      -7.015   7.761  67.458  1.00  0.00    -0.078 A  
HETATM   13  F   UNL     1      -5.145   4.677  67.987  1.00  0.00    -0.002 F  
HETATM   14  C   UNL     1      -7.421   7.540  66.144  1.00  0.00    -0.083 A  
HETATM   15  C   UNL     1      -5.868   5.618  67.368  1.00  0.00    -0.017 A  
HETATM   16  C   UNL     1      -6.237   5.433  66.045  1.00  0.00    -0.034 A  
HETATM   17  C   UNL     1      -8.311   8.491  65.472  1.00  0.00    -0.156 C  
HETATM   18  C   UNL     1      -7.016   6.413  65.431  1.00  0.00    -0.052 A  
HETATM   19  N   UNL     1      -8.671   8.352  64.227  1.00  0.00     0.076 NA 
HETATM   20  O   UNL     1      -7.056   5.325  63.350  1.00  0.00    -0.045 OA 
HETATM   21  H   UNL     1      -8.423   7.253  62.530  1.00  0.00     0.000 HD 
HETATM   22  N   UNL     1      -8.189   7.295  63.522  1.00  0.00     0.009 N  
HETATM   23  C   UNL     1      -7.414   6.279  64.025  1.00  0.00    -0.083 C  
BRANCH   8  24
HETATM   24  C   UNL     1      -9.449  10.116  68.663  1.00  0.00    -0.164 A  
HETATM   25  C   UNL     1     -11.334  11.482  69.372  1.00  0.00    -0.355 A  
HETATM   26  F   UNL     1     -13.019  10.517  70.711  1.00  0.00    -0.393 F  
HETATM   27  C   UNL     1     -11.839  10.402  70.086  1.00  0.00    -0.297 A  
HETATM   28  C   UNL     1     -11.153   9.197  70.141  1.00  0.00    -0.248 A  
HETATM   29  C   UNL     1      -9.961   9.053  69.430  1.00  0.00    -0.191 A  
HETATM   30  C   UNL     1     -10.135  11.344  68.671  1.00  0.00    -0.217 A  
ENDBRANCH   8  24
ENDBRANCH   6   7
TORSDOF 2
ENDMDL
MODEL      134
REMARK 921   NORMALIZED FREE ENERGY PREDICTED BY IDOCK:    4.13 KCAL/MOL
REMARK 922        TOTAL FREE ENERGY PREDICTED BY IDOCK:    3.94 KCAL/MOL
REMARK 923 INTER-LIGAND FREE ENERGY PREDICTED BY IDOCK:   -0.74 KCAL/MOL
REMARK 924 INTRA-LIGAND FREE ENERGY PREDICTED BY IDOCK:    4.68 KCAL/MOL
REMARK 927      BINDING AFFINITY PREDICTED BY RF-SCORE:    0.00 PKD
ROOT
HETATM    1  C   UNL     1      -6.047   9.427  67.998  1.00  0.00    -0.052 C  
HETATM    2  N   UNL     1      -6.268  10.505  68.928  1.00  0.00    -0.043 NA 
HETATM    3  N   UNL     1      -5.418  10.669  69.959  1.00  0.00    -0.046 NA 
HETATM    4  C   UNL     1      -5.946  11.719  70.584  1.00  0.00     0.008 A  
HETATM    5  N   UNL     1      -7.104  12.189  70.042  1.00  0.00     0.478 NA 
HETATM    6  C   UNL     1      -7.286  11.427  68.978  1.00  0.00    -0.108 A  
ENDROOT
BRANCH   6   7
HETATM    7  C   UNL     1      -8.439  11.558  68.012  1.00  0.00    -0.148 C  
HETATM    8  C   UNL     1      -7.942  11.530  66.549  1.00  0.00    -0.095 C  
HETATM    9  N   UNL     1      -8.638  12.431  65.631  1.00  0.00     0.078 NA 
HETATM   10  C   UNL     1     -10.234  14.132  65.066  1.00  0.00    -0.399 A  
HETATM   11  H   UNL     1      -8.427  12.359  64.636  1.00  0.00     0.000 HD 
HETATM   12  C   UNL     1      -9.562  13.368  66.029  1.00  0.00    -0.159 A  
HETATM   13  F   UNL     1     -11.861  15.741  64.491  1.00  0.00    -0.359 F  
HETATM   14  C   UNL     1      -9.947  13.531  67.359  1.00  0.00    -0.234 A  
HETATM   15  C   UNL     1     -11.224  15.042  65.438  1.00  0.00    -0.356 A  
HETATM   16  C   UNL     1     -11.563  15.231  66.768  1.00  0.00    -0.051 A  
HETATM   17  C   UNL     1      -9.355  12.700  68.410  1.00  0.00    -0.148 C  
HETATM   18  C   UNL     1     -10.907  14.469  67.733  1.00  0.00    -0.267 A  
HETATM   19  N   UNL     1      -9.645  12.857  69.672  1.00  0.00     1.466 NA 
HETATM   20  O   UNL     1     -12.020  15.480  69.538  1.00  0.00    -0.343 OA 
HETATM   21  H   UNL     1     -10.664  13.991  71.022  1.00  0.00     0.000 HD 
HETATM   22  N   UNL     1     -10.514  13.840  70.024  1.00  0.00     0.727 N  
HETATM   23  C   UNL     1     -11.210  14.647  69.158  1.00  0.00    -0.270 C  
BRANCH   8  24
HETATM   24  C   UNL     1      -8.075  10.095  66.025  1.00  0.00    -0.129 A  
HETATM   25  C   UNL     1      -8.994   8.584  64.353  1.00  0.00     0.320 A  
HETATM   26  F   UNL     1      -7.977   6.484  64.012  1.00  0.00    -0.104 F  
HETATM   27  C   UNL     1      -8.039   7.635  64.695  1.00  0.00    -0.112 A  
HETATM   28  C   UNL     1      -7.131   7.870  65.717  1.00  0.00    -0.060 A  
HETATM   29  C   UNL     1      -7.147   9.098  66.381  1.00  0.00    -0.084 A  
HETATM   30  C   UNL     1      -9.021   9.808  65.024  1.00  0.00    -0.247 A  
ENDBRANCH   8  24
ENDBRANCH   6   7
TORSDOF 2
ENDMDL
MODEL      135
REMARK 921   NORMALIZED FREE ENERGY PREDICTED BY IDOCK:    4.90 KCAL/MOL
REMARK 922        TOTAL FREE ENERGY PREDICTED BY IDOCK:    4.79 KCAL/MOL
REMARK 923 INTER-LIGAND FREE ENERGY PREDICTED BY IDOCK:    5.48 KCAL/MOL
REMARK 924 INTRA-LIGAND FREE ENERGY PREDICTED BY IDOCK:   -0.69 KCAL/MOL
REMARK 927      BINDING AFFINITY PREDICTED BY RF-SCORE:    0.00 PKD
ROOT
HETATM    1  C   UNL     1      -7.294  18.448  68.787  1.00  0.00    -0.287 C  
HETATM    2  N   UNL     1      -8.092  19.135  69.771  1.00  0.00     0.451 NA 
HETATM    3  N   UNL     1      -7.489  19.954  70.653  1.00  0.00     0.704 NA 
HETATM    4  C   UNL     1      -8.519  20.373  71.386  1.00  0.00     2.157 A  
HETATM    5  N   UNL     1      -9.721  19.826  71.054  1.00  0.00     1.576 NA 
HETATM    6  C   UNL     1      -9.443  19.060  70.013  1.00  0.00     1.000 A  
ENDROOT
BRANCH   6   7
HETATM    7  C   UNL     1     -10.457  18.239  69.254  1.00  0.00     0.284 C  
HETATM    8  C   UNL     1     -10.313  16.736  69.586  1.00  0.00    -0.151 C  
HETATM    9  N   UNL     1     -10.513  15.822  68.463  1.00  0.00    -0.230 NA 
HETATM   10  C   UNL     1     -10.923  15.282  66.162  1.00  0.00    -0.307 A  
HETATM   11  H   UNL     1     -10.547  14.821  68.659  1.00  0.00     0.000 HD 
HETATM   12  C   UNL     1     -10.658  16.229  67.158  1.00  0.00    -0.291 A  
HETATM   13  F   UNL     1     -11.414  14.745  63.916  1.00  0.00    -0.140 F  
HETATM   14  C   UNL     1     -10.656  17.571  66.782  1.00  0.00    -0.201 A  
HETATM   15  C   UNL     1     -11.142  15.674  64.840  1.00  0.00    -0.402 A  
HETATM   16  C   UNL     1     -11.089  17.008  64.470  1.00  0.00     0.578 A  
HETATM   17  C   UNL     1     -10.480  18.624  67.786  1.00  0.00    -0.411 C  
HETATM   18  C   UNL     1     -10.835  17.960  65.455  1.00  0.00     0.112 A  
HETATM   19  N   UNL     1     -10.416  19.887  67.471  1.00  0.00    -0.414 NA 
HETATM   20  O   UNL     1     -10.860  19.771  63.960  1.00  0.00     2.612 OA 
HETATM   21  H   UNL     1     -10.369  21.225  65.936  1.00  0.00     0.000 HD 
HETATM   22  N   UNL     1     -10.499  20.238  66.162  1.00  0.00    -0.316 N  
HETATM   23  C   UNL     1     -10.743  19.384  65.114  1.00  0.00     0.628 C  
BRANCH   8  24
HETATM   24  C   UNL     1     -11.323  16.390  70.688  1.00  0.00    -0.208 A  
HETATM   25  C   UNL     1     -13.220  15.044  71.400  1.00  0.00    -0.497 A  
HETATM   26  F   UNL     1     -13.642  14.772  73.704  1.00  0.00    -0.247 F  
HETATM   27  C   UNL     1     -12.920  15.333  72.725  1.00  0.00    -0.438 A  
HETATM   28  C   UNL     1     -11.867  16.175  73.052  1.00  0.00    -0.510 A  
HETATM   29  C   UNL     1     -11.068  16.703  72.037  1.00  0.00     0.877 A  
HETATM   30  C   UNL     1     -12.432  15.581  70.381  1.00  0.00    -0.443 A  
ENDBRANCH   8  24
ENDBRANCH   6   7
TORSDOF 2
ENDMDL
MODEL      136
REMARK 921   NORMALIZED FREE ENERGY PREDICTED BY IDOCK:    8.35 KCAL/MOL
REMARK 922        TOTAL FREE ENERGY PREDICTED BY IDOCK:    8.65 KCAL/MOL
REMARK 923 INTER-LIGAND FREE ENERGY PREDICTED BY IDOCK:    9.48 KCAL/MOL
REMARK 924 INTRA-LIGAND FREE ENERGY PREDICTED BY IDOCK:   -0.83 KCAL/MOL
REMARK 927      BINDING AFFINITY PREDICTED BY RF-SCORE:    0.00 PKD
ROOT
HETATM    1  C   UNL     1     -12.770  10.965  67.446  1.00  0.00     4.831 C  
HETATM    2  N   UNL     1     -12.366  12.190  66.802  1.00  0.00    -0.178 NA 
HETATM    3  N   UNL     1     -12.951  12.549  65.644  1.00  0.00     0.054 NA 
HETATM    4  C   UNL     1     -12.319  13.687  65.361  1.00  0.00    -0.476 A  
HETATM    5  N   UNL     1     -11.338  14.034  66.238  1.00  0.00    -0.324 NA 
HETATM    6  C   UNL     1     -11.392  13.091  67.162  1.00  0.00    -0.305 A  
ENDROOT
BRANCH   6   7
HETATM    7  C   UNL     1     -10.506  13.029  68.383  1.00  0.00    -0.261 C  
HETATM    8  C   UNL     1     -11.094  13.872  69.537  1.00  0.00    -0.128 C  
HETATM    9  N   UNL     1     -10.117  14.601  70.345  1.00  0.00    -0.049 NA 
HETATM   10  C   UNL     1      -7.908  15.344  70.915  1.00  0.00     2.198 A  
HETATM   11  H   UNL     1     -10.447  15.072  71.188  1.00  0.00     0.000 HD 
HETATM   12  C   UNL     1      -8.780  14.689  70.037  1.00  0.00     0.804 A  
HETATM   13  F   UNL     1      -5.729  16.007  71.532  1.00  0.00     0.135 F  
HETATM   14  C   UNL     1      -8.218  14.061  68.927  1.00  0.00     0.022 A  
HETATM   15  C   UNL     1      -6.537  15.390  70.662  1.00  0.00     0.377 A  
HETATM   16  C   UNL     1      -5.996  14.804  69.528  1.00  0.00    -0.107 A  
HETATM   17  C   UNL     1      -9.055  13.276  68.015  1.00  0.00    -0.202 C  
HETATM   18  C   UNL     1      -6.854  14.141  68.652  1.00  0.00    -0.101 A  
HETATM   19  N   UNL     1      -8.581  12.719  66.936  1.00  0.00    -0.176 NA 
HETATM   20  O   UNL     1      -5.156  13.596  67.124  1.00  0.00    -0.236 OA 
HETATM   21  H   UNL     1      -6.939  12.508  65.749  1.00  0.00     0.000 HD 
HETATM   22  N   UNL     1      -7.267  12.888  66.638  1.00  0.00     0.637 N  
HETATM   23  C   UNL     1      -6.338  13.524  67.425  1.00  0.00     0.062 C  
BRANCH   8  24
HETATM   24  C   UNL     1     -11.892  12.937  70.455  1.00  0.00    -0.152 A  
HETATM   25  C   UNL     1     -11.982  10.848  71.700  1.00  0.00     0.245 A  
HETATM   26  F   UNL     1     -13.510  10.632  73.483  1.00  0.00     2.356 F  
HETATM   27  C   UNL     1     -13.017  11.360  72.472  1.00  0.00     1.012 A  
HETATM   28  C   UNL     1     -13.532  12.625  72.229  1.00  0.00    -0.541 A  
HETATM   29  C   UNL     1     -12.971  13.414  71.224  1.00  0.00    -0.368 A  
HETATM   30  C   UNL     1     -11.428  11.629  70.685  1.00  0.00     0.357 A  
ENDBRANCH   8  24
ENDBRANCH   6   7
TORSDOF 2
ENDMDL
MODEL      137
REMARK 921   NORMALIZED FREE ENERGY PREDICTED BY IDOCK:    8.51 KCAL/MOL
REMARK 922        TOTAL FREE ENERGY PREDICTED BY IDOCK:    8.83 KCAL/MOL
REMARK 923 INTER-LIGAND FREE ENERGY PREDICTED BY IDOCK:    8.55 KCAL/MOL
REMARK 924 INTRA-LIGAND FREE ENERGY PREDICTED BY IDOCK:    0.28 KCAL/MOL
REMARK 927      BINDING AFFINITY PREDICTED BY RF-SCORE:    0.00 PKD
ROOT
HETATM    1  C   UNL     1      -7.129  14.637  71.865  1.00  0.00     2.611 C  
HETATM    2  N   UNL     1      -8.243  14.849  70.976  1.00  0.00     2.231 NA 
HETATM    3  N   UNL     1      -9.417  15.271  71.480  1.00  0.00     2.642 NA 
HETATM    4  C   UNL     1     -10.178  15.329  70.389  1.00  0.00     0.031 A  
HETATM    5  N   UNL     1      -9.571  14.918  69.242  1.00  0.00    -0.169 NA 
HETATM    6  C   UNL     1      -8.336  14.638  69.621  1.00  0.00     0.263 A  
ENDROOT
BRANCH   6   7
HETATM    7  C   UNL     1      -7.243  14.150  68.701  1.00  0.00    -0.116 C  
HETATM    8  C   UNL     1      -7.599  14.427  67.223  1.00  0.00    -0.108 C  
HETATM    9  N   UNL     1      -7.208  13.384  66.276  1.00  0.00     1.257 NA 
HETATM   10  C   UNL     1      -6.287  11.254  65.665  1.00  0.00     0.358 A  
HETATM   11  H   UNL     1      -7.313  13.576  65.279  1.00  0.00     0.000 HD 
HETATM   12  C   UNL     1      -6.706  12.159  66.648  1.00  0.00     0.279 A  
HETATM   13  F   UNL     1      -5.303   9.199  65.050  1.00  0.00    -0.040 F  
HETATM   14  C   UNL     1      -6.495  11.802  67.978  1.00  0.00    -0.056 A  
HETATM   15  C   UNL     1      -5.712  10.032  66.015  1.00  0.00    -0.062 A  
HETATM   16  C   UNL     1      -5.552   9.668  67.342  1.00  0.00    -0.040 A  
HETATM   17  C   UNL     1      -6.821  12.737  69.059  1.00  0.00    -0.081 C  
HETATM   18  C   UNL     1      -5.958  10.565  68.328  1.00  0.00    -0.043 A  
HETATM   19  N   UNL     1      -6.692  12.424  70.317  1.00  0.00     0.279 NA 
HETATM   20  O   UNL     1      -5.400   9.134  70.106  1.00  0.00    -0.028 OA 
HETATM   21  H   UNL     1      -6.236  10.934  71.629  1.00  0.00     0.000 HD 
HETATM   22  N   UNL     1      -6.254  11.179  70.638  1.00  0.00    -0.038 N  
HETATM   23  C   UNL     1      -5.834  10.220  69.749  1.00  0.00    -0.047 C  
BRANCH   8  24
HETATM   24  C   UNL     1      -6.930  15.744  66.807  1.00  0.00     0.165 A  
HETATM   25  C   UNL     1      -7.159  17.952  65.812  1.00  0.00    -0.215 A  
HETATM   26  F   UNL     1      -5.546  19.606  66.286  1.00  0.00    -0.166 F  
HETATM   27  C   UNL     1      -5.971  18.341  66.416  1.00  0.00    -0.167 A  
HETATM   28  C   UNL     1      -5.228  17.448  67.175  1.00  0.00    -0.160 A  
HETATM   29  C   UNL     1      -5.706  16.151  67.372  1.00  0.00    -0.149 A  
HETATM   30  C   UNL     1      -7.633  16.652  65.995  1.00  0.00     0.120 A  
ENDBRANCH   8  24
ENDBRANCH   6   7
TORSDOF 2
ENDMDL
MODEL      138
REMARK 921   NORMALIZED FREE ENERGY PREDICTED BY IDOCK:   11.12 KCAL/MOL
REMARK 922        TOTAL FREE ENERGY PREDICTED BY IDOCK:   11.74 KCAL/MOL
REMARK 923 INTER-LIGAND FREE ENERGY PREDICTED BY IDOCK:   12.28 KCAL/MOL
REMARK 924 INTRA-LIGAND FREE ENERGY PREDICTED BY IDOCK:   -0.54 KCAL/MOL
REMARK 927      BINDING AFFINITY PREDICTED BY RF-SCORE:    0.00 PKD
ROOT
HETATM    1  C   UNL     1      -7.168   8.369  63.727  1.00  0.00    -0.098 C  
HETATM    2  N   UNL     1      -8.011   9.493  64.050  1.00  0.00    -0.132 NA 
HETATM    3  N   UNL     1      -8.189  10.466  63.136  1.00  0.00    -0.161 NA 
HETATM    4  C   UNL     1      -8.987  11.309  63.788  1.00  0.00     0.074 A  
HETATM    5  N   UNL     1      -9.275  10.954  65.070  1.00  0.00    -0.204 NA 
HETATM    6  C   UNL     1      -8.671   9.788  65.218  1.00  0.00    -0.159 A  
ENDROOT
BRANCH   6   7
HETATM    7  C   UNL     1      -8.701   8.956  66.478  1.00  0.00    -0.145 C  
HETATM    8  C   UNL     1      -7.275   8.532  66.896  1.00  0.00    -0.075 C  
HETATM    9  N   UNL     1      -7.155   7.180  67.441  1.00  0.00    -0.082 NA 
HETATM   10  C   UNL     1      -7.990   5.018  68.063  1.00  0.00    -0.090 A  
HETATM   11  H   UNL     1      -6.259   6.901  67.840  1.00  0.00     0.000 HD 
HETATM   12  C   UNL     1      -8.179   6.262  67.448  1.00  0.00    -0.109 A  
HETATM   13  F   UNL     1      -8.824   2.923  68.758  1.00  0.00    -0.100 F  
HETATM   14  C   UNL     1      -9.451   6.546  66.955  1.00  0.00    -0.178 A  
HETATM   15  C   UNL     1      -9.032   4.094  68.145  1.00  0.00    -0.118 A  
HETATM   16  C   UNL     1     -10.279   4.369  67.607  1.00  0.00     0.057 A  
HETATM   17  C   UNL     1      -9.749   7.862  66.382  1.00  0.00    -0.165 C  
HETATM   18  C   UNL     1     -10.480   5.608  67.000  1.00  0.00    -0.344 A  
HETATM   19  N   UNL     1     -10.907   8.151  65.860  1.00  0.00     2.118 NA 
HETATM   20  O   UNL     1     -12.696   5.139  66.378  1.00  0.00     6.327 OA 
HETATM   21  H   UNL     1     -12.737   7.419  65.347  1.00  0.00     0.000 HD 
HETATM   22  N   UNL     1     -11.868   7.191  65.830  1.00  0.00     4.935 N  
HETATM   23  C   UNL     1     -11.774   5.941  66.392  1.00  0.00     1.588 C  
BRANCH   8  24
HETATM   24  C   UNL     1      -6.765   9.530  67.942  1.00  0.00    -0.066 A  
HETATM   25  C   UNL     1      -6.311  11.846  68.537  1.00  0.00    -0.054 A  
HETATM   26  F   UNL     1      -6.154  12.443  70.813  1.00  0.00    -0.162 F  
HETATM   27  C   UNL     1      -6.305  11.493  69.881  1.00  0.00    -0.136 A  
HETATM   28  C   UNL     1      -6.480  10.174  70.274  1.00  0.00    -0.128 A  
HETATM   29  C   UNL     1      -6.710   9.194  69.308  1.00  0.00    -0.049 A  
HETATM   30  C   UNL     1      -6.527  10.866  67.568  1.00  0.00    -0.058 A  
ENDBRANCH   8  24
ENDBRANCH   6   7
TORSDOF 2
ENDMDL
MODEL      139
REMARK 921   NORMALIZED FREE ENERGY PREDICTED BY IDOCK:   11.24 KCAL/MOL
REMARK 922        TOTAL FREE ENERGY PREDICTED BY IDOCK:   11.87 KCAL/MOL
REMARK 923 INTER-LIGAND FREE ENERGY PREDICTED BY IDOCK:   12.83 KCAL/MOL
REMARK 924 INTRA-LIGAND FREE ENERGY PREDICTED BY IDOCK:   -0.96 KCAL/MOL
REMARK 927      BINDING AFFINITY PREDICTED BY RF-SCORE:    0.00 PKD
ROOT
HETATM    1  C   UNL     1     -10.679   7.317  64.383  1.00  0.00     9.942 C  
HETATM    2  N   UNL     1      -9.446   7.795  64.957  1.00  0.00     1.003 NA 
HETATM    3  N   UNL     1      -8.276   7.442  64.390  1.00  0.00    -0.061 NA 
HETATM    4  C   UNL     1      -7.395   8.041  65.188  1.00  0.00    -0.074 A  
HETATM    5  N   UNL     1      -7.935   8.700  66.250  1.00  0.00    -0.101 NA 
HETATM    6  C   UNL     1      -9.238   8.558  66.080  1.00  0.00    -0.211 A  
ENDROOT
BRANCH   6   7
HETATM    7  C   UNL     1     -10.293   9.132  66.996  1.00  0.00    -0.333 C  
HETATM    8  C   UNL     1     -10.040  10.633  67.260  1.00  0.00    -0.199 C  
HETATM    9  N   UNL     1     -10.326  11.090  68.619  1.00  0.00    -0.185 NA 
HETATM   10  C   UNL     1     -10.975  10.787  70.909  1.00  0.00     0.640 A  
HETATM   11  H   UNL     1     -10.289  12.091  68.807  1.00  0.00     0.000 HD 
HETATM   12  C   UNL     1     -10.641  10.249  69.661  1.00  0.00    -0.256 A  
HETATM   13  F   UNL     1     -11.697  10.509  73.139  1.00  0.00     3.190 F  
HETATM   14  C   UNL     1     -10.746   8.867  69.509  1.00  0.00    -0.206 A  
HETATM   15  C   UNL     1     -11.365   9.961  71.964  1.00  0.00     0.726 A  
HETATM   16  C   UNL     1     -11.418   8.584  71.816  1.00  0.00    -0.378 A  
HETATM   17  C   UNL     1     -10.504   8.242  68.206  1.00  0.00    -0.161 C  
HETATM   18  C   UNL     1     -11.096   8.039  70.574  1.00  0.00    -0.251 A  
HETATM   19  N   UNL     1     -10.538   6.950  68.034  1.00  0.00    -0.209 NA 
HETATM   20  O   UNL     1     -11.381   5.817  71.281  1.00  0.00    -0.217 OA 
HETATM   21  H   UNL     1     -10.733   5.146  68.959  1.00  0.00     0.000 HD 
HETATM   22  N   UNL     1     -10.789   6.155  69.106  1.00  0.00    -0.315 N  
HETATM   23  C   UNL     1     -11.113   6.586  70.369  1.00  0.00    -0.332 C  
BRANCH   8  24
HETATM   24  C   UNL     1     -10.897  11.443  66.279  1.00  0.00    -0.318 A  
HETATM   25  C   UNL     1     -11.112  13.409  64.861  1.00  0.00    -0.348 A  
HETATM   26  F   UNL     1     -12.674  13.393  63.095  1.00  0.00    -0.381 F  
HETATM   27  C   UNL     1     -12.131  12.781  64.155  1.00  0.00    -0.438 A  
HETATM   28  C   UNL     1     -12.576  11.518  64.516  1.00  0.00     0.648 A  
HETATM   29  C   UNL     1     -11.961  10.849  65.575  1.00  0.00     1.956 A  
HETATM   30  C   UNL     1     -10.504  12.748  65.929  1.00  0.00    -0.295 A  
ENDBRANCH   8  24
ENDBRANCH   6   7
TORSDOF 2
ENDMDL
MODEL      140
REMARK 921   NORMALIZED FREE ENERGY PREDICTED BY IDOCK:   14.61 KCAL/MOL
REMARK 922        TOTAL FREE ENERGY PREDICTED BY IDOCK:   15.64 KCAL/MOL
REMARK 923 INTER-LIGAND FREE ENERGY PREDICTED BY IDOCK:   11.81 KCAL/MOL
REMARK 924 INTRA-LIGAND FREE ENERGY PREDICTED BY IDOCK:    3.83 KCAL/MOL
REMARK 927      BINDING AFFINITY PREDICTED BY RF-SCORE:    0.00 PKD
ROOT
HETATM    1  C   UNL     1      -5.126  18.693  67.226  1.00  0.00    -0.144 C  
HETATM    2  N   UNL     1      -6.153  18.166  66.363  1.00  0.00    -0.167 NA 
HETATM    3  N   UNL     1      -5.939  18.122  65.035  1.00  0.00    -0.118 NA 
HETATM    4  C   UNL     1      -7.084  17.608  64.591  1.00  0.00     4.009 A  
HETATM    5  N   UNL     1      -8.023  17.379  65.550  1.00  0.00    -0.036 NA 
HETATM    6  C   UNL     1      -7.413  17.713  66.674  1.00  0.00    -0.235 A  
ENDROOT
BRANCH   6   7
HETATM    7  C   UNL     1      -8.031  17.623  68.049  1.00  0.00    -0.241 C  
HETATM    8  C   UNL     1      -9.568  17.766  67.975  1.00  0.00    -0.291 C  
HETATM    9  N   UNL     1     -10.182  18.525  69.064  1.00  0.00    -0.469 NA 
HETATM   10  C   UNL     1     -10.146  19.849  71.064  1.00  0.00     1.891 A  
HETATM   11  H   UNL     1     -11.201  18.543  69.122  1.00  0.00     0.000 HD 
HETATM   12  C   UNL     1      -9.469  19.216  70.015  1.00  0.00     0.891 A  
HETATM   13  F   UNL     1     -10.121  21.077  73.080  1.00  0.00     2.704 F  
HETATM   14  C   UNL     1      -8.076  19.236  70.047  1.00  0.00     0.942 A  
HETATM   15  C   UNL     1      -9.444  20.500  72.080  1.00  0.00     2.748 A  
HETATM   16  C   UNL     1      -8.060  20.555  72.074  1.00  0.00     2.362 A  
HETATM   17  C   UNL     1      -7.299  18.515  69.034  1.00  0.00    -0.219 C  
HETATM   18  C   UNL     1      -7.376  19.920  71.039  1.00  0.00     1.071 A  
HETATM   19  N   UNL     1      -5.997  18.552  68.994  1.00  0.00    -0.223 NA 
HETATM   20  O   UNL     1      -5.254  20.583  71.798  1.00  0.00    -0.431 OA 
HETATM   21  H   UNL     1      -4.324  19.376  69.814  1.00  0.00     0.000 HD 
HETATM   22  N   UNL     1      -5.337  19.302  69.915  1.00  0.00    -0.201 N  
HETATM   23  C   UNL     1      -5.911  19.968  70.970  1.00  0.00    -0.303 C  
BRANCH   8  24
HETATM   24  C   UNL     1     -10.180  16.360  67.950  1.00  0.00    -0.268 A  
HETATM   25  C   UNL     1     -10.713  14.319  69.163  1.00  0.00    -0.239 A  
HETATM   26  F   UNL     1     -12.399  12.892  68.337  1.00  0.00    -0.294 F  
HETATM   27  C   UNL     1     -11.647  13.991  68.188  1.00  0.00    -0.334 A  
HETATM   28  C   UNL     1     -11.832  14.798  67.075  1.00  0.00    -0.290 A  
HETATM   29  C   UNL     1     -11.101  15.981  66.955  1.00  0.00    -0.071 A  
HETATM   30  C   UNL     1      -9.971  15.494  69.039  1.00  0.00    -0.233 A  
ENDBRANCH   8  24
ENDBRANCH   6   7
TORSDOF 2
ENDMDL
MODEL      141
REMARK 921   NORMALIZED FREE ENERGY PREDICTED BY IDOCK:   15.97 KCAL/MOL
REMARK 922        TOTAL FREE ENERGY PREDICTED BY IDOCK:   17.16 KCAL/MOL
REMARK 923 INTER-LIGAND FREE ENERGY PREDICTED BY IDOCK:   17.39 KCAL/MOL
REMARK 924 INTRA-LIGAND FREE ENERGY PREDICTED BY IDOCK:   -0.23 KCAL/MOL
REMARK 927      BINDING AFFINITY PREDICTED BY RF-SCORE:    0.00 PKD
ROOT
HETATM    1  C   UNL     1      -6.876  14.858  67.339  1.00  0.00    -0.090 C  
HETATM    2  N   UNL     1      -8.272  14.685  67.027  1.00  0.00    -0.195 NA 
HETATM    3  N   UNL     1      -8.703  14.935  65.776  1.00  0.00     0.594 NA 
HETATM    4  C   UNL     1     -10.007  14.689  65.882  1.00  0.00    -0.328 A  
HETATM    5  N   UNL     1     -10.430  14.355  67.133  1.00  0.00    -0.262 NA 
HETATM    6  C   UNL     1      -9.317  14.332  67.846  1.00  0.00    -0.198 A  
ENDROOT
BRANCH   6   7
HETATM    7  C   UNL     1      -9.244  13.992  69.316  1.00  0.00     0.411 C  
HETATM    8  C   UNL     1      -9.203  15.274  70.178  1.00  0.00     0.424 C  
HETATM    9  N   UNL     1      -8.331  15.215  71.351  1.00  0.00     2.689 NA 
HETATM   10  C   UNL     1      -6.732  14.173  72.805  1.00  0.00     2.487 A  
HETATM   11  H   UNL     1      -8.364  15.990  72.014  1.00  0.00     0.000 HD 
HETATM   12  C   UNL     1      -7.469  14.176  71.615  1.00  0.00     4.159 A  
HETATM   13  F   UNL     1      -5.225  13.119  74.285  1.00  0.00    -0.212 F  
HETATM   14  C   UNL     1      -7.364  13.056  70.793  1.00  0.00     3.633 A  
HETATM   15  C   UNL     1      -5.901  13.100  73.130  1.00  0.00     1.242 A  
HETATM   16  C   UNL     1      -5.767  12.013  72.281  1.00  0.00     1.360 A  
HETATM   17  C   UNL     1      -8.178  12.946  69.579  1.00  0.00     1.328 C  
HETATM   18  C   UNL     1      -6.504  12.002  71.098  1.00  0.00     1.965 A  
HETATM   19  N   UNL     1      -8.070  11.942  68.754  1.00  0.00    -0.077 NA 
HETATM   20  O   UNL     1      -5.616   9.958  70.359  1.00  0.00    -0.042 OA 
HETATM   21  H   UNL     1      -7.041  10.239  68.322  1.00  0.00     0.000 HD 
HETATM   22  N   UNL     1      -7.159  10.972  69.022  1.00  0.00    -0.096 N  
HETATM   23  C   UNL     1      -6.381  10.888  70.151  1.00  0.00    -0.149 C  
BRANCH   8  24
HETATM   24  C   UNL     1     -10.631  15.585  70.643  1.00  0.00    -0.170 A  
HETATM   25  C   UNL     1     -12.991  14.995  70.599  1.00  0.00    -0.394 A  
HETATM   26  F   UNL     1     -14.404  15.759  72.325  1.00  0.00    -0.586 F  
HETATM   27  C   UNL     1     -13.193  15.741  71.754  1.00  0.00    -0.397 A  
HETATM   28  C   UNL     1     -12.152  16.446  72.340  1.00  0.00    -0.496 A  
HETATM   29  C   UNL     1     -10.873  16.369  71.787  1.00  0.00     1.129 A  
HETATM   30  C   UNL     1     -11.716  14.927  70.036  1.00  0.00    -0.338 A  
ENDBRANCH   8  24
ENDBRANCH   6   7
TORSDOF 2
ENDMDL
MODEL      142
REMARK 921   NORMALIZED FREE ENERGY PREDICTED BY IDOCK:   16.34 KCAL/MOL
REMARK 922        TOTAL FREE ENERGY PREDICTED BY IDOCK:   17.57 KCAL/MOL
REMARK 923 INTER-LIGAND FREE ENERGY PREDICTED BY IDOCK:   17.59 KCAL/MOL
REMARK 924 INTRA-LIGAND FREE ENERGY PREDICTED BY IDOCK:   -0.02 KCAL/MOL
REMARK 927      BINDING AFFINITY PREDICTED BY RF-SCORE:    0.00 PKD
ROOT
HETATM    1  C   UNL     1      -6.363  13.672  68.251  1.00  0.00    -0.107 C  
HETATM    2  N   UNL     1      -6.365  14.582  69.369  1.00  0.00    -0.116 NA 
HETATM    3  N   UNL     1      -5.275  14.661  70.155  1.00  0.00    -0.095 NA 
HETATM    4  C   UNL     1      -5.654  15.563  71.058  1.00  0.00     0.049 A  
HETATM    5  N   UNL     1      -6.932  16.014  70.920  1.00  0.00     1.665 NA 
HETATM    6  C   UNL     1      -7.366  15.403  69.831  1.00  0.00    -0.041 A  
ENDROOT
BRANCH   6   7
HETATM    7  C   UNL     1      -8.741  15.582  69.233  1.00  0.00    -0.260 C  
HETATM    8  C   UNL     1      -9.700  14.468  69.710  1.00  0.00     0.452 C  
HETATM    9  N   UNL     1     -10.642  13.977  68.704  1.00  0.00    -0.253 NA 
HETATM   10  C   UNL     1     -11.597  13.872  66.506  1.00  0.00    -0.385 A  
HETATM   11  H   UNL     1     -11.371  13.330  69.005  1.00  0.00     0.000 HD 
HETATM   12  C   UNL     1     -10.603  14.334  67.377  1.00  0.00    -0.276 A  
HETATM   13  F   UNL     1     -12.596  13.829  64.368  1.00  0.00    -0.391 F  
HETATM   14  C   UNL     1      -9.668  15.231  66.864  1.00  0.00    -0.243 A  
HETATM   15  C   UNL     1     -11.621  14.273  65.169  1.00  0.00    -0.355 A  
HETATM   16  C   UNL     1     -10.656  15.127  64.659  1.00  0.00    -0.167 A  
HETATM   17  C   UNL     1      -8.656  15.831  67.739  1.00  0.00    -0.159 C  
HETATM   18  C   UNL     1      -9.668  15.601  65.520  1.00  0.00    -0.286 A  
HETATM   19  N   UNL     1      -7.730  16.630  67.290  1.00  0.00    -0.158 NA 
HETATM   20  O   UNL     1      -8.547  16.813  63.850  1.00  0.00     8.971 OA 
HETATM   21  H   UNL     1      -6.911  17.469  65.625  1.00  0.00     0.000 HD 
HETATM   22  N   UNL     1      -7.691  16.904  65.960  1.00  0.00    -0.216 N  
HETATM   23  C   UNL     1      -8.608  16.488  65.027  1.00  0.00     3.342 C  
BRANCH   8  24
HETATM   24  C   UNL     1     -10.495  15.000  70.908  1.00  0.00     0.300 A  
HETATM   25  C   UNL     1     -12.290  14.653  72.514  1.00  0.00    -0.342 A  
HETATM   26  F   UNL     1     -12.272  15.854  74.543  1.00  0.00    -0.599 F  
HETATM   27  C   UNL     1     -11.724  15.610  73.346  1.00  0.00    -0.203 A  
HETATM   28  C   UNL     1     -10.582  16.302  72.966  1.00  0.00     4.107 A  
HETATM   29  C   UNL     1      -9.967  15.998  71.750  1.00  0.00     3.546 A  
HETATM   30  C   UNL     1     -11.686  14.356  71.292  1.00  0.00    -0.189 A  
ENDBRANCH   8  24
ENDBRANCH   6   7
TORSDOF 2
ENDMDL
MODEL      143
REMARK 921   NORMALIZED FREE ENERGY PREDICTED BY IDOCK:   20.72 KCAL/MOL
REMARK 922        TOTAL FREE ENERGY PREDICTED BY IDOCK:   22.46 KCAL/MOL
REMARK 923 INTER-LIGAND FREE ENERGY PREDICTED BY IDOCK:   20.12 KCAL/MOL
REMARK 924 INTRA-LIGAND FREE ENERGY PREDICTED BY IDOCK:    2.34 KCAL/MOL
REMARK 927      BINDING AFFINITY PREDICTED BY RF-SCORE:    0.00 PKD
ROOT
HETATM    1  C   UNL     1      -8.039  12.422  65.252  1.00  0.00     2.449 C  
HETATM    2  N   UNL     1      -9.473  12.464  65.380  1.00  0.00    -0.024 NA 
HETATM    3  N   UNL     1     -10.236  12.381  64.274  1.00  0.00    -0.337 NA 
HETATM    4  C   UNL     1     -11.464  12.471  64.781  1.00  0.00    -0.323 A  
HETATM    5  N   UNL     1     -11.517  12.660  66.128  1.00  0.00    -0.343 NA 
HETATM    6  C   UNL     1     -10.250  12.630  66.502  1.00  0.00    -0.243 A  
ENDROOT
BRANCH   6   7
HETATM    7  C   UNL     1      -9.768  12.778  67.925  1.00  0.00    -0.217 C  
HETATM    8  C   UNL     1     -10.941  13.109  68.875  1.00  0.00    -0.230 C  
HETATM    9  N   UNL     1     -10.637  14.060  69.943  1.00  0.00    -0.307 NA 
HETATM   10  C   UNL     1      -9.225  15.589  71.139  1.00  0.00     2.792 A  
HETATM   11  H   UNL     1     -11.342  14.216  70.663  1.00  0.00     0.000 HD 
HETATM   12  C   UNL     1      -9.455  14.758  70.035  1.00  0.00     0.528 A  
HETATM   13  F   UNL     1      -7.814  17.026  72.369  1.00  0.00     9.918 F  
HETATM   14  C   UNL     1      -8.413  14.601  69.123  1.00  0.00    -0.044 A  
HETATM   15  C   UNL     1      -8.009  16.255  71.292  1.00  0.00     5.724 A  
HETATM   16  C   UNL     1      -6.998  16.130  70.353  1.00  0.00     0.976 A  
HETATM   17  C   UNL     1      -8.546  13.675  67.995  1.00  0.00    -0.175 C  
HETATM   18  C   UNL     1      -7.213  15.298  69.255  1.00  0.00    -0.184 A  
HETATM   19  N   UNL     1      -7.619  13.539  67.089  1.00  0.00    -0.039 NA 
HETATM   20  O   UNL     1      -5.132  15.764  68.272  1.00  0.00    -0.090 OA 
HETATM   21  H   UNL     1      -5.822  14.228  66.422  1.00  0.00     0.000 HD 
HETATM   22  N   UNL     1      -6.496  14.297  67.185  1.00  0.00     0.398 N  
HETATM   23  C   UNL     1      -6.186  15.148  68.218  1.00  0.00    -0.119 C  
BRANCH   8  24
HETATM   24  C   UNL     1     -11.430  11.800  69.508  1.00  0.00    -0.363 A  
HETATM   25  C   UNL     1     -10.993   9.955  71.033  1.00  0.00    -0.360 A  
HETATM   26  F   UNL     1     -12.803   8.704  71.880  1.00  0.00    -0.315 F  
HETATM   27  C   UNL     1     -12.353   9.676  71.076  1.00  0.00    -0.310 A  
HETATM   28  C   UNL     1     -13.257  10.407  70.317  1.00  0.00     0.110 A  
HETATM   29  C   UNL     1     -12.797  11.467  69.535  1.00  0.00     0.587 A  
HETATM   30  C   UNL     1     -10.529  11.006  70.241  1.00  0.00     0.661 A  
ENDBRANCH   8  24
ENDBRANCH   6   7
TORSDOF 2
ENDMDL
MODEL      144
REMARK 921   NORMALIZED FREE ENERGY PREDICTED BY IDOCK:   24.32 KCAL/MOL
REMARK 922        TOTAL FREE ENERGY PREDICTED BY IDOCK:   26.49 KCAL/MOL
REMARK 923 INTER-LIGAND FREE ENERGY PREDICTED BY IDOCK:   27.06 KCAL/MOL
REMARK 924 INTRA-LIGAND FREE ENERGY PREDICTED BY IDOCK:   -0.57 KCAL/MOL
REMARK 927      BINDING AFFINITY PREDICTED BY RF-SCORE:    0.00 PKD
ROOT
HETATM    1  C   UNL     1      -7.641   6.482  65.516  1.00  0.00    -0.088 C  
HETATM    2  N   UNL     1      -8.825   7.291  65.373  1.00  0.00     0.025 NA 
HETATM    3  N   UNL     1      -9.231   7.651  64.140  1.00  0.00     1.464 NA 
HETATM    4  C   UNL     1     -10.309   8.383  64.412  1.00  0.00     5.713 A  
HETATM    5  N   UNL     1     -10.573   8.551  65.737  1.00  0.00     1.447 NA 
HETATM    6  C   UNL     1      -9.639   7.834  66.338  1.00  0.00    -0.165 A  
ENDROOT
BRANCH   6   7
HETATM    7  C   UNL     1      -9.504   7.676  67.833  1.00  0.00    -0.156 C  
HETATM    8  C   UNL     1      -8.158   8.250  68.331  1.00  0.00    -0.127 C  
HETATM    9  N   UNL     1      -7.509   7.493  69.401  1.00  0.00    -0.085 NA 
HETATM   10  C   UNL     1      -7.303   5.657  70.932  1.00  0.00    -0.084 A  
HETATM   11  H   UNL     1      -6.684   7.898  69.842  1.00  0.00     0.000 HD 
HETATM   12  C   UNL     1      -7.946   6.268  69.848  1.00  0.00    -0.115 A  
HETATM   13  F   UNL     1      -7.142   3.899  72.499  1.00  0.00    -0.046 F  
HETATM   14  C   UNL     1      -9.078   5.637  69.336  1.00  0.00    -0.134 A  
HETATM   15  C   UNL     1      -7.767   4.446  71.450  1.00  0.00    -0.080 A  
HETATM   16  C   UNL     1      -8.864   3.804  70.900  1.00  0.00    -0.135 A  
HETATM   17  C   UNL     1      -9.857   6.264  68.265  1.00  0.00    -0.126 C  
HETATM   18  C   UNL     1      -9.517   4.409  69.827  1.00  0.00    -0.254 A  
HETATM   19  N   UNL     1     -10.889   5.684  67.719  1.00  0.00    -0.175 NA 
HETATM   20  O   UNL     1     -11.071   2.667  69.564  1.00  0.00     4.621 OA 
HETATM   21  H   UNL     1     -12.007   3.983  67.653  1.00  0.00     0.000 HD 
HETATM   22  N   UNL     1     -11.244   4.446  68.149  1.00  0.00     2.993 N  
HETATM   23  C   UNL     1     -10.669   3.760  69.191  1.00  0.00     2.755 C  
BRANCH   8  24
HETATM   24  C   UNL     1      -8.400   9.683  68.820  1.00  0.00    -0.111 A  
HETATM   25  C   UNL     1      -9.952  11.538  69.092  1.00  0.00     0.050 A  
HETATM   26  F   UNL     1      -9.494  13.199  70.701  1.00  0.00     3.914 F  
HETATM   27  C   UNL     1      -9.118  12.085  70.058  1.00  0.00     3.171 A  
HETATM   28  C   UNL     1      -7.912  11.483  70.388  1.00  0.00     3.114 A  
HETATM   29  C   UNL     1      -7.553  10.283  69.771  1.00  0.00    -0.168 A  
HETATM   30  C   UNL     1      -9.589  10.346  68.464  1.00  0.00    -0.161 A  
ENDBRANCH   8  24
ENDBRANCH   6   7
TORSDOF 2
ENDMDL
MODEL      145
REMARK 921   NORMALIZED FREE ENERGY PREDICTED BY IDOCK:   30.43 KCAL/MOL
REMARK 922        TOTAL FREE ENERGY PREDICTED BY IDOCK:   33.31 KCAL/MOL
REMARK 923 INTER-LIGAND FREE ENERGY PREDICTED BY IDOCK:   28.97 KCAL/MOL
REMARK 924 INTRA-LIGAND FREE ENERGY PREDICTED BY IDOCK:    4.34 KCAL/MOL
REMARK 927      BINDING AFFINITY PREDICTED BY RF-SCORE:    0.00 PKD
ROOT
HETATM    1  C   UNL     1      -7.315   9.914  66.335  1.00  0.00    -0.101 C  
HETATM    2  N   UNL     1      -7.057  10.983  67.266  1.00  0.00    -0.091 NA 
HETATM    3  N   UNL     1      -5.958  10.929  68.042  1.00  0.00    -0.049 NA 
HETATM    4  C   UNL     1      -6.074  12.047  68.757  1.00  0.00    -0.059 A  
HETATM    5  N   UNL     1      -7.203  12.769  68.518  1.00  0.00    -0.109 NA 
HETATM    6  C   UNL     1      -7.808  12.098  67.553  1.00  0.00    -0.162 A  
ENDROOT
BRANCH   6   7
HETATM    7  C   UNL     1      -9.114  12.502  66.911  1.00  0.00    -0.213 C  
HETATM    8  C   UNL     1      -8.987  12.531  65.371  1.00  0.00     0.685 C  
HETATM    9  N   UNL     1      -9.707  13.613  64.701  1.00  0.00    -0.504 NA 
HETATM   10  C   UNL     1     -11.059  15.594  64.636  1.00  0.00    -0.387 A  
HETATM   11  H   UNL     1      -9.752  13.601  63.682  1.00  0.00     0.000 HD 
HETATM   12  C   UNL     1     -10.328  14.646  65.362  1.00  0.00    -0.383 A  
HETATM   13  F   UNL     1     -12.461  17.491  64.563  1.00  0.00     3.025 F  
HETATM   14  C   UNL     1     -10.354  14.745  66.752  1.00  0.00    -0.268 A  
HETATM   15  C   UNL     1     -11.756  16.614  65.286  1.00  0.00     1.050 A  
HETATM   16  C   UNL     1     -11.733  16.731  66.667  1.00  0.00     1.494 A  
HETATM   17  C   UNL     1      -9.691  13.735  67.581  1.00  0.00    -0.227 C  
HETATM   18  C   UNL     1     -11.016  15.787  67.400  1.00  0.00    -0.279 A  
HETATM   19  N   UNL     1      -9.643  13.819  68.881  1.00  0.00    -0.022 NA 
HETATM   20  O   UNL     1     -11.474  16.792  69.473  1.00  0.00     0.037 OA 
HETATM   21  H   UNL     1     -10.095  14.973  70.498  1.00  0.00     0.000 HD 
HETATM   22  N   UNL     1     -10.214  14.892  69.487  1.00  0.00    -0.173 N  
HETATM   23  C   UNL     1     -10.938  15.878  68.863  1.00  0.00    -0.290 C  
BRANCH   8  24
HETATM   24  C   UNL     1      -9.495  11.191  64.824  1.00  0.00    -0.250 A  
HETATM   25  C   UNL     1      -9.912   8.826  65.215  1.00  0.00     0.864 A  
HETATM   26  F   UNL     1     -11.466   7.687  63.855  1.00  0.00    13.416 F  
HETATM   27  C   UNL     1     -10.792   8.810  64.140  1.00  0.00     8.739 A  
HETATM   28  C   UNL     1     -11.003   9.946  63.372  1.00  0.00     3.918 A  
HETATM   29  C   UNL     1     -10.357  11.135  63.712  1.00  0.00    -0.447 A  
HETATM   30  C   UNL     1      -9.254  10.010  65.550  1.00  0.00    -0.247 A  
ENDBRANCH   8  24
ENDBRANCH   6   7
TORSDOF 2
ENDMDL
MODEL      146
REMARK 921   NORMALIZED FREE ENERGY PREDICTED BY IDOCK:   56.31 KCAL/MOL
REMARK 922        TOTAL FREE ENERGY PREDICTED BY IDOCK:   62.22 KCAL/MOL
REMARK 923 INTER-LIGAND FREE ENERGY PREDICTED BY IDOCK:   61.12 KCAL/MOL
REMARK 924 INTRA-LIGAND FREE ENERGY PREDICTED BY IDOCK:    1.10 KCAL/MOL
REMARK 927      BINDING AFFINITY PREDICTED BY RF-SCORE:    0.00 PKD
ROOT
HETATM    1  C   UNL     1     -10.009   8.572  64.284  1.00  0.00     3.440 C  
HETATM    2  N   UNL     1     -11.172   8.596  65.135  1.00  0.00     6.419 NA 
HETATM    3  N   UNL     1     -12.396   8.629  64.576  1.00  0.00    17.299 NA 
HETATM    4  C   UNL     1     -13.185   8.662  65.648  1.00  0.00    22.096 A  
HETATM    5  N   UNL     1     -12.531   8.709  66.842  1.00  0.00     7.982 NA 
HETATM    6  C   UNL     1     -11.255   8.642  66.506  1.00  0.00     1.790 A  
ENDROOT
BRANCH   6   7
HETATM    7  C   UNL     1     -10.105   8.641  67.485  1.00  0.00    -0.277 C  
HETATM    8  C   UNL     1      -8.749   8.613  66.746  1.00  0.00    -0.124 C  
HETATM    9  N   UNL     1      -7.709   7.796  67.371  1.00  0.00    -0.111 NA 
HETATM   10  C   UNL     1      -6.850   6.284  69.024  1.00  0.00    -0.066 A  
HETATM   11  H   UNL     1      -6.765   7.843  66.986  1.00  0.00     0.000 HD 
HETATM   12  C   UNL     1      -7.927   6.967  68.446  1.00  0.00    -0.123 A  
HETATM   13  F   UNL     1      -5.976   4.866  70.696  1.00  0.00    -0.014 F  
HETATM   14  C   UNL     1      -9.169   6.848  69.067  1.00  0.00    -0.137 A  
HETATM   15  C   UNL     1      -7.031   5.489  70.157  1.00  0.00    -0.064 A  
HETATM   16  C   UNL     1      -8.280   5.340  70.736  1.00  0.00    -0.110 A  
HETATM   17  C   UNL     1     -10.321   7.608  68.576  1.00  0.00    -0.198 C  
HETATM   18  C   UNL     1      -9.357   6.023  70.175  1.00  0.00    -0.172 A  
HETATM   19  N   UNL     1     -11.512   7.484  69.091  1.00  0.00     0.372 NA 
HETATM   20  O   UNL     1     -10.928   5.143  71.683  1.00  0.00    -0.124 OA 
HETATM   21  H   UNL     1     -12.649   6.470  70.444  1.00  0.00     0.000 HD 
HETATM   22  N   UNL     1     -11.693   6.605  70.111  1.00  0.00    -0.390 N  
HETATM   23  C   UNL     1     -10.707   5.880  70.733  1.00  0.00    -0.277 C  
BRANCH   8  24
HETATM   24  C   UNL     1      -8.237  10.054  66.629  1.00  0.00    -0.122 A  
HETATM   25  C   UNL     1      -7.674  11.935  65.191  1.00  0.00     2.037 A  
HETATM   26  F   UNL     1      -7.607  14.107  66.106  1.00  0.00     1.139 F  
HETATM   27  C   UNL     1      -7.765  12.789  66.283  1.00  0.00     1.259 A  
HETATM   28  C   UNL     1      -8.042  12.300  67.552  1.00  0.00    -0.170 A  
HETATM   29  C   UNL     1      -8.278  10.936  67.726  1.00  0.00    -0.116 A  
HETATM   30  C   UNL     1      -7.897  10.568  65.364  1.00  0.00    -0.119 A  
ENDBRANCH   8  24
ENDBRANCH   6   7
TORSDOF 2
ENDMDL
MODEL      147
REMARK 921   NORMALIZED FREE ENERGY PREDICTED BY IDOCK:   64.31 KCAL/MOL
REMARK 922        TOTAL FREE ENERGY PREDICTED BY IDOCK:   71.15 KCAL/MOL
REMARK 923 INTER-LIGAND FREE ENERGY PREDICTED BY IDOCK:   70.99 KCAL/MOL
REMARK 924 INTRA-LIGAND FREE ENERGY PREDICTED BY IDOCK:    0.16 KCAL/MOL
REMARK 927      BINDING AFFINITY PREDICTED BY RF-SCORE:    0.00 PKD
ROOT
HETATM    1  C   UNL     1      -8.071  19.562  69.060  1.00  0.00    -0.220 C  
HETATM    2  N   UNL     1      -9.313  19.279  68.387  1.00  0.00    -0.349 NA 
HETATM    3  N   UNL     1      -9.701  20.062  67.362  1.00  0.00    -0.390 NA 
HETATM    4  C   UNL     1     -10.866  19.513  67.025  1.00  0.00    -0.427 A  
HETATM    5  N   UNL     1     -11.260  18.472  67.807  1.00  0.00     0.081 NA 
HETATM    6  C   UNL     1     -10.257  18.315  68.653  1.00  0.00    -0.353 A  
ENDROOT
BRANCH   6   7
HETATM    7  C   UNL     1     -10.196  17.261  69.733  1.00  0.00     0.194 C  
HETATM    8  C   UNL     1      -9.162  17.637  70.817  1.00  0.00     4.946 C  
HETATM    9  N   UNL     1      -8.386  16.523  71.360  1.00  0.00     6.762 NA 
HETATM   10  C   UNL     1      -7.706  14.226  71.495  1.00  0.00     4.233 A  
HETATM   11  H   UNL     1      -7.779  16.705  72.159  1.00  0.00     0.000 HD 
HETATM   12  C   UNL     1      -8.426  15.243  70.857  1.00  0.00     2.483 A  
HETATM   13  F   UNL     1      -7.096  11.954  71.691  1.00  0.00     3.579 F  
HETATM   14  C   UNL     1      -9.240  14.878  69.787  1.00  0.00     0.183 A  
HETATM   15  C   UNL     1      -7.781  12.906  71.047  1.00  0.00     6.592 A  
HETATM   16  C   UNL     1      -8.556  12.564  69.950  1.00  0.00     2.862 A  
HETATM   17  C   UNL     1     -10.095  15.872  69.131  1.00  0.00    -0.240 C  
HETATM   18  C   UNL     1      -9.284  13.568  69.314  1.00  0.00     0.707 A  
HETATM   19  N   UNL     1     -10.829  15.586  68.093  1.00  0.00    -0.285 NA 
HETATM   20  O   UNL     1     -10.147  12.138  67.663  1.00  0.00    -0.194 OA 
HETATM   21  H   UNL     1     -11.310  14.148  66.733  1.00  0.00     0.000 HD 
HETATM   22  N   UNL     1     -10.786  14.324  67.590  1.00  0.00    -0.265 N  
HETATM   23  C   UNL     1     -10.102  13.265  68.134  1.00  0.00    -0.241 C  
BRANCH   8  24
HETATM   24  C   UNL     1      -9.903  18.327  71.969  1.00  0.00     6.990 A  
HETATM   25  C   UNL     1     -10.074  20.239  73.463  1.00  0.00     5.714 A  
HETATM   26  F   UNL     1     -12.134  20.703  74.514  1.00  0.00     6.636 F  
HETATM   27  C   UNL     1     -11.397  19.908  73.727  1.00  0.00     8.139 A  
HETATM   28  C   UNL     1     -11.976  18.778  73.167  1.00  0.00     6.212 A  
HETATM   29  C   UNL     1     -11.232  17.989  72.289  1.00  0.00     2.735 A  
HETATM   30  C   UNL     1      -9.324  19.445  72.596  1.00  0.00     4.906 A  
ENDBRANCH   8  24
ENDBRANCH   6   7
TORSDOF 2
ENDMDL
MODEL      148
REMARK 921   NORMALIZED FREE ENERGY PREDICTED BY IDOCK:   67.02 KCAL/MOL
REMARK 922        TOTAL FREE ENERGY PREDICTED BY IDOCK:   74.18 KCAL/MOL
REMARK 923 INTER-LIGAND FREE ENERGY PREDICTED BY IDOCK:   73.07 KCAL/MOL
REMARK 924 INTRA-LIGAND FREE ENERGY PREDICTED BY IDOCK:    1.11 KCAL/MOL
REMARK 927      BINDING AFFINITY PREDICTED BY RF-SCORE:    0.00 PKD
ROOT
HETATM    1  C   UNL     1     -10.057   8.556  64.257  1.00  0.00     4.123 C  
HETATM    2  N   UNL     1     -11.333   8.551  64.927  1.00  0.00     8.930 NA 
HETATM    3  N   UNL     1     -12.461   8.618  64.195  1.00  0.00    19.100 NA 
HETATM    4  C   UNL     1     -13.400   8.610  65.139  1.00  0.00    23.788 A  
HETATM    5  N   UNL     1     -12.931   8.599  66.417  1.00  0.00    14.153 NA 
HETATM    6  C   UNL     1     -11.619   8.537  66.271  1.00  0.00     4.728 A  
ENDROOT
BRANCH   6   7
HETATM    7  C   UNL     1     -10.627   8.482  67.409  1.00  0.00    -0.304 C  
HETATM    8  C   UNL     1      -9.761   7.205  67.327  1.00  0.00    -0.155 C  
HETATM    9  N   UNL     1      -9.443   6.578  68.609  1.00  0.00    -0.124 NA 
HETATM   10  C   UNL     1      -9.563   6.355  70.995  1.00  0.00    -0.188 A  
HETATM   11  H   UNL     1      -8.777   5.806  68.614  1.00  0.00     0.000 HD 
HETATM   12  C   UNL     1      -9.989   6.967  69.810  1.00  0.00    -0.178 A  
HETATM   13  F   UNL     1      -9.606   6.185  73.349  1.00  0.00    -0.144 F  
HETATM   14  C   UNL     1     -10.886   8.027  69.923  1.00  0.00    -0.217 A  
HETATM   15  C   UNL     1     -10.050   6.777  72.234  1.00  0.00    -0.173 A  
HETATM   16  C   UNL     1     -10.979   7.800  72.329  1.00  0.00    -0.345 A  
HETATM   17  C   UNL     1     -11.304   8.776  68.734  1.00  0.00     0.611 C  
HETATM   18  C   UNL     1     -11.403   8.421  71.156  1.00  0.00    -0.310 A  
HETATM   19  N   UNL     1     -12.183   9.738  68.787  1.00  0.00     0.952 NA 
HETATM   20  O   UNL     1     -12.911   9.851  72.251  1.00  0.00    -0.391 OA 
HETATM   21  H   UNL     1     -13.484  10.746  69.986  1.00  0.00     0.000 HD 
HETATM   22  N   UNL     1     -12.744  10.044  69.986  1.00  0.00     0.121 N  
HETATM   23  C   UNL     1     -12.405   9.493  71.197  1.00  0.00    -0.326 C  
BRANCH   8  24
HETATM   24  C   UNL     1      -8.449   7.561  66.616  1.00  0.00    -0.130 A  
HETATM   25  C   UNL     1      -7.009   7.272  64.676  1.00  0.00    -0.051 A  
HETATM   26  F   UNL     1      -5.385   8.911  64.191  1.00  0.00    -0.052 F  
HETATM   27  C   UNL     1      -6.346   8.449  65.001  1.00  0.00    -0.052 A  
HETATM   28  C   UNL     1      -6.681   9.167  66.140  1.00  0.00    -0.074 A  
HETATM   29  C   UNL     1      -7.731   8.726  66.946  1.00  0.00    -0.094 A  
HETATM   30  C   UNL     1      -8.050   6.821  65.488  1.00  0.00    -0.128 A  
ENDBRANCH   8  24
ENDBRANCH   6   7
TORSDOF 2
ENDMDL
MODEL      149
REMARK 921   NORMALIZED FREE ENERGY PREDICTED BY IDOCK:   67.14 KCAL/MOL
REMARK 922        TOTAL FREE ENERGY PREDICTED BY IDOCK:   74.31 KCAL/MOL
REMARK 923 INTER-LIGAND FREE ENERGY PREDICTED BY IDOCK:   73.74 KCAL/MOL
REMARK 924 INTRA-LIGAND FREE ENERGY PREDICTED BY IDOCK:    0.57 KCAL/MOL
REMARK 927      BINDING AFFINITY PREDICTED BY RF-SCORE:    0.00 PKD
ROOT
HETATM    1  C   UNL     1      -9.879  14.899  68.943  1.00  0.00    -0.230 C  
HETATM    2  N   UNL     1     -11.248  14.597  68.607  1.00  0.00    -0.262 NA 
HETATM    3  N   UNL     1     -12.175  15.571  68.686  1.00  0.00    -0.071 NA 
HETATM    4  C   UNL     1     -13.282  14.923  68.329  1.00  0.00     3.180 A  
HETATM    5  N   UNL     1     -13.117  13.593  68.086  1.00  0.00     1.959 NA 
HETATM    6  C   UNL     1     -11.819  13.402  68.241  1.00  0.00    -0.358 A  
ENDROOT
BRANCH   6   7
HETATM    7  C   UNL     1     -11.115  12.078  68.061  1.00  0.00    -0.292 C  
HETATM    8  C   UNL     1      -9.667  12.144  68.596  1.00  0.00    -0.081 C  
HETATM    9  N   UNL     1      -8.673  11.413  67.810  1.00  0.00    -0.132 NA 
HETATM   10  C   UNL     1      -7.937  10.087  65.951  1.00  0.00    -0.124 A  
HETATM   11  H   UNL     1      -7.730  11.328  68.189  1.00  0.00     0.000 HD 
HETATM   12  C   UNL     1      -8.934  10.833  66.591  1.00  0.00    -0.153 A  
HETATM   13  F   UNL     1      -7.226   8.710  64.171  1.00  0.00    -0.085 F  
HETATM   14  C   UNL     1     -10.193  10.864  65.995  1.00  0.00    -0.311 A  
HETATM   15  C   UNL     1      -8.195   9.431  64.746  1.00  0.00    -0.145 A  
HETATM   16  C   UNL     1      -9.438   9.510  64.138  1.00  0.00     0.084 A  
HETATM   17  C   UNL     1     -11.311  11.545  66.654  1.00  0.00    -0.214 C  
HETATM   18  C   UNL     1     -10.440  10.243  64.771  1.00  0.00     0.064 A  
HETATM   19  N   UNL     1     -12.489  11.646  66.106  1.00  0.00     0.967 NA 
HETATM   20  O   UNL     1     -12.021   9.881  63.073  1.00  0.00     5.680 OA 
HETATM   21  H   UNL     1     -13.591  11.274  64.434  1.00  0.00     0.000 HD 
HETATM   22  N   UNL     1     -12.683  11.114  64.872  1.00  0.00     2.418 N  
HETATM   23  C   UNL     1     -11.766  10.380  64.159  1.00  0.00     3.558 C  
BRANCH   8  24
HETATM   24  C   UNL     1      -9.659  11.597  70.029  1.00  0.00     2.171 A  
HETATM   25  C   UNL     1      -8.446  11.291  72.115  1.00  0.00    14.249 A  
HETATM   26  F   UNL     1      -9.651  10.890  74.103  1.00  0.00    11.993 F  
HETATM   27  C   UNL     1      -9.649  11.072  72.775  1.00  0.00    15.872 A  
HETATM   28  C   UNL     1     -10.852  11.065  72.085  1.00  0.00     6.480 A  
HETATM   29  C   UNL     1     -10.859  11.327  70.714  1.00  0.00     1.569 A  
HETATM   30  C   UNL     1      -8.448  11.540  70.743  1.00  0.00     5.953 A  
ENDBRANCH   8  24
ENDBRANCH   6   7
TORSDOF 2
ENDMDL
MODEL      150
REMARK 921   NORMALIZED FREE ENERGY PREDICTED BY IDOCK:   72.99 KCAL/MOL
REMARK 922        TOTAL FREE ENERGY PREDICTED BY IDOCK:   80.85 KCAL/MOL
REMARK 923 INTER-LIGAND FREE ENERGY PREDICTED BY IDOCK:   77.88 KCAL/MOL
REMARK 924 INTRA-LIGAND FREE ENERGY PREDICTED BY IDOCK:    2.97 KCAL/MOL
REMARK 927      BINDING AFFINITY PREDICTED BY RF-SCORE:    0.00 PKD
ROOT
HETATM    1  C   UNL     1      -9.895  10.059  63.169  1.00  0.00     0.310 C  
HETATM    2  N   UNL     1      -9.335  11.054  64.048  1.00  0.00    -0.218 NA 
HETATM    3  N   UNL     1      -8.860  12.201  63.525  1.00  0.00     0.609 NA 
HETATM    4  C   UNL     1      -8.423  12.836  64.611  1.00  0.00     3.335 A  
HETATM    5  N   UNL     1      -8.543  12.137  65.773  1.00  0.00     0.352 NA 
HETATM    6  C   UNL     1      -9.145  11.018  65.408  1.00  0.00    -0.195 A  
ENDROOT
BRANCH   6   7
HETATM    7  C   UNL     1      -9.527   9.899  66.348  1.00  0.00    -0.234 C  
HETATM    8  C   UNL     1      -8.321   9.468  67.213  1.00  0.00    -0.125 C  
HETATM    9  N   UNL     1      -8.214   8.032  67.471  1.00  0.00    -0.122 NA 
HETATM   10  C   UNL     1      -8.884   5.740  67.245  1.00  0.00    -0.106 A  
HETATM   11  H   UNL     1      -7.506   7.715  68.134  1.00  0.00     0.000 HD 
HETATM   12  C   UNL     1      -9.011   7.084  66.874  1.00  0.00    -0.126 A  
HETATM   13  F   UNL     1      -9.592   3.493  67.096  1.00  0.00    -0.212 F  
HETATM   14  C   UNL     1     -10.026   7.408  65.976  1.00  0.00     0.352 A  
HETATM   15  C   UNL     1      -9.726   4.766  66.705  1.00  0.00    -0.191 A  
HETATM   16  C   UNL     1     -10.699   5.094  65.776  1.00  0.00    -0.044 A  
HETATM   17  C   UNL     1     -10.279   8.806  65.614  1.00  0.00     0.859 C  
HETATM   18  C   UNL     1     -10.840   6.430  65.406  1.00  0.00     3.094 A  
HETATM   19  N   UNL     1     -11.181   9.148  64.737  1.00  0.00     6.184 NA 
HETATM   20  O   UNL     1     -12.552   6.005  63.856  1.00  0.00     7.182 OA 
HETATM   21  H   UNL     1     -12.543   8.462  63.387  1.00  0.00     0.000 HD 
HETATM   22  N   UNL     1     -11.900   8.172  64.124  1.00  0.00    18.324 N  
HETATM   23  C   UNL     1     -11.838   6.830  64.408  1.00  0.00    13.910 C  
BRANCH   8  24
HETATM   24  C   UNL     1      -8.406  10.204  68.556  1.00  0.00    -0.116 A  
HETATM   25  C   UNL     1      -7.676  12.067  69.939  1.00  0.00     1.502 A  
HETATM   26  F   UNL     1      -9.014  12.749  71.758  1.00  0.00    14.173 F  
HETATM   27  C   UNL     1      -8.792  11.896  70.749  1.00  0.00     7.717 A  
HETATM   28  C   UNL     1      -9.695  10.870  70.513  1.00  0.00     2.023 A  
HETATM   29  C   UNL     1      -9.504  10.025  69.418  1.00  0.00    -0.237 A  
HETATM   30  C   UNL     1      -7.475  11.216  68.852  1.00  0.00    -0.125 A  
ENDBRANCH   8  24
ENDBRANCH   6   7
TORSDOF 2
ENDMDL
