MODEL        1
REMARK 921   NORMALIZED FREE ENERGY PREDICTED BY IDOCK:   -6.38 KCAL/MOL
REMARK 922        TOTAL FREE ENERGY PREDICTED BY IDOCK:  -10.97 KCAL/MOL
REMARK 923 INTER-LIGAND FREE ENERGY PREDICTED BY IDOCK:   -8.98 KCAL/MOL
REMARK 924 INTRA-LIGAND FREE ENERGY PREDICTED BY IDOCK:   -1.99 KCAL/MOL
REMARK 927      BINDING AFFINITY PREDICTED BY RF-SCORE:    0.00 PKD
ROOT
HETATM    1  C   UNL     1     -10.337   8.025  67.583  1.00  0.00    -0.312 C  
HETATM    2  C   UNL     1     -10.631   9.186  66.647  1.00  0.00    -0.157 C  
HETATM    3  C   UNL     1     -10.678  10.637  67.129  1.00  0.00    -0.327 C  
HETATM    4  C   UNL     1     -10.486  11.167  68.371  1.00  0.00    -0.211 C  
ENDROOT
BRANCH   3   5
HETATM    5  C   UNL     1     -10.965  11.521  65.955  1.00  0.00    -0.316 A  
HETATM    6  C   UNL     1     -10.064  11.575  64.884  1.00  0.00    -0.314 A  
HETATM    7  C   UNL     1     -12.160  12.250  65.877  1.00  0.00    -0.261 A  
HETATM    8  C   UNL     1     -12.449  13.017  64.743  1.00  0.00    -0.485 A  
HETATM    9  C   UNL     1     -10.357  12.337  63.749  1.00  0.00    -0.464 A  
HETATM   10  C   UNL     1     -11.549  13.054  63.678  1.00  0.00    -0.507 A  
ENDBRANCH   3   5
BRANCH   4  11
HETATM   11  C   UNL     1     -10.222  10.315  69.553  1.00  0.00    -0.261 A  
HETATM   12  C   UNL     1      -8.922   9.880  69.848  1.00  0.00    -0.231 A  
HETATM   13  C   UNL     1      -8.679   9.107  70.986  1.00  0.00    -0.251 A  
HETATM   14  C   UNL     1     -11.037   9.135  71.510  1.00  0.00    -0.436 A  
HETATM   15  C   UNL     1     -11.282   9.908  70.375  1.00  0.00    -0.379 A  
HETATM   16  C   UNL     1      -9.736   8.745  71.822  1.00  0.00    -0.380 A  
ENDBRANCH   4  11
BRANCH   4  17
HETATM   17  C   UNL     1     -10.539  12.645  68.554  1.00  0.00    -0.262 A  
HETATM   18  C   UNL     1     -11.699  14.665  69.250  1.00  0.00    -0.348 A  
HETATM   19  C   UNL     1     -10.551  15.420  69.004  1.00  0.00    -0.247 A  
HETATM   20  C   UNL     1      -9.419  14.781  68.482  1.00  0.00    -0.214 A  
HETATM   21  C   UNL     1      -9.412  13.407  68.250  1.00  0.00    -0.209 A  
HETATM   22  C   UNL     1     -11.694  13.282  69.028  1.00  0.00    -0.368 A  
BRANCH  19  23
HETATM   23  O   UNL     1     -10.623  16.761  69.315  1.00  0.00    -0.319 OA 
BRANCH  23  24
HETATM   24  C   UNL     1      -9.797  17.580  68.481  1.00  0.00    -0.330 C  
BRANCH  24  25
HETATM   25  C   UNL     1     -10.521  18.086  67.227  1.00  0.00    -0.380 C  
BRANCH  25  26
HETATM   26  N   UNL     1      -9.826  17.660  65.989  1.00  0.00    -0.524 NA 
HETATM   27  C   UNL     1     -10.432  16.442  65.452  1.00  0.00    -0.311 C  
HETATM   28  C   UNL     1      -8.388  17.448  66.194  1.00  0.00    -0.182 C  
ENDBRANCH  25  26
ENDBRANCH  24  25
ENDBRANCH  23  24
ENDBRANCH  19  23
ENDBRANCH   4  17
TORSDOF 7
ENDMDL
MODEL        2
REMARK 921   NORMALIZED FREE ENERGY PREDICTED BY IDOCK:   -6.29 KCAL/MOL
REMARK 922        TOTAL FREE ENERGY PREDICTED BY IDOCK:  -10.86 KCAL/MOL
REMARK 923 INTER-LIGAND FREE ENERGY PREDICTED BY IDOCK:   -8.88 KCAL/MOL
REMARK 924 INTRA-LIGAND FREE ENERGY PREDICTED BY IDOCK:   -1.98 KCAL/MOL
REMARK 927      BINDING AFFINITY PREDICTED BY RF-SCORE:    0.00 PKD
ROOT
HETATM    1  C   UNL     1     -10.336   8.004  67.702  1.00  0.00    -0.312 C  
HETATM    2  C   UNL     1     -10.628   9.144  66.740  1.00  0.00    -0.207 C  
HETATM    3  C   UNL     1     -10.698  10.603  67.194  1.00  0.00    -0.327 C  
HETATM    4  C   UNL     1     -10.532  11.158  68.429  1.00  0.00    -0.211 C  
ENDROOT
BRANCH   3   5
HETATM    5  C   UNL     1     -10.976  11.462  65.999  1.00  0.00    -0.286 A  
HETATM    6  C   UNL     1     -12.154  12.220  65.941  1.00  0.00    -0.261 A  
HETATM    7  C   UNL     1     -10.043  11.575  64.959  1.00  0.00    -0.315 A  
HETATM    8  C   UNL     1     -10.283  12.434  63.882  1.00  0.00    -0.409 A  
HETATM    9  C   UNL     1     -12.388  13.084  64.868  1.00  0.00    -0.512 A  
HETATM   10  C   UNL     1     -11.452  13.193  63.841  1.00  0.00    -0.451 A  
ENDBRANCH   3   5
BRANCH   4  11
HETATM   11  C   UNL     1     -10.278  10.331  69.630  1.00  0.00    -0.268 A  
HETATM   12  C   UNL     1     -11.331   9.944  70.471  1.00  0.00    -0.399 A  
HETATM   13  C   UNL     1     -11.085   9.132  71.581  1.00  0.00    -0.445 A  
HETATM   14  C   UNL     1      -8.725   9.141  71.065  1.00  0.00    -0.251 A  
HETATM   15  C   UNL     1      -8.969   9.950  69.955  1.00  0.00    -0.231 A  
HETATM   16  C   UNL     1      -9.783   8.722  71.870  1.00  0.00    -0.386 A  
ENDBRANCH   4  11
BRANCH   4  17
HETATM   17  C   UNL     1     -10.605  12.639  68.583  1.00  0.00    -0.245 A  
HETATM   18  C   UNL     1     -11.781  14.655  69.260  1.00  0.00    -0.348 A  
HETATM   19  C   UNL     1     -10.650  15.422  68.977  1.00  0.00    -0.247 A  
HETATM   20  C   UNL     1      -9.518  14.789  68.446  1.00  0.00    -0.213 A  
HETATM   21  C   UNL     1      -9.495  13.411  68.241  1.00  0.00    -0.209 A  
HETATM   22  C   UNL     1     -11.759  13.268  69.066  1.00  0.00    -0.368 A  
BRANCH  19  23
HETATM   23  O   UNL     1     -10.736  16.768  69.262  1.00  0.00    -0.334 OA 
BRANCH  23  24
HETATM   24  C   UNL     1      -9.812  17.565  68.515  1.00  0.00    -0.330 C  
BRANCH  24  25
HETATM   25  C   UNL     1     -10.458  18.282  67.324  1.00  0.00    -0.398 C  
BRANCH  25  26
HETATM   26  N   UNL     1      -9.795  17.921  66.047  1.00  0.00    -0.542 NA 
HETATM   27  C   UNL     1     -10.558  16.891  65.344  1.00  0.00    -0.162 C  
HETATM   28  C   UNL     1      -8.412  17.469  66.239  1.00  0.00    -0.212 C  
ENDBRANCH  25  26
ENDBRANCH  24  25
ENDBRANCH  23  24
ENDBRANCH  19  23
ENDBRANCH   4  17
TORSDOF 7
ENDMDL
MODEL        3
REMARK 921   NORMALIZED FREE ENERGY PREDICTED BY IDOCK:   -6.28 KCAL/MOL
REMARK 922        TOTAL FREE ENERGY PREDICTED BY IDOCK:  -10.84 KCAL/MOL
REMARK 923 INTER-LIGAND FREE ENERGY PREDICTED BY IDOCK:   -9.17 KCAL/MOL
REMARK 924 INTRA-LIGAND FREE ENERGY PREDICTED BY IDOCK:   -1.66 KCAL/MOL
REMARK 927      BINDING AFFINITY PREDICTED BY RF-SCORE:    0.00 PKD
ROOT
HETATM    1  C   UNL     1     -10.394   7.915  67.712  1.00  0.00    -0.289 C  
HETATM    2  C   UNL     1     -10.631   9.078  66.761  1.00  0.00    -0.201 C  
HETATM    3  C   UNL     1     -10.660  10.532  67.236  1.00  0.00    -0.317 C  
HETATM    4  C   UNL     1     -10.495  11.064  68.481  1.00  0.00    -0.210 C  
ENDROOT
BRANCH   3   5
HETATM    5  C   UNL     1     -10.889  11.416  66.049  1.00  0.00    -0.306 A  
HETATM    6  C   UNL     1      -9.988  11.394  64.976  1.00  0.00    -0.312 A  
HETATM    7  C   UNL     1     -12.033  12.223  65.961  1.00  0.00    -0.342 A  
HETATM    8  C   UNL     1     -12.271  12.991  64.817  1.00  0.00    -0.487 A  
HETATM    9  C   UNL     1     -10.231  12.157  63.830  1.00  0.00    -0.426 A  
HETATM   10  C   UNL     1     -11.373  12.952  63.750  1.00  0.00    -0.490 A  
ENDBRANCH   3   5
BRANCH   4  11
HETATM   11  C   UNL     1     -10.289  10.212  69.674  1.00  0.00    -0.278 A  
HETATM   12  C   UNL     1     -11.372   9.828  70.478  1.00  0.00    -0.382 A  
HETATM   13  C   UNL     1     -11.170   8.993  71.579  1.00  0.00    -0.418 A  
HETATM   14  C   UNL     1      -8.797   8.971  71.130  1.00  0.00    -0.282 A  
HETATM   15  C   UNL     1      -8.996   9.804  70.028  1.00  0.00    -0.255 A  
HETATM   16  C   UNL     1      -9.884   8.556  71.898  1.00  0.00    -0.358 A  
ENDBRANCH   4  11
BRANCH   4  17
HETATM   17  C   UNL     1     -10.520  12.543  68.655  1.00  0.00    -0.220 A  
HETATM   18  C   UNL     1      -9.534  14.743  68.339  1.00  0.00    -0.213 A  
HETATM   19  C   UNL     1     -10.669  15.341  68.888  1.00  0.00    -0.245 A  
HETATM   20  C   UNL     1     -11.701  14.524  69.367  1.00  0.00    -0.361 A  
HETATM   21  C   UNL     1     -11.628  13.137  69.260  1.00  0.00    -0.370 A  
HETATM   22  C   UNL     1      -9.460  13.349  68.220  1.00  0.00    -0.209 A  
BRANCH  19  23
HETATM   23  O   UNL     1     -10.687  16.720  68.903  1.00  0.00    -0.315 OA 
BRANCH  23  24
HETATM   24  C   UNL     1     -10.525  17.301  67.605  1.00  0.00    -0.363 C  
BRANCH  24  25
HETATM   25  C   UNL     1      -9.466  18.409  67.567  1.00  0.00    -0.270 C  
BRANCH  25  26
HETATM   26  N   UNL     1      -9.290  18.946  66.196  1.00  0.00    -0.467 NA 
HETATM   27  C   UNL     1      -8.094  19.784  66.122  1.00  0.00    -0.342 C  
HETATM   28  C   UNL     1     -10.457  19.706  65.735  1.00  0.00    -0.444 C  
ENDBRANCH  25  26
ENDBRANCH  24  25
ENDBRANCH  23  24
ENDBRANCH  19  23
ENDBRANCH   4  17
TORSDOF 7
ENDMDL
MODEL        4
REMARK 921   NORMALIZED FREE ENERGY PREDICTED BY IDOCK:   -6.27 KCAL/MOL
REMARK 922        TOTAL FREE ENERGY PREDICTED BY IDOCK:  -10.83 KCAL/MOL
REMARK 923 INTER-LIGAND FREE ENERGY PREDICTED BY IDOCK:   -9.21 KCAL/MOL
REMARK 924 INTRA-LIGAND FREE ENERGY PREDICTED BY IDOCK:   -1.62 KCAL/MOL
REMARK 927      BINDING AFFINITY PREDICTED BY RF-SCORE:    0.00 PKD
ROOT
HETATM    1  C   UNL     1     -10.402   7.979  67.729  1.00  0.00    -0.294 C  
HETATM    2  C   UNL     1     -10.661   9.149  66.793  1.00  0.00    -0.207 C  
HETATM    3  C   UNL     1     -10.722  10.596  67.287  1.00  0.00    -0.338 C  
HETATM    4  C   UNL     1     -10.575  11.114  68.540  1.00  0.00    -0.219 C  
ENDROOT
BRANCH   3   5
HETATM    5  C   UNL     1     -10.965  11.491  66.111  1.00  0.00    -0.320 A  
HETATM    6  C   UNL     1     -12.143  12.247  66.039  1.00  0.00    -0.229 A  
HETATM    7  C   UNL     1      -9.998  11.640  65.107  1.00  0.00    -0.297 A  
HETATM    8  C   UNL     1     -10.207  12.533  64.050  1.00  0.00    -0.390 A  
HETATM    9  C   UNL     1     -12.346  13.143  64.986  1.00  0.00    -0.511 A  
HETATM   10  C   UNL     1     -11.378  13.288  63.995  1.00  0.00    -0.403 A  
ENDBRANCH   3   5
BRANCH   4  11
HETATM   11  C   UNL     1     -10.356  10.250  69.722  1.00  0.00    -0.287 A  
HETATM   12  C   UNL     1      -9.076   9.766  70.030  1.00  0.00    -0.258 A  
HETATM   13  C   UNL     1      -8.874   8.983  71.169  1.00  0.00    -0.282 A  
HETATM   14  C   UNL     1     -11.235   9.099  71.669  1.00  0.00    -0.447 A  
HETATM   15  C   UNL     1     -11.438   9.883  70.533  1.00  0.00    -0.391 A  
HETATM   16  C   UNL     1      -9.952   8.660  71.994  1.00  0.00    -0.399 A  
ENDBRANCH   4  11
BRANCH   4  17
HETATM   17  C   UNL     1     -10.632  12.590  68.734  1.00  0.00    -0.204 A  
HETATM   18  C   UNL     1     -11.779  14.597  69.486  1.00  0.00    -0.366 A  
HETATM   19  C   UNL     1     -10.646  15.362  69.202  1.00  0.00    -0.248 A  
HETATM   20  C   UNL     1      -9.530  14.735  68.633  1.00  0.00    -0.213 A  
HETATM   21  C   UNL     1      -9.522  13.363  68.392  1.00  0.00    -0.176 A  
HETATM   22  C   UNL     1     -11.772  13.215  69.256  1.00  0.00    -0.376 A  
BRANCH  19  23
HETATM   23  O   UNL     1     -10.716  16.701  69.525  1.00  0.00    -0.316 OA 
BRANCH  23  24
HETATM   24  C   UNL     1      -9.912  17.529  68.679  1.00  0.00    -0.347 C  
BRANCH  24  25
HETATM   25  C   UNL     1     -10.599  17.889  67.357  1.00  0.00    -0.360 C  
BRANCH  25  26
HETATM   26  N   UNL     1     -10.788  19.354  67.224  1.00  0.00    -0.493 NA 
HETATM   27  C   UNL     1     -10.508  19.787  65.856  1.00  0.00    -0.486 C  
HETATM   28  C   UNL     1      -9.960  20.117  68.165  1.00  0.00    -0.350 C  
ENDBRANCH  25  26
ENDBRANCH  24  25
ENDBRANCH  23  24
ENDBRANCH  19  23
ENDBRANCH   4  17
TORSDOF 7
ENDMDL
MODEL        5
REMARK 921   NORMALIZED FREE ENERGY PREDICTED BY IDOCK:   -6.26 KCAL/MOL
REMARK 922        TOTAL FREE ENERGY PREDICTED BY IDOCK:  -10.81 KCAL/MOL
REMARK 923 INTER-LIGAND FREE ENERGY PREDICTED BY IDOCK:   -9.18 KCAL/MOL
REMARK 924 INTRA-LIGAND FREE ENERGY PREDICTED BY IDOCK:   -1.63 KCAL/MOL
REMARK 927      BINDING AFFINITY PREDICTED BY RF-SCORE:    0.00 PKD
ROOT
HETATM    1  C   UNL     1     -10.329   8.021  67.611  1.00  0.00    -0.312 C  
HETATM    2  C   UNL     1     -10.619   9.174  66.663  1.00  0.00    -0.157 C  
HETATM    3  C   UNL     1     -10.705  10.625  67.140  1.00  0.00    -0.327 C  
HETATM    4  C   UNL     1     -10.556  11.162  68.385  1.00  0.00    -0.223 C  
ENDROOT
BRANCH   3   5
HETATM    5  C   UNL     1     -10.976  11.501  65.956  1.00  0.00    -0.316 A  
HETATM    6  C   UNL     1     -10.071  11.529  64.885  1.00  0.00    -0.314 A  
HETATM    7  C   UNL     1     -12.159  12.248  65.867  1.00  0.00    -0.261 A  
HETATM    8  C   UNL     1     -12.433  13.007  64.724  1.00  0.00    -0.485 A  
HETATM    9  C   UNL     1     -10.350  12.282  63.742  1.00  0.00    -0.464 A  
HETATM   10  C   UNL     1     -11.531  13.018  63.660  1.00  0.00    -0.449 A  
ENDBRANCH   3   5
BRANCH   4  11
HETATM   11  C   UNL     1     -10.309  10.318  69.575  1.00  0.00    -0.267 A  
HETATM   12  C   UNL     1     -11.367   9.917  70.404  1.00  0.00    -0.376 A  
HETATM   13  C   UNL     1     -11.127   9.090  71.503  1.00  0.00    -0.419 A  
HETATM   14  C   UNL     1      -8.764   9.108  71.003  1.00  0.00    -0.251 A  
HETATM   15  C   UNL     1      -9.002   9.934  69.903  1.00  0.00    -0.231 A  
HETATM   16  C   UNL     1      -9.827   8.677  71.795  1.00  0.00    -0.365 A  
ENDBRANCH   4  11
BRANCH   4  17
HETATM   17  C   UNL     1     -10.640  12.639  68.561  1.00  0.00    -0.262 A  
HETATM   18  C   UNL     1     -11.810  14.631  69.319  1.00  0.00    -0.357 A  
HETATM   19  C   UNL     1     -10.703  15.416  68.993  1.00  0.00    -0.242 A  
HETATM   20  C   UNL     1      -9.590  14.806  68.402  1.00  0.00    -0.213 A  
HETATM   21  C   UNL     1      -9.558  13.431  68.179  1.00  0.00    -0.222 A  
HETATM   22  C   UNL     1     -11.779  13.247  69.106  1.00  0.00    -0.379 A  
BRANCH  19  23
HETATM   23  O   UNL     1     -10.794  16.758  69.300  1.00  0.00    -0.325 OA 
BRANCH  23  24
HETATM   24  C   UNL     1     -10.617  17.611  68.164  1.00  0.00    -0.356 C  
BRANCH  24  25
HETATM   25  C   UNL     1     -10.148  19.022  68.537  1.00  0.00    -0.400 C  
BRANCH  25  26
HETATM   26  N   UNL     1     -10.004  19.881  67.337  1.00  0.00    -0.395 NA 
HETATM   27  C   UNL     1     -10.521  19.200  66.151  1.00  0.00    -0.477 C  
HETATM   28  C   UNL     1      -8.616  20.296  67.104  1.00  0.00    -0.338 C  
ENDBRANCH  25  26
ENDBRANCH  24  25
ENDBRANCH  23  24
ENDBRANCH  19  23
ENDBRANCH   4  17
TORSDOF 7
ENDMDL
MODEL        6
REMARK 921   NORMALIZED FREE ENERGY PREDICTED BY IDOCK:   -6.18 KCAL/MOL
REMARK 922        TOTAL FREE ENERGY PREDICTED BY IDOCK:  -10.70 KCAL/MOL
REMARK 923 INTER-LIGAND FREE ENERGY PREDICTED BY IDOCK:  -10.23 KCAL/MOL
REMARK 924 INTRA-LIGAND FREE ENERGY PREDICTED BY IDOCK:   -0.46 KCAL/MOL
REMARK 927      BINDING AFFINITY PREDICTED BY RF-SCORE:    0.00 PKD
ROOT
HETATM    1  C   UNL     1     -11.030  15.906  67.217  1.00  0.00    -0.234 C  
HETATM    2  C   UNL     1     -11.575  15.864  68.636  1.00  0.00    -0.383 C  
HETATM    3  C   UNL     1     -11.810  14.552  69.386  1.00  0.00    -0.367 C  
HETATM    4  C   UNL     1     -11.605  13.260  69.001  1.00  0.00    -0.359 C  
ENDROOT
BRANCH   3   5
HETATM    5  C   UNL     1     -12.324  14.871  70.756  1.00  0.00    -0.392 A  
HETATM    6  C   UNL     1     -11.424  15.050  71.816  1.00  0.00    -0.376 A  
HETATM    7  C   UNL     1     -13.694  15.062  70.986  1.00  0.00    -0.417 A  
HETATM    8  C   UNL     1     -14.154  15.429  72.255  1.00  0.00    -0.660 A  
HETATM    9  C   UNL     1     -11.886  15.424  73.081  1.00  0.00    -0.525 A  
HETATM   10  C   UNL     1     -13.249  15.616  73.299  1.00  0.00    -0.666 A  
ENDBRANCH   3   5
BRANCH   4  11
HETATM   11  C   UNL     1     -11.118  12.916  67.646  1.00  0.00    -0.297 A  
HETATM   12  C   UNL     1     -12.020  12.670  66.600  1.00  0.00    -0.382 A  
HETATM   13  C   UNL     1     -11.549  12.383  65.317  1.00  0.00    -0.419 A  
HETATM   14  C   UNL     1      -9.275  12.514  66.120  1.00  0.00    -0.077 A  
HETATM   15  C   UNL     1      -9.743  12.803  67.403  1.00  0.00    -0.197 A  
HETATM   16  C   UNL     1     -10.177  12.316  65.076  1.00  0.00    -0.312 A  
ENDBRANCH   4  11
BRANCH   4  17
HETATM   17  C   UNL     1     -11.874  12.157  69.966  1.00  0.00    -0.383 A  
HETATM   18  C   UNL     1     -13.157  11.185  71.788  1.00  0.00    -0.536 A  
HETATM   19  C   UNL     1     -12.429   9.999  71.680  1.00  0.00    -0.418 A  
HETATM   20  C   UNL     1     -11.390   9.924  70.744  1.00  0.00    -0.430 A  
HETATM   21  C   UNL     1     -11.106  10.994  69.898  1.00  0.00    -0.276 A  
HETATM   22  C   UNL     1     -12.882  12.260  70.933  1.00  0.00    -0.179 A  
BRANCH  19  23
HETATM   23  O   UNL     1     -12.812   8.969  72.513  1.00  0.00    -0.404 OA 
BRANCH  23  24
HETATM   24  C   UNL     1     -11.858   7.904  72.571  1.00  0.00    -0.335 C  
BRANCH  24  25
HETATM   25  C   UNL     1     -12.332   6.629  71.865  1.00  0.00    -0.318 C  
BRANCH  25  26
HETATM   26  N   UNL     1     -11.248   6.017  71.060  1.00  0.00    -0.289 NA 
HETATM   27  C   UNL     1      -9.939   6.459  71.539  1.00  0.00    -0.180 C  
HETATM   28  C   UNL     1     -11.375   6.309  69.628  1.00  0.00    -0.422 C  
ENDBRANCH  25  26
ENDBRANCH  24  25
ENDBRANCH  23  24
ENDBRANCH  19  23
ENDBRANCH   4  17
TORSDOF 7
ENDMDL
MODEL        7
REMARK 921   NORMALIZED FREE ENERGY PREDICTED BY IDOCK:   -6.02 KCAL/MOL
REMARK 922        TOTAL FREE ENERGY PREDICTED BY IDOCK:  -10.47 KCAL/MOL
REMARK 923 INTER-LIGAND FREE ENERGY PREDICTED BY IDOCK:   -8.59 KCAL/MOL
REMARK 924 INTRA-LIGAND FREE ENERGY PREDICTED BY IDOCK:   -1.88 KCAL/MOL
REMARK 927      BINDING AFFINITY PREDICTED BY RF-SCORE:    0.00 PKD
ROOT
HETATM    1  C   UNL     1     -12.245  10.643  69.663  1.00  0.00    -0.277 C  
HETATM    2  C   UNL     1     -12.489  11.896  70.490  1.00  0.00    -0.301 C  
HETATM    3  C   UNL     1     -11.893  13.254  70.115  1.00  0.00    -0.333 C  
HETATM    4  C   UNL     1     -11.096  13.617  69.070  1.00  0.00    -0.295 C  
ENDROOT
BRANCH   3   5
HETATM    5  C   UNL     1     -12.350  14.268  71.118  1.00  0.00    -0.440 A  
HETATM    6  C   UNL     1     -13.708  14.602  71.207  1.00  0.00    -0.439 A  
HETATM    7  C   UNL     1     -11.447  14.846  72.022  1.00  0.00    -0.224 A  
HETATM    8  C   UNL     1     -11.897  15.739  73.000  1.00  0.00    -0.551 A  
HETATM    9  C   UNL     1     -14.157  15.488  72.189  1.00  0.00    -0.621 A  
HETATM   10  C   UNL     1     -13.253  16.054  73.087  1.00  0.00    -0.633 A  
ENDBRANCH   3   5
BRANCH   4  11
HETATM   11  C   UNL     1     -10.612  12.631  68.077  1.00  0.00    -0.233 A  
HETATM   12  C   UNL     1      -9.409  11.939  68.279  1.00  0.00    -0.193 A  
HETATM   13  C   UNL     1      -8.982  10.984  67.353  1.00  0.00    -0.141 A  
HETATM   14  C   UNL     1     -10.915  11.448  65.980  1.00  0.00    -0.286 A  
HETATM   15  C   UNL     1     -11.344  12.401  66.904  1.00  0.00    -0.392 A  
HETATM   16  C   UNL     1      -9.741  10.732  66.210  1.00  0.00    -0.248 A  
ENDBRANCH   4  11
BRANCH   4  17
HETATM   17  C   UNL     1     -10.696  15.044  68.914  1.00  0.00    -0.240 A  
HETATM   18  C   UNL     1      -9.038  16.817  69.038  1.00  0.00    -0.191 A  
HETATM   19  C   UNL     1      -9.947  17.719  68.481  1.00  0.00    -0.370 A  
HETATM   20  C   UNL     1     -11.246  17.280  68.194  1.00  0.00     0.088 A  
HETATM   21  C   UNL     1     -11.623  15.958  68.414  1.00  0.00    -0.317 A  
HETATM   22  C   UNL     1      -9.409  15.484  69.252  1.00  0.00    -0.266 A  
BRANCH  19  23
HETATM   23  O   UNL     1      -9.476  18.992  68.241  1.00  0.00    -0.314 OA 
BRANCH  23  24
HETATM   24  C   UNL     1      -8.984  19.171  66.909  1.00  0.00    -0.305 C  
BRANCH  24  25
HETATM   25  C   UNL     1      -7.809  20.153  66.825  1.00  0.00    -0.303 C  
BRANCH  25  26
HETATM   26  N   UNL     1      -6.658  19.563  66.101  1.00  0.00    -0.200 NA 
HETATM   27  C   UNL     1      -6.342  20.349  64.910  1.00  0.00    -0.291 C  
HETATM   28  C   UNL     1      -6.887  18.163  65.725  1.00  0.00    -0.270 C  
ENDBRANCH  25  26
ENDBRANCH  24  25
ENDBRANCH  23  24
ENDBRANCH  19  23
ENDBRANCH   4  17
TORSDOF 7
ENDMDL
MODEL        8
REMARK 921   NORMALIZED FREE ENERGY PREDICTED BY IDOCK:   -5.71 KCAL/MOL
REMARK 922        TOTAL FREE ENERGY PREDICTED BY IDOCK:  -10.03 KCAL/MOL
REMARK 923 INTER-LIGAND FREE ENERGY PREDICTED BY IDOCK:   -7.87 KCAL/MOL
REMARK 924 INTRA-LIGAND FREE ENERGY PREDICTED BY IDOCK:   -2.16 KCAL/MOL
REMARK 927      BINDING AFFINITY PREDICTED BY RF-SCORE:    0.00 PKD
ROOT
HETATM    1  C   UNL     1     -10.451   3.870  73.573  1.00  0.00    -0.257 C  
HETATM    2  C   UNL     1     -11.277   5.103  73.243  1.00  0.00    -0.389 C  
HETATM    3  C   UNL     1     -11.088   5.894  71.948  1.00  0.00    -0.325 C  
HETATM    4  C   UNL     1     -10.231   5.698  70.904  1.00  0.00    -0.286 C  
ENDROOT
BRANCH   3   5
HETATM    5  C   UNL     1     -12.071   7.023  71.930  1.00  0.00    -0.358 A  
HETATM    6  C   UNL     1     -13.387   6.799  71.501  1.00  0.00    -0.195 A  
HETATM    7  C   UNL     1     -11.717   8.296  72.401  1.00  0.00    -0.463 A  
HETATM    8  C   UNL     1     -12.665   9.324  72.445  1.00  0.00    -0.383 A  
HETATM    9  C   UNL     1     -14.334   7.825  71.552  1.00  0.00    -0.574 A  
HETATM   10  C   UNL     1     -13.974   9.085  72.027  1.00  0.00    -0.472 A  
ENDBRANCH   3   5
BRANCH   4  11
HETATM   11  C   UNL     1      -9.235   4.603  70.905  1.00  0.00    -0.199 A  
HETATM   12  C   UNL     1      -7.933   4.819  71.378  1.00  0.00    -0.101 A  
HETATM   13  C   UNL     1      -7.012   3.768  71.410  1.00  0.00    -0.032 A  
HETATM   14  C   UNL     1      -8.658   2.294  70.434  1.00  0.00    -0.101 A  
HETATM   15  C   UNL     1      -9.580   3.341  70.404  1.00  0.00    -0.211 A  
HETATM   16  C   UNL     1      -7.379   2.505  70.948  1.00  0.00    -0.033 A  
ENDBRANCH   4  11
BRANCH   4  17
HETATM   17  C   UNL     1     -10.295   6.606  69.724  1.00  0.00    -0.226 A  
HETATM   18  C   UNL     1      -9.594   8.607  68.535  1.00  0.00    -0.162 A  
HETATM   19  C   UNL     1     -10.346   8.221  67.424  1.00  0.00    -0.280 A  
HETATM   20  C   UNL     1     -11.110   7.050  67.496  1.00  0.00    -0.231 A  
HETATM   21  C   UNL     1     -11.094   6.251  68.637  1.00  0.00    -0.409 A  
HETATM   22  C   UNL     1      -9.566   7.801  69.681  1.00  0.00    -0.163 A  
BRANCH  19  23
HETATM   23  O   UNL     1     -10.260   9.037  66.315  1.00  0.00    -0.284 OA 
BRANCH  23  24
HETATM   24  C   UNL     1      -9.917  10.390  66.634  1.00  0.00    -0.210 C  
BRANCH  24  25
HETATM   25  C   UNL     1     -10.878  11.416  66.024  1.00  0.00    -0.249 C  
BRANCH  25  26
HETATM   26  N   UNL     1     -11.803  11.968  67.044  1.00  0.00    -0.611 NA 
HETATM   27  C   UNL     1     -11.940  13.415  66.885  1.00  0.00    -0.385 C  
HETATM   28  C   UNL     1     -11.380  11.658  68.414  1.00  0.00    -0.279 C  
ENDBRANCH  25  26
ENDBRANCH  24  25
ENDBRANCH  23  24
ENDBRANCH  19  23
ENDBRANCH   4  17
TORSDOF 7
ENDMDL
MODEL        9
REMARK 921   NORMALIZED FREE ENERGY PREDICTED BY IDOCK:   -5.67 KCAL/MOL
REMARK 922        TOTAL FREE ENERGY PREDICTED BY IDOCK:   -9.97 KCAL/MOL
REMARK 923 INTER-LIGAND FREE ENERGY PREDICTED BY IDOCK:   -7.91 KCAL/MOL
REMARK 924 INTRA-LIGAND FREE ENERGY PREDICTED BY IDOCK:   -2.06 KCAL/MOL
REMARK 927      BINDING AFFINITY PREDICTED BY RF-SCORE:    0.00 PKD
ROOT
HETATM    1  C   UNL     1     -10.246  11.492  64.277  1.00  0.00    -0.361 C  
HETATM    2  C   UNL     1      -9.979  10.127  64.892  1.00  0.00    -0.358 C  
HETATM    3  C   UNL     1      -9.984   9.894  66.404  1.00  0.00    -0.309 C  
HETATM    4  C   UNL     1     -10.207  10.758  67.436  1.00  0.00    -0.241 C  
ENDROOT
BRANCH   3   5
HETATM    5  C   UNL     1      -9.713   8.444  66.664  1.00  0.00    -0.320 A  
HETATM    6  C   UNL     1     -10.767   7.585  67.002  1.00  0.00    -0.367 A  
HETATM    7  C   UNL     1      -8.425   7.913  66.508  1.00  0.00    -0.134 A  
HETATM    8  C   UNL     1      -8.198   6.544  66.685  1.00  0.00    -0.112 A  
HETATM    9  C   UNL     1     -10.540   6.217  67.172  1.00  0.00    -0.374 A  
HETATM   10  C   UNL     1      -9.257   5.696  67.010  1.00  0.00    -0.117 A  
ENDBRANCH   3   5
BRANCH   4  11
HETATM   11  C   UNL     1     -10.456  12.199  67.208  1.00  0.00    -0.238 A  
HETATM   12  C   UNL     1      -9.394  13.115  67.174  1.00  0.00    -0.235 A  
HETATM   13  C   UNL     1      -9.638  14.467  66.921  1.00  0.00    -0.263 A  
HETATM   14  C   UNL     1     -12.009  14.019  66.803  1.00  0.00    -0.473 A  
HETATM   15  C   UNL     1     -11.768  12.668  67.053  1.00  0.00    -0.438 A  
HETATM   16  C   UNL     1     -10.944  14.916  66.725  1.00  0.00    -0.326 A  
ENDBRANCH   4  11
BRANCH   4  17
HETATM   17  C   UNL     1     -10.203  10.245  68.835  1.00  0.00    -0.220 A  
HETATM   18  C   UNL     1     -11.364   9.609  70.873  1.00  0.00    -0.431 A  
HETATM   19  C   UNL     1     -10.166   9.151  71.424  1.00  0.00    -0.332 A  
HETATM   20  C   UNL     1      -8.983   9.296  70.688  1.00  0.00    -0.296 A  
HETATM   21  C   UNL     1      -8.996   9.845  69.407  1.00  0.00    -0.204 A  
HETATM   22  C   UNL     1     -11.384  10.152  69.582  1.00  0.00    -0.289 A  
BRANCH  19  23
HETATM   23  O   UNL     1     -10.250   8.569  72.671  1.00  0.00    -0.284 OA 
BRANCH  23  24
HETATM   24  C   UNL     1     -11.204   7.503  72.734  1.00  0.00    -0.352 C  
BRANCH  24  25
HETATM   25  C   UNL     1     -10.593   6.172  73.188  1.00  0.00    -0.248 C  
BRANCH  25  26
HETATM   26  N   UNL     1     -10.774   5.114  72.166  1.00  0.00    -0.211 NA 
HETATM   27  C   UNL     1      -9.728   4.099  72.285  1.00  0.00    -0.154 C  
HETATM   28  C   UNL     1     -10.792   5.648  70.799  1.00  0.00    -0.224 C  
ENDBRANCH  25  26
ENDBRANCH  24  25
ENDBRANCH  23  24
ENDBRANCH  19  23
ENDBRANCH   4  17
TORSDOF 7
ENDMDL
MODEL       10
REMARK 921   NORMALIZED FREE ENERGY PREDICTED BY IDOCK:   -5.66 KCAL/MOL
REMARK 922        TOTAL FREE ENERGY PREDICTED BY IDOCK:   -9.96 KCAL/MOL
REMARK 923 INTER-LIGAND FREE ENERGY PREDICTED BY IDOCK:   -7.77 KCAL/MOL
REMARK 924 INTRA-LIGAND FREE ENERGY PREDICTED BY IDOCK:   -2.19 KCAL/MOL
REMARK 927      BINDING AFFINITY PREDICTED BY RF-SCORE:    0.00 PKD
ROOT
HETATM    1  C   UNL     1     -10.430  11.693  63.772  1.00  0.00    -0.454 C  
HETATM    2  C   UNL     1     -10.056  10.345  64.368  1.00  0.00    -0.342 C  
HETATM    3  C   UNL     1      -9.921  10.124  65.876  1.00  0.00    -0.334 C  
HETATM    4  C   UNL     1     -10.089  10.987  66.919  1.00  0.00    -0.248 C  
ENDROOT
BRANCH   3   5
HETATM    5  C   UNL     1      -9.570   8.689  66.118  1.00  0.00    -0.305 A  
HETATM    6  C   UNL     1      -8.278   8.226  65.832  1.00  0.00    -0.119 A  
HETATM    7  C   UNL     1     -10.497   7.807  66.692  1.00  0.00    -0.196 A  
HETATM    8  C   UNL     1     -10.134   6.486  66.978  1.00  0.00    -0.236 A  
HETATM    9  C   UNL     1      -7.916   6.909  66.125  1.00  0.00    -0.110 A  
HETATM   10  C   UNL     1      -8.842   6.041  66.700  1.00  0.00    -0.125 A  
ENDBRANCH   3   5
BRANCH   4  11
HETATM   11  C   UNL     1     -10.415  12.415  66.707  1.00  0.00    -0.242 A  
HETATM   12  C   UNL     1      -9.399  13.379  66.624  1.00  0.00    -0.248 A  
HETATM   13  C   UNL     1      -9.717  14.718  66.387  1.00  0.00    -0.311 A  
HETATM   14  C   UNL     1     -12.067  14.162  66.380  1.00  0.00    -0.475 A  
HETATM   15  C   UNL     1     -11.752  12.823  66.616  1.00  0.00    -0.459 A  
HETATM   16  C   UNL     1     -11.050  15.107  66.254  1.00  0.00    -0.309 A  
ENDBRANCH   4  11
BRANCH   4  17
HETATM   17  C   UNL     1      -9.944  10.486  68.315  1.00  0.00    -0.176 A  
HETATM   18  C   UNL     1     -10.901   9.759  70.427  1.00  0.00    -0.370 A  
HETATM   19  C   UNL     1      -9.632   9.418  70.896  1.00  0.00    -0.231 A  
HETATM   20  C   UNL     1      -8.519   9.667  70.082  1.00  0.00    -0.231 A  
HETATM   21  C   UNL     1      -8.669  10.204  68.805  1.00  0.00    -0.138 A  
HETATM   22  C   UNL     1     -11.058  10.289  69.140  1.00  0.00    -0.283 A  
BRANCH  19  23
HETATM   23  O   UNL     1      -9.577   8.839  72.146  1.00  0.00    -0.305 OA 
BRANCH  23  24
HETATM   24  C   UNL     1     -10.855   8.410  72.627  1.00  0.00    -0.238 C  
BRANCH  24  25
HETATM   25  C   UNL     1     -10.951   6.891  72.815  1.00  0.00    -0.280 C  
BRANCH  25  26
HETATM   26  N   UNL     1     -11.863   6.277  71.821  1.00  0.00    -0.312 NA 
HETATM   27  C   UNL     1     -11.159   6.021  70.565  1.00  0.00    -0.314 C  
HETATM   28  C   UNL     1     -13.051   7.099  71.563  1.00  0.00    -0.375 C  
ENDBRANCH  25  26
ENDBRANCH  24  25
ENDBRANCH  23  24
ENDBRANCH  19  23
ENDBRANCH   4  17
TORSDOF 7
ENDMDL
MODEL       11
REMARK 921   NORMALIZED FREE ENERGY PREDICTED BY IDOCK:   -5.63 KCAL/MOL
REMARK 922        TOTAL FREE ENERGY PREDICTED BY IDOCK:   -9.92 KCAL/MOL
REMARK 923 INTER-LIGAND FREE ENERGY PREDICTED BY IDOCK:   -7.91 KCAL/MOL
REMARK 924 INTRA-LIGAND FREE ENERGY PREDICTED BY IDOCK:   -2.01 KCAL/MOL
REMARK 927      BINDING AFFINITY PREDICTED BY RF-SCORE:    0.00 PKD
ROOT
HETATM    1  C   UNL     1     -10.680   7.400  67.896  1.00  0.00    -0.217 C  
HETATM    2  C   UNL     1     -10.271   8.214  66.679  1.00  0.00    -0.329 C  
HETATM    3  C   UNL     1      -9.872   9.687  66.774  1.00  0.00    -0.270 C  
HETATM    4  C   UNL     1      -9.798  10.520  67.851  1.00  0.00    -0.181 C  
ENDROOT
BRANCH   3   5
HETATM    5  C   UNL     1      -9.505  10.171  65.405  1.00  0.00    -0.296 A  
HETATM    6  C   UNL     1      -8.236   9.890  64.881  1.00  0.00    -0.146 A  
HETATM    7  C   UNL     1     -10.437  10.848  64.605  1.00  0.00    -0.384 A  
HETATM    8  C   UNL     1     -10.104  11.233  63.302  1.00  0.00    -0.428 A  
HETATM    9  C   UNL     1      -7.908  10.269  63.577  1.00  0.00    -0.130 A  
HETATM   10  C   UNL     1      -8.842  10.937  62.787  1.00  0.00    -0.304 A  
ENDBRANCH   3   5
BRANCH   4  11
HETATM   11  C   UNL     1     -10.176  10.074  69.211  1.00  0.00    -0.229 A  
HETATM   12  C   UNL     1     -11.484  10.247  69.687  1.00  0.00    -0.297 A  
HETATM   13  C   UNL     1     -11.838   9.789  70.957  1.00  0.00    -0.442 A  
HETATM   14  C   UNL     1      -9.570   9.040  71.322  1.00  0.00    -0.361 A  
HETATM   15  C   UNL     1      -9.215   9.496  70.052  1.00  0.00    -0.264 A  
HETATM   16  C   UNL     1     -10.884   9.176  71.770  1.00  0.00    -0.416 A  
ENDBRANCH   4  11
BRANCH   4  17
HETATM   17  C   UNL     1      -9.323  11.920  67.665  1.00  0.00    -0.183 A  
HETATM   18  C   UNL     1      -7.535  13.559  67.509  1.00  0.00    -0.177 A  
HETATM   19  C   UNL     1      -8.460  14.551  67.178  1.00  0.00    -0.212 A  
HETATM   20  C   UNL     1      -9.822  14.223  67.146  1.00  0.00    -0.252 A  
HETATM   21  C   UNL     1     -10.254  12.923  67.395  1.00  0.00    -0.230 A  
HETATM   22  C   UNL     1      -7.963  12.248  67.749  1.00  0.00    -0.154 A  
BRANCH  19  23
HETATM   23  O   UNL     1      -7.944  15.797  66.890  1.00  0.00    -0.214 OA 
BRANCH  23  24
HETATM   24  C   UNL     1      -8.838  16.616  66.130  1.00  0.00    -0.288 C  
BRANCH  24  25
HETATM   25  C   UNL     1      -8.799  18.093  66.539  1.00  0.00    -0.271 C  
BRANCH  25  26
HETATM   26  N   UNL     1     -10.153  18.605  66.861  1.00  0.00    -0.344 NA 
HETATM   27  C   UNL     1     -10.596  19.562  65.847  1.00  0.00    -0.476 C  
HETATM   28  C   UNL     1     -10.220  19.224  68.189  1.00  0.00    -0.418 C  
ENDBRANCH  25  26
ENDBRANCH  24  25
ENDBRANCH  23  24
ENDBRANCH  19  23
ENDBRANCH   4  17
TORSDOF 7
ENDMDL
MODEL       12
REMARK 921   NORMALIZED FREE ENERGY PREDICTED BY IDOCK:   -5.62 KCAL/MOL
REMARK 922        TOTAL FREE ENERGY PREDICTED BY IDOCK:   -9.91 KCAL/MOL
REMARK 923 INTER-LIGAND FREE ENERGY PREDICTED BY IDOCK:   -7.70 KCAL/MOL
REMARK 924 INTRA-LIGAND FREE ENERGY PREDICTED BY IDOCK:   -2.21 KCAL/MOL
REMARK 927      BINDING AFFINITY PREDICTED BY RF-SCORE:    0.00 PKD
ROOT
HETATM    1  C   UNL     1      -5.364  16.972  69.716  1.00  0.00    -0.180 C  
HETATM    2  C   UNL     1      -6.464  17.803  69.074  1.00  0.00    -0.233 C  
HETATM    3  C   UNL     1      -7.626  17.171  68.305  1.00  0.00    -0.224 C  
HETATM    4  C   UNL     1      -7.914  15.863  68.047  1.00  0.00    -0.141 C  
ENDROOT
BRANCH   3   5
HETATM    5  C   UNL     1      -8.533  18.264  67.831  1.00  0.00    -0.263 A  
HETATM    6  C   UNL     1      -9.541  18.751  68.674  1.00  0.00    -0.432 A  
HETATM    7  C   UNL     1      -8.350  18.859  66.574  1.00  0.00    -0.310 A  
HETATM    8  C   UNL     1      -9.160  19.926  66.171  1.00  0.00    -0.393 A  
HETATM    9  C   UNL     1     -10.344  19.822  68.272  1.00  0.00    -0.536 A  
HETATM   10  C   UNL     1     -10.152  20.411  67.024  1.00  0.00    -0.507 A  
ENDBRANCH   3   5
BRANCH   4  11
HETATM   11  C   UNL     1      -7.023  14.765  68.486  1.00  0.00    -0.108 A  
HETATM   12  C   UNL     1      -7.085  14.271  69.797  1.00  0.00     0.045 A  
HETATM   13  C   UNL     1      -6.266  13.210  70.189  1.00  0.00    -0.039 A  
HETATM   14  C   UNL     1      -5.266  13.167  67.990  1.00  0.00    -0.104 A  
HETATM   15  C   UNL     1      -6.084  14.226  67.596  1.00  0.00    -0.071 A  
HETATM   16  C   UNL     1      -5.365  12.652  69.282  1.00  0.00    -0.071 A  
ENDBRANCH   4  11
BRANCH   4  17
HETATM   17  C   UNL     1      -9.160  15.520  67.306  1.00  0.00    -0.215 A  
HETATM   18  C   UNL     1     -10.381  15.189  65.230  1.00  0.00    -0.425 A  
HETATM   19  C   UNL     1     -11.493  14.740  65.944  1.00  0.00    -0.319 A  
HETATM   20  C   UNL     1     -11.442  14.737  67.344  1.00  0.00    -0.376 A  
HETATM   21  C   UNL     1     -10.291  15.130  68.023  1.00  0.00    -0.240 A  
HETATM   22  C   UNL     1      -9.217  15.575  65.907  1.00  0.00    -0.305 A  
BRANCH  19  23
HETATM   23  O   UNL     1     -12.569  14.313  65.196  1.00  0.00    -0.513 OA 
BRANCH  23  24
HETATM   24  C   UNL     1     -12.189  13.614  64.006  1.00  0.00    -0.390 C  
BRANCH  24  25
HETATM   25  C   UNL     1     -12.396  12.098  64.104  1.00  0.00    -0.409 C  
BRANCH  25  26
HETATM   26  N   UNL     1     -11.103  11.373  64.119  1.00  0.00    -0.347 NA 
HETATM   27  C   UNL     1     -10.602  11.242  65.486  1.00  0.00    -0.246 C  
HETATM   28  C   UNL     1     -10.087  12.015  63.278  1.00  0.00    -0.345 C  
ENDBRANCH  25  26
ENDBRANCH  24  25
ENDBRANCH  23  24
ENDBRANCH  19  23
ENDBRANCH   4  17
TORSDOF 7
ENDMDL
MODEL       13
REMARK 921   NORMALIZED FREE ENERGY PREDICTED BY IDOCK:   -5.60 KCAL/MOL
REMARK 922        TOTAL FREE ENERGY PREDICTED BY IDOCK:   -9.89 KCAL/MOL
REMARK 923 INTER-LIGAND FREE ENERGY PREDICTED BY IDOCK:   -7.77 KCAL/MOL
REMARK 924 INTRA-LIGAND FREE ENERGY PREDICTED BY IDOCK:   -2.11 KCAL/MOL
REMARK 927      BINDING AFFINITY PREDICTED BY RF-SCORE:    0.00 PKD
ROOT
HETATM    1  C   UNL     1     -10.073   7.802  73.320  1.00  0.00    -0.374 C  
HETATM    2  C   UNL     1      -8.931   8.002  72.336  1.00  0.00    -0.236 C  
HETATM    3  C   UNL     1      -9.155   8.507  70.910  1.00  0.00    -0.208 C  
HETATM    4  C   UNL     1     -10.303   8.857  70.262  1.00  0.00    -0.235 C  
ENDROOT
BRANCH   3   5
HETATM    5  C   UNL     1      -7.827   8.612  70.226  1.00  0.00    -0.097 A  
HETATM    6  C   UNL     1      -7.077   9.791  70.335  1.00  0.00    -0.146 A  
HETATM    7  C   UNL     1      -7.286   7.522  69.530  1.00  0.00    -0.082 A  
HETATM    8  C   UNL     1      -6.013   7.610  68.956  1.00  0.00    -0.034 A  
HETATM    9  C   UNL     1      -5.803   9.875  69.767  1.00  0.00    -0.042 A  
HETATM   10  C   UNL     1      -5.270   8.784  69.081  1.00  0.00    -0.036 A  
ENDBRANCH   3   5
BRANCH   4  11
HETATM   11  C   UNL     1     -11.631   8.742  70.906  1.00  0.00    -0.320 A  
HETATM   12  C   UNL     1     -12.256   9.865  71.469  1.00  0.00    -0.505 A  
HETATM   13  C   UNL     1     -13.525   9.752  72.041  1.00  0.00    -0.498 A  
HETATM   14  C   UNL     1     -13.534   7.385  71.559  1.00  0.00    -0.445 A  
HETATM   15  C   UNL     1     -12.266   7.496  70.986  1.00  0.00    -0.288 A  
HETATM   16  C   UNL     1     -14.167   8.514  72.076  1.00  0.00    -0.535 A  
ENDBRANCH   4  11
BRANCH   4  17
HETATM   17  C   UNL     1     -10.229   9.374  68.866  1.00  0.00    -0.215 A  
HETATM   18  C   UNL     1      -9.962  11.197  67.281  1.00  0.00    -0.211 A  
HETATM   19  C   UNL     1      -9.963  10.288  66.221  1.00  0.00    -0.235 A  
HETATM   20  C   UNL     1     -10.150   8.927  66.496  1.00  0.00    -0.356 A  
HETATM   21  C   UNL     1     -10.291   8.471  67.804  1.00  0.00    -0.298 A  
HETATM   22  C   UNL     1     -10.093  10.742  68.599  1.00  0.00    -0.194 A  
BRANCH  19  23
HETATM   23  O   UNL     1      -9.759  10.816  64.964  1.00  0.00    -0.226 OA 
BRANCH  23  24
HETATM   24  C   UNL     1     -10.977  11.119  64.274  1.00  0.00    -0.205 C  
BRANCH  24  25
HETATM   25  C   UNL     1     -10.909  12.427  63.477  1.00  0.00    -0.438 C  
BRANCH  25  26
HETATM   26  N   UNL     1     -11.544  13.546  64.213  1.00  0.00    -0.392 NA 
HETATM   27  C   UNL     1     -10.529  14.381  64.856  1.00  0.00    -0.423 C  
HETATM   28  C   UNL     1     -12.512  13.085  65.215  1.00  0.00    -0.499 C  
ENDBRANCH  25  26
ENDBRANCH  24  25
ENDBRANCH  23  24
ENDBRANCH  19  23
ENDBRANCH   4  17
TORSDOF 7
ENDMDL
MODEL       14
REMARK 921   NORMALIZED FREE ENERGY PREDICTED BY IDOCK:   -5.53 KCAL/MOL
REMARK 922        TOTAL FREE ENERGY PREDICTED BY IDOCK:   -9.78 KCAL/MOL
REMARK 923 INTER-LIGAND FREE ENERGY PREDICTED BY IDOCK:   -8.28 KCAL/MOL
REMARK 924 INTRA-LIGAND FREE ENERGY PREDICTED BY IDOCK:   -1.50 KCAL/MOL
REMARK 927      BINDING AFFINITY PREDICTED BY RF-SCORE:    0.00 PKD
ROOT
HETATM    1  C   UNL     1      -8.761   9.496  63.780  1.00  0.00    -0.237 C  
HETATM    2  C   UNL     1      -9.593  10.761  63.923  1.00  0.00    -0.339 C  
HETATM    3  C   UNL     1     -10.194  11.200  65.259  1.00  0.00    -0.337 C  
HETATM    4  C   UNL     1     -10.130  10.625  66.494  1.00  0.00    -0.275 C  
ENDROOT
BRANCH   3   5
HETATM    5  C   UNL     1     -10.925  12.491  65.052  1.00  0.00    -0.329 A  
HETATM    6  C   UNL     1     -12.323  12.526  65.147  1.00  0.00    -0.496 A  
HETATM    7  C   UNL     1     -10.228  13.686  64.829  1.00  0.00    -0.363 A  
HETATM    8  C   UNL     1     -10.919  14.897  64.707  1.00  0.00    -0.390 A  
HETATM    9  C   UNL     1     -13.011  13.737  65.032  1.00  0.00    -0.213 A  
HETATM   10  C   UNL     1     -12.309  14.922  64.815  1.00  0.00    -0.241 A  
ENDBRANCH   3   5
BRANCH   4  11
HETATM   11  C   UNL     1      -9.433   9.339  66.722  1.00  0.00    -0.228 A  
HETATM   12  C   UNL     1     -10.123   8.122  66.628  1.00  0.00    -0.344 A  
HETATM   13  C   UNL     1      -9.447   6.913  66.808  1.00  0.00    -0.204 A  
HETATM   14  C   UNL     1      -7.401   8.121  67.247  1.00  0.00    -0.089 A  
HETATM   15  C   UNL     1      -8.075   9.330  67.066  1.00  0.00    -0.112 A  
HETATM   16  C   UNL     1      -8.084   6.914  67.107  1.00  0.00    -0.117 A  
ENDBRANCH   4  11
BRANCH   4  17
HETATM   17  C   UNL     1     -10.776  11.304  67.653  1.00  0.00    -0.270 A  
HETATM   18  C   UNL     1     -12.374  11.334  69.484  1.00  0.00    -0.243 A  
HETATM   19  C   UNL     1     -11.876  12.566  69.911  1.00  0.00    -0.303 A  
HETATM   20  C   UNL     1     -10.861  13.181  69.166  1.00  0.00    -0.139 A  
HETATM   21  C   UNL     1     -10.319  12.563  68.042  1.00  0.00    -0.226 A  
HETATM   22  C   UNL     1     -11.825  10.703  68.360  1.00  0.00    -0.043 A  
BRANCH  19  23
HETATM   23  O   UNL     1     -12.427  13.082  71.065  1.00  0.00    -0.368 OA 
BRANCH  23  24
HETATM   24  C   UNL     1     -13.253  14.227  70.834  1.00  0.00    -0.259 C  
BRANCH  24  25
HETATM   25  C   UNL     1     -13.876  14.791  72.117  1.00  0.00    -0.475 C  
BRANCH  25  26
HETATM   26  N   UNL     1     -13.025  15.847  72.716  1.00  0.00    -0.469 NA 
HETATM   27  C   UNL     1     -11.902  16.165  71.835  1.00  0.00    -0.525 C  
HETATM   28  C   UNL     1     -12.524  15.480  74.045  1.00  0.00    -0.653 C  
ENDBRANCH  25  26
ENDBRANCH  24  25
ENDBRANCH  23  24
ENDBRANCH  19  23
ENDBRANCH   4  17
TORSDOF 7
ENDMDL
MODEL       15
REMARK 921   NORMALIZED FREE ENERGY PREDICTED BY IDOCK:   -5.47 KCAL/MOL
REMARK 922        TOTAL FREE ENERGY PREDICTED BY IDOCK:   -9.70 KCAL/MOL
REMARK 923 INTER-LIGAND FREE ENERGY PREDICTED BY IDOCK:   -8.54 KCAL/MOL
REMARK 924 INTRA-LIGAND FREE ENERGY PREDICTED BY IDOCK:   -1.16 KCAL/MOL
REMARK 927      BINDING AFFINITY PREDICTED BY RF-SCORE:    0.00 PKD
ROOT
HETATM    1  C   UNL     1     -12.346   9.628  71.000  1.00  0.00    -0.396 C  
HETATM    2  C   UNL     1     -12.603  11.102  71.273  1.00  0.00    -0.503 C  
HETATM    3  C   UNL     1     -11.993  12.212  70.416  1.00  0.00    -0.360 C  
HETATM    4  C   UNL     1     -11.171  12.146  69.329  1.00  0.00    -0.288 C  
ENDROOT
BRANCH   3   5
HETATM    5  C   UNL     1     -12.466  13.533  70.940  1.00  0.00    -0.448 A  
HETATM    6  C   UNL     1     -13.822  13.720  71.244  1.00  0.00    -0.027 A  
HETATM    7  C   UNL     1     -11.562  14.573  71.197  1.00  0.00    -0.201 A  
HETATM    8  C   UNL     1     -12.007  15.777  71.752  1.00  0.00    -0.547 A  
HETATM    9  C   UNL     1     -14.263  14.921  71.805  1.00  0.00    -0.635 A  
HETATM   10  C   UNL     1     -13.356  15.947  72.062  1.00  0.00    -0.348 A  
ENDBRANCH   3   5
BRANCH   4  11
HETATM   11  C   UNL     1     -10.671  10.856  68.804  1.00  0.00    -0.243 A  
HETATM   12  C   UNL     1      -9.673  10.143  69.483  1.00  0.00    -0.251 A  
HETATM   13  C   UNL     1      -9.235   8.908  68.999  1.00  0.00    -0.140 A  
HETATM   14  C   UNL     1     -10.736   9.113  67.117  1.00  0.00    -0.213 A  
HETATM   15  C   UNL     1     -11.176  10.346  67.600  1.00  0.00    -0.287 A  
HETATM   16  C   UNL     1      -9.775   8.389  67.822  1.00  0.00    -0.199 A  
ENDBRANCH   4  11
BRANCH   4  17
HETATM   17  C   UNL     1     -10.762  13.404  68.643  1.00  0.00    -0.275 A  
HETATM   18  C   UNL     1      -9.067  15.018  67.986  1.00  0.00    -0.178 A  
HETATM   19  C   UNL     1     -10.009  15.712  67.226  1.00  0.00    -0.236 A  
HETATM   20  C   UNL     1     -11.339  15.271  67.226  1.00  0.00    -0.269 A  
HETATM   21  C   UNL     1     -11.717  14.132  67.934  1.00  0.00    -0.402 A  
HETATM   22  C   UNL     1      -9.440  13.866  68.690  1.00  0.00    -0.123 A  
BRANCH  19  23
HETATM   23  O   UNL     1      -9.540  16.793  66.510  1.00  0.00    -0.241 OA 
BRANCH  23  24
HETATM   24  C   UNL     1     -10.583  17.647  66.027  1.00  0.00    -0.220 C  
BRANCH  24  25
HETATM   25  C   UNL     1     -10.516  19.066  66.601  1.00  0.00    -0.437 C  
BRANCH  25  26
HETATM   26  N   UNL     1      -9.415  19.203  67.585  1.00  0.00    -0.299 NA 
HETATM   27  C   UNL     1      -9.937  19.612  68.888  1.00  0.00    -0.438 C  
HETATM   28  C   UNL     1      -8.382  20.149  67.146  1.00  0.00    -0.337 C  
ENDBRANCH  25  26
ENDBRANCH  24  25
ENDBRANCH  23  24
ENDBRANCH  19  23
ENDBRANCH   4  17
TORSDOF 7
ENDMDL
MODEL       16
REMARK 921   NORMALIZED FREE ENERGY PREDICTED BY IDOCK:   -5.46 KCAL/MOL
REMARK 922        TOTAL FREE ENERGY PREDICTED BY IDOCK:   -9.68 KCAL/MOL
REMARK 923 INTER-LIGAND FREE ENERGY PREDICTED BY IDOCK:   -7.64 KCAL/MOL
REMARK 924 INTRA-LIGAND FREE ENERGY PREDICTED BY IDOCK:   -2.04 KCAL/MOL
REMARK 927      BINDING AFFINITY PREDICTED BY RF-SCORE:    0.00 PKD
ROOT
HETATM    1  C   UNL     1     -10.452  11.658  63.912  1.00  0.00    -0.433 C  
HETATM    2  C   UNL     1     -10.126  10.283  64.473  1.00  0.00    -0.286 C  
HETATM    3  C   UNL     1      -9.983  10.022  65.974  1.00  0.00    -0.334 C  
HETATM    4  C   UNL     1     -10.104  10.866  67.038  1.00  0.00    -0.244 C  
ENDROOT
BRANCH   3   5
HETATM    5  C   UNL     1      -9.688   8.568  66.179  1.00  0.00    -0.259 A  
HETATM    6  C   UNL     1      -8.425   8.058  65.849  1.00  0.00    -0.154 A  
HETATM    7  C   UNL     1     -10.637   7.715  66.761  1.00  0.00    -0.256 A  
HETATM    8  C   UNL     1     -10.324   6.375  67.012  1.00  0.00    -0.307 A  
HETATM    9  C   UNL     1      -8.112   6.720  66.108  1.00  0.00    -0.115 A  
HETATM   10  C   UNL     1      -9.059   5.881  66.691  1.00  0.00    -0.138 A  
ENDBRANCH   3   5
BRANCH   4  11
HETATM   11  C   UNL     1     -10.374  12.311  66.862  1.00  0.00    -0.236 A  
HETATM   12  C   UNL     1     -11.689  12.791  66.778  1.00  0.00    -0.459 A  
HETATM   13  C   UNL     1     -11.933  14.160  66.650  1.00  0.00    -0.470 A  
HETATM   14  C   UNL     1      -9.554  14.583  66.620  1.00  0.00    -0.291 A  
HETATM   15  C   UNL     1      -9.309  13.215  66.750  1.00  0.00    -0.244 A  
HETATM   16  C   UNL     1     -10.865  15.056  66.583  1.00  0.00    -0.318 A  
ENDBRANCH   4  11
BRANCH   4  17
HETATM   17  C   UNL     1      -9.963  10.328  68.420  1.00  0.00    -0.173 A  
HETATM   18  C   UNL     1      -8.600   9.519  70.263  1.00  0.00    -0.258 A  
HETATM   19  C   UNL     1      -9.731   9.439  71.077  1.00  0.00    -0.223 A  
HETATM   20  C   UNL     1     -10.982   9.756  70.532  1.00  0.00    -0.384 A  
HETATM   21  C   UNL     1     -11.102  10.190  69.213  1.00  0.00    -0.270 A  
HETATM   22  C   UNL     1      -8.714   9.964  68.940  1.00  0.00    -0.140 A  
BRANCH  19  23
HETATM   23  O   UNL     1      -9.517   9.058  72.385  1.00  0.00    -0.270 OA 
BRANCH  23  24
HETATM   24  C   UNL     1      -9.395   7.641  72.548  1.00  0.00    -0.163 C  
BRANCH  24  25
HETATM   25  C   UNL     1     -10.646   6.993  73.153  1.00  0.00    -0.318 C  
BRANCH  25  26
HETATM   26  N   UNL     1     -11.377   6.180  72.151  1.00  0.00    -0.285 NA 
HETATM   27  C   UNL     1     -10.498   5.824  71.038  1.00  0.00    -0.244 C  
HETATM   28  C   UNL     1     -12.573   6.858  71.640  1.00  0.00    -0.367 C  
ENDBRANCH  25  26
ENDBRANCH  24  25
ENDBRANCH  23  24
ENDBRANCH  19  23
ENDBRANCH   4  17
TORSDOF 7
ENDMDL
MODEL       17
REMARK 921   NORMALIZED FREE ENERGY PREDICTED BY IDOCK:   -5.46 KCAL/MOL
REMARK 922        TOTAL FREE ENERGY PREDICTED BY IDOCK:   -9.68 KCAL/MOL
REMARK 923 INTER-LIGAND FREE ENERGY PREDICTED BY IDOCK:   -7.55 KCAL/MOL
REMARK 924 INTRA-LIGAND FREE ENERGY PREDICTED BY IDOCK:   -2.12 KCAL/MOL
REMARK 927      BINDING AFFINITY PREDICTED BY RF-SCORE:    0.00 PKD
ROOT
HETATM    1  C   UNL     1     -10.433  11.624  64.586  1.00  0.00    -0.354 C  
HETATM    2  C   UNL     1     -10.129  10.215  65.069  1.00  0.00    -0.305 C  
HETATM    3  C   UNL     1     -10.037   9.859  66.554  1.00  0.00    -0.298 C  
HETATM    4  C   UNL     1     -10.191  10.636  67.665  1.00  0.00    -0.229 C  
ENDROOT
BRANCH   3   5
HETATM    5  C   UNL     1      -9.752   8.394  66.677  1.00  0.00    -0.320 A  
HETATM    6  C   UNL     1     -10.776   7.510  67.043  1.00  0.00    -0.367 A  
HETATM    7  C   UNL     1      -8.486   7.877  66.365  1.00  0.00    -0.139 A  
HETATM    8  C   UNL     1      -8.252   6.499  66.416  1.00  0.00    -0.116 A  
HETATM    9  C   UNL     1     -10.542   6.134  67.086  1.00  0.00    -0.374 A  
HETATM   10  C   UNL     1      -9.282   5.628  66.770  1.00  0.00    -0.130 A  
ENDBRANCH   3   5
BRANCH   4  11
HETATM   11  C   UNL     1     -10.452  12.090  67.572  1.00  0.00    -0.234 A  
HETATM   12  C   UNL     1      -9.395  13.011  67.585  1.00  0.00    -0.202 A  
HETATM   13  C   UNL     1      -9.650  14.379  67.459  1.00  0.00    -0.215 A  
HETATM   14  C   UNL     1     -12.022  13.929  67.375  1.00  0.00    -0.436 A  
HETATM   15  C   UNL     1     -11.769  12.562  67.499  1.00  0.00    -0.439 A  
HETATM   16  C   UNL     1     -10.963  14.835  67.343  1.00  0.00    -0.313 A  
ENDBRANCH   4  11
BRANCH   4  17
HETATM   17  C   UNL     1     -10.098  10.011  69.014  1.00  0.00    -0.211 A  
HETATM   18  C   UNL     1      -8.797   9.100  70.855  1.00  0.00    -0.292 A  
HETATM   19  C   UNL     1      -9.958   8.954  71.616  1.00  0.00    -0.327 A  
HETATM   20  C   UNL     1     -11.191   9.291  71.042  1.00  0.00    -0.392 A  
HETATM   21  C   UNL     1     -11.265   9.808  69.750  1.00  0.00    -0.242 A  
HETATM   22  C   UNL     1      -8.865   9.629  69.560  1.00  0.00    -0.197 A  
BRANCH  19  23
HETATM   23  O   UNL     1      -9.791   8.492  72.904  1.00  0.00    -0.225 OA 
BRANCH  23  24
HETATM   24  C   UNL     1     -10.718   7.460  73.259  1.00  0.00    -0.391 C  
BRANCH  24  25
HETATM   25  C   UNL     1     -10.082   6.067  73.306  1.00  0.00    -0.193 C  
BRANCH  25  26
HETATM   26  N   UNL     1     -10.774   5.121  72.398  1.00  0.00    -0.220 NA 
HETATM   27  C   UNL     1     -10.399   3.742  72.706  1.00  0.00    -0.162 C  
HETATM   28  C   UNL     1     -10.508   5.402  70.983  1.00  0.00    -0.232 C  
ENDBRANCH  25  26
ENDBRANCH  24  25
ENDBRANCH  23  24
ENDBRANCH  19  23
ENDBRANCH   4  17
TORSDOF 7
ENDMDL
MODEL       18
REMARK 921   NORMALIZED FREE ENERGY PREDICTED BY IDOCK:   -5.45 KCAL/MOL
REMARK 922        TOTAL FREE ENERGY PREDICTED BY IDOCK:   -9.66 KCAL/MOL
REMARK 923 INTER-LIGAND FREE ENERGY PREDICTED BY IDOCK:   -7.77 KCAL/MOL
REMARK 924 INTRA-LIGAND FREE ENERGY PREDICTED BY IDOCK:   -1.89 KCAL/MOL
REMARK 927      BINDING AFFINITY PREDICTED BY RF-SCORE:    0.00 PKD
ROOT
HETATM    1  C   UNL     1      -7.016  17.606  66.219  1.00  0.00    -0.326 C  
HETATM    2  C   UNL     1      -7.011  16.204  66.807  1.00  0.00    -0.107 C  
HETATM    3  C   UNL     1      -8.169  15.662  67.646  1.00  0.00    -0.165 C  
HETATM    4  C   UNL     1      -9.344  16.245  68.019  1.00  0.00    -0.214 C  
ENDROOT
BRANCH   3   5
HETATM    5  C   UNL     1      -7.853  14.252  68.041  1.00  0.00    -0.143 A  
HETATM    6  C   UNL     1      -8.290  13.187  67.241  1.00  0.00    -0.182 A  
HETATM    7  C   UNL     1      -7.066  13.978  69.169  1.00  0.00    -0.085 A  
HETATM    8  C   UNL     1      -6.720  12.661  69.487  1.00  0.00     0.027 A  
HETATM    9  C   UNL     1      -7.937  11.873  67.557  1.00  0.00    -0.155 A  
HETATM   10  C   UNL     1      -7.150  11.610  68.677  1.00  0.00    -0.099 A  
ENDBRANCH   3   5
BRANCH   4  11
HETATM   11  C   UNL     1      -9.672  17.643  67.660  1.00  0.00    -0.277 A  
HETATM   12  C   UNL     1      -9.338  18.701  68.518  1.00  0.00    -0.379 A  
HETATM   13  C   UNL     1      -9.618  20.020  68.152  1.00  0.00    -0.423 A  
HETATM   14  C   UNL     1     -10.630  19.238  66.103  1.00  0.00    -0.549 A  
HETATM   15  C   UNL     1     -10.350  17.920  66.465  1.00  0.00    -0.362 A  
HETATM   16  C   UNL     1     -10.254  20.287  66.940  1.00  0.00    -0.504 A  
ENDBRANCH   4  11
BRANCH   4  17
HETATM   17  C   UNL     1     -10.334  15.458  68.808  1.00  0.00    -0.229 A  
HETATM   18  C   UNL     1     -11.416  14.891  70.910  1.00  0.00    -0.305 A  
HETATM   19  C   UNL     1     -12.303  14.050  70.237  1.00  0.00    -0.358 A  
HETATM   20  C   UNL     1     -12.160  13.881  68.854  1.00  0.00    -0.355 A  
HETATM   21  C   UNL     1     -11.180  14.571  68.143  1.00  0.00    -0.301 A  
HETATM   22  C   UNL     1     -10.436  15.596  70.198  1.00  0.00    -0.316 A  
BRANCH  19  23
HETATM   23  O   UNL     1     -13.279  13.451  71.006  1.00  0.00    -0.174 OA 
BRANCH  23  24
HETATM   24  C   UNL     1     -12.803  12.319  71.743  1.00  0.00    -0.254 C  
BRANCH  24  25
HETATM   25  C   UNL     1     -12.635  11.064  70.880  1.00  0.00    -0.391 C  
BRANCH  25  26
HETATM   26  N   UNL     1     -12.458   9.850  71.714  1.00  0.00    -0.398 NA 
HETATM   27  C   UNL     1     -11.637   8.862  71.017  1.00  0.00    -0.293 C  
HETATM   28  C   UNL     1     -13.736   9.245  72.105  1.00  0.00    -0.453 C  
ENDBRANCH  25  26
ENDBRANCH  24  25
ENDBRANCH  23  24
ENDBRANCH  19  23
ENDBRANCH   4  17
TORSDOF 7
ENDMDL
MODEL       19
REMARK 921   NORMALIZED FREE ENERGY PREDICTED BY IDOCK:   -5.43 KCAL/MOL
REMARK 922        TOTAL FREE ENERGY PREDICTED BY IDOCK:   -9.63 KCAL/MOL
REMARK 923 INTER-LIGAND FREE ENERGY PREDICTED BY IDOCK:   -7.22 KCAL/MOL
REMARK 924 INTRA-LIGAND FREE ENERGY PREDICTED BY IDOCK:   -2.41 KCAL/MOL
REMARK 927      BINDING AFFINITY PREDICTED BY RF-SCORE:    0.00 PKD
ROOT
HETATM    1  C   UNL     1     -10.248  20.114  66.849  1.00  0.00    -0.566 C  
HETATM    2  C   UNL     1     -10.742  18.756  67.323  1.00  0.00    -0.490 C  
HETATM    3  C   UNL     1      -9.788  17.616  67.683  1.00  0.00    -0.294 C  
HETATM    4  C   UNL     1      -8.425  17.559  67.665  1.00  0.00    -0.215 C  
ENDROOT
BRANCH   3   5
HETATM    5  C   UNL     1     -10.598  16.440  68.132  1.00  0.00    -0.318 A  
HETATM    6  C   UNL     1     -11.021  15.483  67.199  1.00  0.00    -0.295 A  
HETATM    7  C   UNL     1     -10.888  16.240  69.489  1.00  0.00    -0.342 A  
HETATM    8  C   UNL     1     -11.585  15.100  69.904  1.00  0.00    -0.329 A  
HETATM    9  C   UNL     1     -11.711  14.342  67.616  1.00  0.00    -0.421 A  
HETATM   10  C   UNL     1     -11.991  14.150  68.968  1.00  0.00    -0.376 A  
ENDBRANCH   3   5
BRANCH   4  11
HETATM   11  C   UNL     1      -7.601  18.699  67.205  1.00  0.00    -0.233 A  
HETATM   12  C   UNL     1      -7.186  18.792  65.869  1.00  0.00    -0.270 A  
HETATM   13  C   UNL     1      -6.440  19.891  65.438  1.00  0.00    -0.297 A  
HETATM   14  C   UNL     1      -6.454  20.784  67.682  1.00  0.00    -0.366 A  
HETATM   15  C   UNL     1      -7.201  19.687  68.115  1.00  0.00    -0.337 A  
HETATM   16  C   UNL     1      -6.084  20.891  66.342  1.00  0.00    -0.305 A  
ENDBRANCH   4  11
BRANCH   4  17
HETATM   17  C   UNL     1      -7.738  16.318  68.122  1.00  0.00    -0.159 A  
HETATM   18  C   UNL     1      -6.732  14.961  69.870  1.00  0.00    -0.178 A  
HETATM   19  C   UNL     1      -6.561  13.909  68.968  1.00  0.00    -0.107 A  
HETATM   20  C   UNL     1      -6.935  14.096  67.631  1.00  0.00    -0.200 A  
HETATM   21  C   UNL     1      -7.511  15.291  67.206  1.00  0.00    -0.236 A  
HETATM   22  C   UNL     1      -7.321  16.161  69.450  1.00  0.00    -0.196 A  
BRANCH  19  23
HETATM   23  O   UNL     1      -6.038  12.742  69.483  1.00  0.00    -0.102 OA 
BRANCH  23  24
HETATM   24  C   UNL     1      -6.243  11.608  68.633  1.00  0.00    -0.053 C  
BRANCH  24  25
HETATM   25  C   UNL     1      -7.292  10.630  69.173  1.00  0.00    -0.111 C  
BRANCH  25  26
HETATM   26  N   UNL     1      -8.370  10.387  68.185  1.00  0.00    -0.114 NA 
HETATM   27  C   UNL     1      -7.848  10.477  66.822  1.00  0.00    -0.121 C  
HETATM   28  C   UNL     1      -9.499  11.310  68.345  1.00  0.00    -0.192 C  
ENDBRANCH  25  26
ENDBRANCH  24  25
ENDBRANCH  23  24
ENDBRANCH  19  23
ENDBRANCH   4  17
TORSDOF 7
ENDMDL
MODEL       20
REMARK 921   NORMALIZED FREE ENERGY PREDICTED BY IDOCK:   -5.42 KCAL/MOL
REMARK 922        TOTAL FREE ENERGY PREDICTED BY IDOCK:   -9.63 KCAL/MOL
REMARK 923 INTER-LIGAND FREE ENERGY PREDICTED BY IDOCK:   -7.63 KCAL/MOL
REMARK 924 INTRA-LIGAND FREE ENERGY PREDICTED BY IDOCK:   -2.00 KCAL/MOL
REMARK 927      BINDING AFFINITY PREDICTED BY RF-SCORE:    0.00 PKD
ROOT
HETATM    1  C   UNL     1     -10.628   3.775  73.657  1.00  0.00    -0.285 C  
HETATM    2  C   UNL     1     -11.363   5.052  73.279  1.00  0.00    -0.393 C  
HETATM    3  C   UNL     1     -11.087   5.801  71.974  1.00  0.00    -0.318 C  
HETATM    4  C   UNL     1     -10.218   5.528  70.960  1.00  0.00    -0.287 C  
ENDROOT
BRANCH   3   5
HETATM    5  C   UNL     1     -11.994   6.991  71.906  1.00  0.00    -0.355 A  
HETATM    6  C   UNL     1     -11.498   8.267  72.205  1.00  0.00    -0.427 A  
HETATM    7  C   UNL     1     -13.324   6.860  71.482  1.00  0.00    -0.303 A  
HETATM    8  C   UNL     1     -14.141   7.988  71.355  1.00  0.00    -0.413 A  
HETATM    9  C   UNL     1     -12.313   9.394  72.071  1.00  0.00    -0.418 A  
HETATM   10  C   UNL     1     -13.633   9.255  71.643  1.00  0.00    -0.448 A  
ENDBRANCH   3   5
BRANCH   4  11
HETATM   11  C   UNL     1      -9.295   4.371  71.011  1.00  0.00    -0.216 A  
HETATM   12  C   UNL     1      -8.044   4.478  71.636  1.00  0.00    -0.101 A  
HETATM   13  C   UNL     1      -7.198   3.369  71.711  1.00  0.00    -0.043 A  
HETATM   14  C   UNL     1      -8.807   2.054  70.480  1.00  0.00    -0.127 A  
HETATM   15  C   UNL     1      -9.655   3.160  70.405  1.00  0.00    -0.192 A  
HETATM   16  C   UNL     1      -7.585   2.156  71.143  1.00  0.00    -0.032 A  
ENDBRANCH   4  11
BRANCH   4  17
HETATM   17  C   UNL     1     -10.190   6.411  69.760  1.00  0.00    -0.226 A  
HETATM   18  C   UNL     1     -11.015   7.049  67.564  1.00  0.00    -0.299 A  
HETATM   19  C   UNL     1     -10.195   8.179  67.574  1.00  0.00    -0.243 A  
HETATM   20  C   UNL     1      -9.338   8.385  68.663  1.00  0.00    -0.143 A  
HETATM   21  C   UNL     1      -9.326   7.507  69.744  1.00  0.00    -0.150 A  
HETATM   22  C   UNL     1     -11.014   6.169  68.654  1.00  0.00    -0.415 A  
BRANCH  19  23
HETATM   23  O   UNL     1     -10.311   9.027  66.493  1.00  0.00    -0.264 OA 
BRANCH  23  24
HETATM   24  C   UNL     1     -10.066  10.399  66.822  1.00  0.00    -0.214 C  
BRANCH  24  25
HETATM   25  C   UNL     1      -9.673  11.250  65.609  1.00  0.00    -0.230 C  
BRANCH  25  26
HETATM   26  N   UNL     1     -10.298  10.742  64.363  1.00  0.00    -0.362 NA 
HETATM   27  C   UNL     1      -9.274  10.304  63.415  1.00  0.00    -0.292 C  
HETATM   28  C   UNL     1     -11.171  11.734  63.726  1.00  0.00    -0.436 C  
ENDBRANCH  25  26
ENDBRANCH  24  25
ENDBRANCH  23  24
ENDBRANCH  19  23
ENDBRANCH   4  17
TORSDOF 7
ENDMDL
MODEL       21
REMARK 921   NORMALIZED FREE ENERGY PREDICTED BY IDOCK:   -5.41 KCAL/MOL
REMARK 922        TOTAL FREE ENERGY PREDICTED BY IDOCK:   -9.61 KCAL/MOL
REMARK 923 INTER-LIGAND FREE ENERGY PREDICTED BY IDOCK:   -8.82 KCAL/MOL
REMARK 924 INTRA-LIGAND FREE ENERGY PREDICTED BY IDOCK:   -0.79 KCAL/MOL
REMARK 927      BINDING AFFINITY PREDICTED BY RF-SCORE:    0.00 PKD
ROOT
HETATM    1  C   UNL     1      -8.997   9.052  64.883  1.00  0.00    -0.170 C  
HETATM    2  C   UNL     1      -9.636  10.424  65.028  1.00  0.00    -0.339 C  
HETATM    3  C   UNL     1     -10.297  10.887  66.327  1.00  0.00    -0.306 C  
HETATM    4  C   UNL     1     -10.449  10.250  67.524  1.00  0.00    -0.293 C  
ENDROOT
BRANCH   3   5
HETATM    5  C   UNL     1     -10.797  12.286  66.136  1.00  0.00    -0.314 A  
HETATM    6  C   UNL     1      -9.902  13.363  66.189  1.00  0.00    -0.289 A  
HETATM    7  C   UNL     1     -12.144  12.535  65.835  1.00  0.00    -0.420 A  
HETATM    8  C   UNL     1     -12.585  13.840  65.589  1.00  0.00    -0.551 A  
HETATM    9  C   UNL     1     -10.342  14.664  65.935  1.00  0.00    -0.334 A  
HETATM   10  C   UNL     1     -11.682  14.902  65.632  1.00  0.00    -0.194 A  
ENDBRANCH   3   5
BRANCH   4  11
HETATM   11  C   UNL     1      -9.983   8.861  67.734  1.00  0.00    -0.241 A  
HETATM   12  C   UNL     1      -8.759   8.602  68.367  1.00  0.00    -0.142 A  
HETATM   13  C   UNL     1      -8.347   7.286  68.593  1.00  0.00    -0.125 A  
HETATM   14  C   UNL     1     -10.340   6.472  67.498  1.00  0.00    -0.252 A  
HETATM   15  C   UNL     1     -10.754   7.786  67.273  1.00  0.00    -0.326 A  
HETATM   16  C   UNL     1      -9.144   6.223  68.169  1.00  0.00    -0.112 A  
ENDBRANCH   4  11
BRANCH   4  17
HETATM   17  C   UNL     1     -11.098  10.966  68.658  1.00  0.00    -0.305 A  
HETATM   18  C   UNL     1     -11.547  12.994  69.920  1.00  0.00    -0.249 A  
HETATM   19  C   UNL     1     -12.445  12.301  70.733  1.00  0.00    -0.265 A  
HETATM   20  C   UNL     1     -12.620  10.926  70.531  1.00  0.00    -0.409 A  
HETATM   21  C   UNL     1     -11.948  10.259  69.509  1.00  0.00    -0.087 A  
HETATM   22  C   UNL     1     -10.877  12.330  68.884  1.00  0.00    -0.238 A  
BRANCH  19  23
HETATM   23  O   UNL     1     -13.112  13.047  71.682  1.00  0.00    -0.392 OA 
BRANCH  23  24
HETATM   24  C   UNL     1     -13.520  14.333  71.205  1.00  0.00    -0.311 C  
BRANCH  24  25
HETATM   25  C   UNL     1     -13.974  15.276  72.326  1.00  0.00    -0.546 C  
BRANCH  25  26
HETATM   26  N   UNL     1     -12.833  16.031  72.897  1.00  0.00    -0.460 NA 
HETATM   27  C   UNL     1     -11.732  16.105  71.937  1.00  0.00    -0.491 C  
HETATM   28  C   UNL     1     -12.352  15.455  74.158  1.00  0.00    -0.663 C  
ENDBRANCH  25  26
ENDBRANCH  24  25
ENDBRANCH  23  24
ENDBRANCH  19  23
ENDBRANCH   4  17
TORSDOF 7
ENDMDL
MODEL       22
REMARK 921   NORMALIZED FREE ENERGY PREDICTED BY IDOCK:   -5.40 KCAL/MOL
REMARK 922        TOTAL FREE ENERGY PREDICTED BY IDOCK:   -9.60 KCAL/MOL
REMARK 923 INTER-LIGAND FREE ENERGY PREDICTED BY IDOCK:   -7.69 KCAL/MOL
REMARK 924 INTRA-LIGAND FREE ENERGY PREDICTED BY IDOCK:   -1.90 KCAL/MOL
REMARK 927      BINDING AFFINITY PREDICTED BY RF-SCORE:    0.00 PKD
ROOT
HETATM    1  C   UNL     1     -12.609  14.154  70.393  1.00  0.00    -0.397 C  
HETATM    2  C   UNL     1     -12.521  12.706  70.848  1.00  0.00    -0.368 C  
HETATM    3  C   UNL     1     -11.748  11.645  70.064  1.00  0.00    -0.402 C  
HETATM    4  C   UNL     1     -11.034  11.741  68.905  1.00  0.00    -0.288 C  
ENDROOT
BRANCH   3   5
HETATM    5  C   UNL     1     -11.844  10.344  70.798  1.00  0.00    -0.466 A  
HETATM    6  C   UNL     1     -10.688   9.747  71.320  1.00  0.00    -0.204 A  
HETATM    7  C   UNL     1     -13.087   9.739  71.033  1.00  0.00    -0.363 A  
HETATM    8  C   UNL     1     -13.171   8.560  71.781  1.00  0.00    -0.392 A  
HETATM    9  C   UNL     1     -10.775   8.573  72.072  1.00  0.00    -0.410 A  
HETATM   10  C   UNL     1     -12.015   7.982  72.305  1.00  0.00    -0.412 A  
ENDBRANCH   3   5
BRANCH   4  11
HETATM   11  C   UNL     1     -10.940  13.010  68.148  1.00  0.00    -0.269 A  
HETATM   12  C   UNL     1     -11.861  13.312  67.135  1.00  0.00    -0.424 A  
HETATM   13  C   UNL     1     -11.785  14.528  66.453  1.00  0.00    -0.372 A  
HETATM   14  C   UNL     1      -9.829  15.128  67.737  1.00  0.00    -0.223 A  
HETATM   15  C   UNL     1      -9.904  13.913  68.420  1.00  0.00    -0.229 A  
HETATM   16  C   UNL     1     -10.776  15.440  66.762  1.00  0.00    -0.310 A  
ENDBRANCH   4  11
BRANCH   4  17
HETATM   17  C   UNL     1     -10.324  10.541  68.380  1.00  0.00    -0.199 A  
HETATM   18  C   UNL     1      -8.354   9.125  68.236  1.00  0.00    -0.120 A  
HETATM   19  C   UNL     1      -9.064   8.198  67.471  1.00  0.00    -0.137 A  
HETATM   20  C   UNL     1     -10.391   8.482  67.123  1.00  0.00    -0.377 A  
HETATM   21  C   UNL     1     -11.016   9.646  67.564  1.00  0.00    -0.166 A  
HETATM   22  C   UNL     1      -8.981  10.291  68.692  1.00  0.00    -0.144 A  
BRANCH  19  23
HETATM   23  O   UNL     1      -8.390   7.046  67.125  1.00  0.00    -0.119 OA 
BRANCH  23  24
HETATM   24  C   UNL     1      -8.144   6.179  68.237  1.00  0.00    -0.111 C  
BRANCH  24  25
HETATM   25  C   UNL     1      -9.141   5.018  68.329  1.00  0.00    -0.115 C  
BRANCH  25  26
HETATM   26  N   UNL     1      -9.888   5.043  69.610  1.00  0.00    -0.199 NA 
HETATM   27  C   UNL     1     -11.084   5.875  69.492  1.00  0.00    -0.332 C  
HETATM   28  C   UNL     1      -9.067   5.512  70.732  1.00  0.00    -0.146 C  
ENDBRANCH  25  26
ENDBRANCH  24  25
ENDBRANCH  23  24
ENDBRANCH  19  23
ENDBRANCH   4  17
TORSDOF 7
ENDMDL
MODEL       23
REMARK 921   NORMALIZED FREE ENERGY PREDICTED BY IDOCK:   -5.39 KCAL/MOL
REMARK 922        TOTAL FREE ENERGY PREDICTED BY IDOCK:   -9.58 KCAL/MOL
REMARK 923 INTER-LIGAND FREE ENERGY PREDICTED BY IDOCK:   -7.57 KCAL/MOL
REMARK 924 INTRA-LIGAND FREE ENERGY PREDICTED BY IDOCK:   -2.01 KCAL/MOL
REMARK 927      BINDING AFFINITY PREDICTED BY RF-SCORE:    0.00 PKD
ROOT
HETATM    1  C   UNL     1      -7.815   9.758  65.479  1.00  0.00    -0.120 C  
HETATM    2  C   UNL     1      -8.875  10.780  65.101  1.00  0.00    -0.199 C  
HETATM    3  C   UNL     1      -9.555  11.678  66.136  1.00  0.00    -0.252 C  
HETATM    4  C   UNL     1      -9.385  11.763  67.487  1.00  0.00    -0.174 C  
ENDROOT
BRANCH   3   5
HETATM    5  C   UNL     1     -10.520  12.577  65.427  1.00  0.00    -0.308 A  
HETATM    6  C   UNL     1     -11.788  12.100  65.071  1.00  0.00    -0.357 A  
HETATM    7  C   UNL     1     -10.201  13.918  65.171  1.00  0.00    -0.382 A  
HETATM    8  C   UNL     1     -11.138  14.767  64.572  1.00  0.00    -0.260 A  
HETATM    9  C   UNL     1     -12.725  12.950  64.479  1.00  0.00    -0.359 A  
HETATM   10  C   UNL     1     -12.401  14.283  64.232  1.00  0.00    -0.407 A  
ENDBRANCH   3   5
BRANCH   4  11
HETATM   11  C   UNL     1      -8.453  10.872  68.215  1.00  0.00    -0.134 A  
HETATM   12  C   UNL     1      -8.888   9.639  68.722  1.00  0.00    -0.130 A  
HETATM   13  C   UNL     1      -7.991   8.789  69.374  1.00  0.00    -0.100 A  
HETATM   14  C   UNL     1      -6.233  10.421  69.085  1.00  0.00    -0.041 A  
HETATM   15  C   UNL     1      -7.127  11.270  68.431  1.00  0.00    -0.081 A  
HETATM   16  C   UNL     1      -6.662   9.177  69.546  1.00  0.00    -0.047 A  
ENDBRANCH   4  11
BRANCH   4  17
HETATM   17  C   UNL     1     -10.152  12.780  68.260  1.00  0.00    -0.237 A  
HETATM   18  C   UNL     1     -10.383  15.005  69.209  1.00  0.00    -0.249 A  
HETATM   19  C   UNL     1     -11.688  14.709  69.609  1.00  0.00    -0.313 A  
HETATM   20  C   UNL     1     -12.193  13.424  69.374  1.00  0.00    -0.246 A  
HETATM   21  C   UNL     1     -11.433  12.463  68.713  1.00  0.00    -0.350 A  
HETATM   22  C   UNL     1      -9.619  14.045  68.535  1.00  0.00    -0.201 A  
BRANCH  19  23
HETATM   23  O   UNL     1     -12.392  15.735  70.204  1.00  0.00    -0.384 OA 
BRANCH  23  24
HETATM   24  C   UNL     1     -13.633  15.310  70.777  1.00  0.00    -0.254 C  
BRANCH  24  25
HETATM   25  C   UNL     1     -13.830  15.793  72.219  1.00  0.00    -0.396 C  
BRANCH  25  26
HETATM   26  N   UNL     1     -13.558  14.711  73.196  1.00  0.00    -0.521 NA 
HETATM   27  C   UNL     1     -12.320  14.978  73.927  1.00  0.00    -0.527 C  
HETATM   28  C   UNL     1     -13.487  13.388  72.566  1.00  0.00    -0.536 C  
ENDBRANCH  25  26
ENDBRANCH  24  25
ENDBRANCH  23  24
ENDBRANCH  19  23
ENDBRANCH   4  17
TORSDOF 7
ENDMDL
MODEL       24
REMARK 921   NORMALIZED FREE ENERGY PREDICTED BY IDOCK:   -5.37 KCAL/MOL
REMARK 922        TOTAL FREE ENERGY PREDICTED BY IDOCK:   -9.56 KCAL/MOL
REMARK 923 INTER-LIGAND FREE ENERGY PREDICTED BY IDOCK:   -7.49 KCAL/MOL
REMARK 924 INTRA-LIGAND FREE ENERGY PREDICTED BY IDOCK:   -2.07 KCAL/MOL
REMARK 927      BINDING AFFINITY PREDICTED BY RF-SCORE:    0.00 PKD
ROOT
HETATM    1  C   UNL     1     -10.679  17.823  65.174  1.00  0.00     0.400 C  
HETATM    2  C   UNL     1     -11.034  16.401  64.767  1.00  0.00    -0.246 C  
HETATM    3  C   UNL     1     -10.778  15.199  65.678  1.00  0.00    -0.374 C  
HETATM    4  C   UNL     1     -10.234  15.131  66.927  1.00  0.00    -0.259 C  
ENDROOT
BRANCH   3   5
HETATM    5  C   UNL     1     -11.266  13.964  64.985  1.00  0.00    -0.342 A  
HETATM    6  C   UNL     1     -12.624  13.624  65.036  1.00  0.00    -0.434 A  
HETATM    7  C   UNL     1     -10.393  13.170  64.227  1.00  0.00    -0.361 A  
HETATM    8  C   UNL     1     -10.875  12.059  63.527  1.00  0.00    -0.509 A  
HETATM    9  C   UNL     1     -13.105  12.518  64.330  1.00  0.00    -0.076 A  
HETATM   10  C   UNL     1     -12.231  11.737  63.575  1.00  0.00    -0.489 A  
ENDBRANCH   3   5
BRANCH   4  11
HETATM   11  C   UNL     1      -9.725  16.332  67.625  1.00  0.00    -0.234 A  
HETATM   12  C   UNL     1      -8.394  16.745  67.466  1.00  0.00    -0.200 A  
HETATM   13  C   UNL     1      -7.934  17.902  68.100  1.00  0.00    -0.265 A  
HETATM   14  C   UNL     1     -10.106  18.212  69.112  1.00  0.00    -0.194 A  
HETATM   15  C   UNL     1     -10.567  17.057  68.478  1.00  0.00    -0.370 A  
HETATM   16  C   UNL     1      -8.794  18.640  68.913  1.00  0.00    -0.210 A  
ENDBRANCH   4  11
BRANCH   4  17
HETATM   17  C   UNL     1     -10.148  13.813  67.617  1.00  0.00    -0.242 A  
HETATM   18  C   UNL     1     -11.176  11.968  68.822  1.00  0.00    -0.316 A  
HETATM   19  C   UNL     1      -9.969  11.267  68.796  1.00  0.00    -0.193 A  
HETATM   20  C   UNL     1      -8.844  11.875  68.223  1.00  0.00    -0.174 A  
HETATM   21  C   UNL     1      -8.927  13.139  67.645  1.00  0.00    -0.192 A  
HETATM   22  C   UNL     1     -11.267  13.236  68.233  1.00  0.00    -0.309 A  
BRANCH  19  23
HETATM   23  O   UNL     1      -9.987   9.999  69.337  1.00  0.00    -0.197 OA 
BRANCH  23  24
HETATM   24  C   UNL     1     -10.677   9.928  70.589  1.00  0.00    -0.303 C  
BRANCH  24  25
HETATM   25  C   UNL     1     -11.558   8.680  70.723  1.00  0.00    -0.242 C  
BRANCH  25  26
HETATM   26  N   UNL     1     -12.596   8.857  71.767  1.00  0.00    -0.338 NA 
HETATM   27  C   UNL     1     -13.676   7.887  71.589  1.00  0.00    -0.360 C  
HETATM   28  C   UNL     1     -13.148  10.216  71.788  1.00  0.00    -0.463 C  
ENDBRANCH  25  26
ENDBRANCH  24  25
ENDBRANCH  23  24
ENDBRANCH  19  23
ENDBRANCH   4  17
TORSDOF 7
ENDMDL
MODEL       25
REMARK 921   NORMALIZED FREE ENERGY PREDICTED BY IDOCK:   -5.35 KCAL/MOL
REMARK 922        TOTAL FREE ENERGY PREDICTED BY IDOCK:   -9.53 KCAL/MOL
REMARK 923 INTER-LIGAND FREE ENERGY PREDICTED BY IDOCK:   -7.99 KCAL/MOL
REMARK 924 INTRA-LIGAND FREE ENERGY PREDICTED BY IDOCK:   -1.54 KCAL/MOL
REMARK 927      BINDING AFFINITY PREDICTED BY RF-SCORE:    0.00 PKD
ROOT
HETATM    1  C   UNL     1      -9.832   7.712  65.989  1.00  0.00     0.196 C  
HETATM    2  C   UNL     1     -10.318   8.228  67.334  1.00  0.00    -0.350 C  
HETATM    3  C   UNL     1     -10.421   9.721  67.651  1.00  0.00    -0.305 C  
HETATM    4  C   UNL     1     -10.136  10.814  66.886  1.00  0.00    -0.255 C  
ENDROOT
BRANCH   3   5
HETATM    5  C   UNL     1     -10.954   9.877  69.042  1.00  0.00    -0.223 A  
HETATM    6  C   UNL     1     -12.196  10.492  69.250  1.00  0.00    -0.021 A  
HETATM    7  C   UNL     1     -10.260   9.356  70.143  1.00  0.00    -0.271 A  
HETATM    8  C   UNL     1     -10.803   9.447  71.429  1.00  0.00    -0.430 A  
HETATM    9  C   UNL     1     -12.740  10.575  70.534  1.00  0.00    -0.385 A  
HETATM   10  C   UNL     1     -12.045  10.050  71.623  1.00  0.00    -0.420 A  
ENDBRANCH   3   5
BRANCH   4  11
HETATM   11  C   UNL     1      -9.588  10.688  65.517  1.00  0.00    -0.271 A  
HETATM   12  C   UNL     1      -8.228  10.412  65.310  1.00  0.00    -0.162 A  
HETATM   13  C   UNL     1      -7.730  10.258  64.015  1.00  0.00    -0.100 A  
HETATM   14  C   UNL     1      -9.923  10.721  63.114  1.00  0.00    -0.341 A  
HETATM   15  C   UNL     1     -10.423  10.874  64.408  1.00  0.00    -0.403 A  
HETATM   16  C   UNL     1      -8.580  10.402  62.918  1.00  0.00    -0.197 A  
ENDBRANCH   4  11
BRANCH   4  17
HETATM   17  C   UNL     1     -10.381  12.177  67.436  1.00  0.00    -0.220 A  
HETATM   18  C   UNL     1     -11.810  14.116  67.763  1.00  0.00    -0.414 A  
HETATM   19  C   UNL     1     -10.852  14.693  68.599  1.00  0.00    -0.255 A  
HETATM   20  C   UNL     1      -9.639  14.023  68.801  1.00  0.00    -0.098 A  
HETATM   21  C   UNL     1      -9.398  12.780  68.220  1.00  0.00    -0.194 A  
HETATM   22  C   UNL     1     -11.578  12.862  67.185  1.00  0.00    -0.421 A  
BRANCH  19  23
HETATM   23  O   UNL     1     -11.193  15.896  69.180  1.00  0.00    -0.287 OA 
BRANCH  23  24
HETATM   24  C   UNL     1     -12.214  15.774  70.175  1.00  0.00    -0.314 C  
BRANCH  24  25
HETATM   25  C   UNL     1     -11.690  15.255  71.519  1.00  0.00    -0.391 C  
BRANCH  25  26
HETATM   26  N   UNL     1     -12.769  15.185  72.533  1.00  0.00    -0.331 NA 
HETATM   27  C   UNL     1     -14.081  15.296  71.898  1.00  0.00    -0.557 C  
HETATM   28  C   UNL     1     -12.633  16.213  73.571  1.00  0.00    -0.569 C  
ENDBRANCH  25  26
ENDBRANCH  24  25
ENDBRANCH  23  24
ENDBRANCH  19  23
ENDBRANCH   4  17
TORSDOF 7
ENDMDL
MODEL       26
REMARK 921   NORMALIZED FREE ENERGY PREDICTED BY IDOCK:   -5.34 KCAL/MOL
REMARK 922        TOTAL FREE ENERGY PREDICTED BY IDOCK:   -9.51 KCAL/MOL
REMARK 923 INTER-LIGAND FREE ENERGY PREDICTED BY IDOCK:   -8.60 KCAL/MOL
REMARK 924 INTRA-LIGAND FREE ENERGY PREDICTED BY IDOCK:   -0.91 KCAL/MOL
REMARK 927      BINDING AFFINITY PREDICTED BY RF-SCORE:    0.00 PKD
ROOT
HETATM    1  C   UNL     1     -13.512  12.412  72.329  1.00  0.00    -0.428 C  
HETATM    2  C   UNL     1     -12.908  13.311  71.262  1.00  0.00    -0.398 C  
HETATM    3  C   UNL     1     -12.005  12.773  70.151  1.00  0.00    -0.371 C  
HETATM    4  C   UNL     1     -11.581  11.503  69.887  1.00  0.00    -0.387 C  
ENDROOT
BRANCH   3   5
HETATM    5  C   UNL     1     -11.609  13.912  69.264  1.00  0.00    -0.358 A  
HETATM    6  C   UNL     1     -10.794  14.937  69.764  1.00  0.00    -0.255 A  
HETATM    7  C   UNL     1     -11.986  13.940  67.914  1.00  0.00    -0.393 A  
HETATM    8  C   UNL     1     -11.551  14.974  67.078  1.00  0.00    -0.248 A  
HETATM    9  C   UNL     1     -10.354  15.965  68.926  1.00  0.00    -0.228 A  
HETATM   10  C   UNL     1     -10.730  15.982  67.584  1.00  0.00    -0.320 A  
ENDBRANCH   3   5
BRANCH   4  11
HETATM   11  C   UNL     1     -11.940  10.362  70.759  1.00  0.00    -0.462 A  
HETATM   12  C   UNL     1     -10.950   9.645  71.447  1.00  0.00    -0.354 A  
HETATM   13  C   UNL     1     -11.303   8.594  72.297  1.00  0.00    -0.411 A  
HETATM   14  C   UNL     1     -13.630   8.917  71.731  1.00  0.00    -0.461 A  
HETATM   15  C   UNL     1     -13.279   9.969  70.883  1.00  0.00    -0.336 A  
HETATM   16  C   UNL     1     -12.644   8.238  72.446  1.00  0.00    -0.323 A  
ENDBRANCH   4  11
BRANCH   4  17
HETATM   17  C   UNL     1     -10.734  11.248  68.689  1.00  0.00    -0.241 A  
HETATM   18  C   UNL     1     -10.407  10.303  66.473  1.00  0.00    -0.276 A  
HETATM   19  C   UNL     1      -9.148  10.900  66.393  1.00  0.00    -0.172 A  
HETATM   20  C   UNL     1      -8.672  11.626  67.492  1.00  0.00    -0.156 A  
HETATM   21  C   UNL     1      -9.451  11.794  68.635  1.00  0.00    -0.107 A  
HETATM   22  C   UNL     1     -11.199  10.477  67.615  1.00  0.00    -0.338 A  
BRANCH  19  23
HETATM   23  O   UNL     1      -8.467  10.734  65.206  1.00  0.00    -0.171 OA 
BRANCH  23  24
HETATM   24  C   UNL     1      -9.325  10.447  64.097  1.00  0.00    -0.277 C  
BRANCH  24  25
HETATM   25  C   UNL     1      -9.397  11.591  63.078  1.00  0.00    -0.266 C  
BRANCH  25  26
HETATM   26  N   UNL     1     -10.598  12.434  63.291  1.00  0.00    -0.337 NA 
HETATM   27  C   UNL     1     -10.344  13.440  64.322  1.00  0.00    -0.226 C  
HETATM   28  C   UNL     1     -11.783  11.646  63.649  1.00  0.00    -0.303 C  
ENDBRANCH  25  26
ENDBRANCH  24  25
ENDBRANCH  23  24
ENDBRANCH  19  23
ENDBRANCH   4  17
TORSDOF 7
ENDMDL
MODEL       27
REMARK 921   NORMALIZED FREE ENERGY PREDICTED BY IDOCK:   -5.30 KCAL/MOL
REMARK 922        TOTAL FREE ENERGY PREDICTED BY IDOCK:   -9.46 KCAL/MOL
REMARK 923 INTER-LIGAND FREE ENERGY PREDICTED BY IDOCK:   -8.17 KCAL/MOL
REMARK 924 INTRA-LIGAND FREE ENERGY PREDICTED BY IDOCK:   -1.29 KCAL/MOL
REMARK 927      BINDING AFFINITY PREDICTED BY RF-SCORE:    0.00 PKD
ROOT
HETATM    1  C   UNL     1      -9.651   7.740  66.275  1.00  0.00    -0.179 C  
HETATM    2  C   UNL     1     -10.251   8.286  67.562  1.00  0.00    -0.309 C  
HETATM    3  C   UNL     1     -10.430   9.784  67.812  1.00  0.00    -0.297 C  
HETATM    4  C   UNL     1     -10.129  10.858  67.027  1.00  0.00    -0.244 C  
ENDROOT
BRANCH   3   5
HETATM    5  C   UNL     1     -11.068   9.971  69.154  1.00  0.00    -0.232 A  
HETATM    6  C   UNL     1     -12.237  10.734  69.273  1.00  0.00    -0.185 A  
HETATM    7  C   UNL     1     -10.551   9.336  70.292  1.00  0.00    -0.278 A  
HETATM    8  C   UNL     1     -11.196   9.461  71.527  1.00  0.00    -0.457 A  
HETATM    9  C   UNL     1     -12.884  10.852  70.505  1.00  0.00    -0.301 A  
HETATM   10  C   UNL     1     -12.366  10.214  71.631  1.00  0.00    -0.471 A  
ENDBRANCH   3   5
BRANCH   4  11
HETATM   11  C   UNL     1      -9.479  10.703  65.706  1.00  0.00    -0.244 A  
HETATM   12  C   UNL     1      -8.086  10.580  65.601  1.00  0.00    -0.161 A  
HETATM   13  C   UNL     1      -7.487  10.397  64.353  1.00  0.00    -0.010 A  
HETATM   14  C   UNL     1      -9.654  10.526  63.292  1.00  0.00    -0.373 A  
HETATM   15  C   UNL     1     -10.254  10.708  64.539  1.00  0.00    -0.399 A  
HETATM   16  C   UNL     1      -8.272  10.359  63.201  1.00  0.00    -0.155 A  
ENDBRANCH   4  11
BRANCH   4  17
HETATM   17  C   UNL     1     -10.462  12.230  67.503  1.00  0.00    -0.230 A  
HETATM   18  C   UNL     1      -9.938  14.224  68.791  1.00  0.00    -0.205 A  
HETATM   19  C   UNL     1     -11.064  14.866  68.274  1.00  0.00    -0.282 A  
HETATM   20  C   UNL     1     -11.911  14.158  67.412  1.00  0.00    -0.439 A  
HETATM   21  C   UNL     1     -11.621  12.849  67.034  1.00  0.00    -0.419 A  
HETATM   22  C   UNL     1      -9.636  12.912  68.406  1.00  0.00    -0.176 A  
BRANCH  19  23
HETATM   23  O   UNL     1     -11.247  16.179  68.652  1.00  0.00    -0.336 OA 
BRANCH  23  24
HETATM   24  C   UNL     1     -10.123  17.015  68.356  1.00  0.00    -0.302 C  
BRANCH  24  25
HETATM   25  C   UNL     1     -10.391  18.008  67.220  1.00  0.00    -0.378 C  
BRANCH  25  26
HETATM   26  N   UNL     1      -9.372  17.897  66.148  1.00  0.00    -0.503 NA 
HETATM   27  C   UNL     1      -8.704  16.598  66.206  1.00  0.00    -0.324 C  
HETATM   28  C   UNL     1      -8.374  18.970  66.207  1.00  0.00    -0.283 C  
ENDBRANCH  25  26
ENDBRANCH  24  25
ENDBRANCH  23  24
ENDBRANCH  19  23
ENDBRANCH   4  17
TORSDOF 7
ENDMDL
MODEL       28
REMARK 921   NORMALIZED FREE ENERGY PREDICTED BY IDOCK:   -5.27 KCAL/MOL
REMARK 922        TOTAL FREE ENERGY PREDICTED BY IDOCK:   -9.42 KCAL/MOL
REMARK 923 INTER-LIGAND FREE ENERGY PREDICTED BY IDOCK:   -8.22 KCAL/MOL
REMARK 924 INTRA-LIGAND FREE ENERGY PREDICTED BY IDOCK:   -1.21 KCAL/MOL
REMARK 927      BINDING AFFINITY PREDICTED BY RF-SCORE:    0.00 PKD
ROOT
HETATM    1  C   UNL     1     -11.854  16.209  68.949  1.00  0.00    -0.159 C  
HETATM    2  C   UNL     1     -11.344  14.982  68.211  1.00  0.00    -0.331 C  
HETATM    3  C   UNL     1     -11.434  13.573  68.802  1.00  0.00    -0.349 C  
HETATM    4  C   UNL     1     -11.937  13.140  69.993  1.00  0.00    -0.391 C  
ENDROOT
BRANCH   3   5
HETATM    5  C   UNL     1     -10.868  12.604  67.811  1.00  0.00    -0.248 A  
HETATM    6  C   UNL     1     -11.723  11.921  66.934  1.00  0.00    -0.291 A  
HETATM    7  C   UNL     1      -9.484  12.413  67.697  1.00  0.00    -0.190 A  
HETATM    8  C   UNL     1      -8.965  11.557  66.720  1.00  0.00    -0.181 A  
HETATM    9  C   UNL     1     -11.202  11.073  65.954  1.00  0.00     0.071 A  
HETATM   10  C   UNL     1      -9.824  10.893  65.845  1.00  0.00    -0.285 A  
ENDBRANCH   3   5
BRANCH   4  11
HETATM   11  C   UNL     1     -12.482  14.079  70.999  1.00  0.00    -0.444 A  
HETATM   12  C   UNL     1     -11.636  14.719  71.916  1.00  0.00    -0.205 A  
HETATM   13  C   UNL     1     -12.157  15.632  72.836  1.00  0.00    -0.583 A  
HETATM   14  C   UNL     1     -14.380  15.226  71.984  1.00  0.00    -0.689 A  
HETATM   15  C   UNL     1     -13.862  14.315  71.063  1.00  0.00    -0.082 A  
HETATM   16  C   UNL     1     -13.527  15.893  72.862  1.00  0.00    -0.637 A  
ENDBRANCH   4  11
BRANCH   4  17
HETATM   17  C   UNL     1     -11.946  11.682  70.298  1.00  0.00    -0.445 A  
HETATM   18  C   UNL     1     -10.814   9.538  70.486  1.00  0.00    -0.352 A  
HETATM   19  C   UNL     1     -11.974   8.962  71.008  1.00  0.00    -0.261 A  
HETATM   20  C   UNL     1     -13.129   9.746  71.120  1.00  0.00    -0.424 A  
HETATM   21  C   UNL     1     -13.122  11.092  70.761  1.00  0.00    -0.135 A  
HETATM   22  C   UNL     1     -10.799  10.894  70.134  1.00  0.00    -0.054 A  
BRANCH  19  23
HETATM   23  O   UNL     1     -11.880   7.641  71.392  1.00  0.00    -0.278 OA 
BRANCH  23  24
HETATM   24  C   UNL     1     -10.796   6.946  70.768  1.00  0.00    -0.245 C  
BRANCH  24  25
HETATM   25  C   UNL     1     -11.239   6.067  69.593  1.00  0.00    -0.357 C  
BRANCH  25  26
HETATM   26  N   UNL     1     -10.255   6.104  68.484  1.00  0.00    -0.167 NA 
HETATM   27  C   UNL     1      -9.031   6.783  68.905  1.00  0.00    -0.131 C  
HETATM   28  C   UNL     1     -10.790   6.748  67.279  1.00  0.00    -0.373 C  
ENDBRANCH  25  26
ENDBRANCH  24  25
ENDBRANCH  23  24
ENDBRANCH  19  23
ENDBRANCH   4  17
TORSDOF 7
ENDMDL
MODEL       29
REMARK 921   NORMALIZED FREE ENERGY PREDICTED BY IDOCK:   -5.22 KCAL/MOL
REMARK 922        TOTAL FREE ENERGY PREDICTED BY IDOCK:   -9.34 KCAL/MOL
REMARK 923 INTER-LIGAND FREE ENERGY PREDICTED BY IDOCK:   -7.26 KCAL/MOL
REMARK 924 INTRA-LIGAND FREE ENERGY PREDICTED BY IDOCK:   -2.08 KCAL/MOL
REMARK 927      BINDING AFFINITY PREDICTED BY RF-SCORE:    0.00 PKD
ROOT
HETATM    1  C   UNL     1      -6.188  19.100  68.694  1.00  0.00    -0.253 C  
HETATM    2  C   UNL     1      -5.952  17.616  68.926  1.00  0.00    -0.191 C  
HETATM    3  C   UNL     1      -7.021  16.560  68.638  1.00  0.00    -0.167 C  
HETATM    4  C   UNL     1      -8.291  16.690  68.159  1.00  0.00    -0.193 C  
ENDROOT
BRANCH   3   5
HETATM    5  C   UNL     1      -6.454  15.210  68.950  1.00  0.00    -0.098 A  
HETATM    6  C   UNL     1      -5.798  14.479  67.950  1.00  0.00    -0.137 A  
HETATM    7  C   UNL     1      -6.508  14.688  70.250  1.00  0.00    -0.149 A  
HETATM    8  C   UNL     1      -5.913  13.456  70.544  1.00  0.00    -0.121 A  
HETATM    9  C   UNL     1      -5.198  13.252  68.247  1.00  0.00    -0.092 A  
HETATM   10  C   UNL     1      -5.253  12.743  69.543  1.00  0.00    -0.077 A  
ENDBRANCH   3   5
BRANCH   4  11
HETATM   11  C   UNL     1      -8.884  18.014  67.864  1.00  0.00    -0.269 A  
HETATM   12  C   UNL     1      -9.747  18.635  68.778  1.00  0.00    -0.407 A  
HETATM   13  C   UNL     1     -10.270  19.901  68.505  1.00  0.00    -0.529 A  
HETATM   14  C   UNL     1      -9.133  19.914  66.374  1.00  0.00    -0.450 A  
HETATM   15  C   UNL     1      -8.607  18.650  66.646  1.00  0.00    -0.304 A  
HETATM   16  C   UNL     1      -9.954  20.544  67.308  1.00  0.00    -0.528 A  
ENDBRANCH   4  11
BRANCH   4  17
HETATM   17  C   UNL     1      -9.113  15.470  67.922  1.00  0.00    -0.175 A  
HETATM   18  C   UNL     1     -10.712  13.800  68.670  1.00  0.00    -0.270 A  
HETATM   19  C   UNL     1     -10.746  13.244  67.390  1.00  0.00    -0.258 A  
HETATM   20  C   UNL     1      -9.916  13.780  66.397  1.00  0.00    -0.301 A  
HETATM   21  C   UNL     1      -9.099  14.878  66.659  1.00  0.00    -0.309 A  
HETATM   22  C   UNL     1      -9.901  14.910  68.936  1.00  0.00    -0.230 A  
BRANCH  19  23
HETATM   23  O   UNL     1     -11.624  12.198  67.201  1.00  0.00    -0.363 OA 
BRANCH  23  24
HETATM   24  C   UNL     1     -11.886  11.456  68.397  1.00  0.00    -0.274 C  
BRANCH  24  25
HETATM   25  C   UNL     1     -11.015  10.202  68.533  1.00  0.00    -0.232 C  
BRANCH  25  26
HETATM   26  N   UNL     1     -10.787   9.850  69.955  1.00  0.00    -0.272 NA 
HETATM   27  C   UNL     1     -10.764   8.399  70.129  1.00  0.00    -0.236 C  
HETATM   28  C   UNL     1     -11.791  10.440  70.849  1.00  0.00    -0.377 C  
ENDBRANCH  25  26
ENDBRANCH  24  25
ENDBRANCH  23  24
ENDBRANCH  19  23
ENDBRANCH   4  17
TORSDOF 7
ENDMDL
MODEL       30
REMARK 921   NORMALIZED FREE ENERGY PREDICTED BY IDOCK:   -5.21 KCAL/MOL
REMARK 922        TOTAL FREE ENERGY PREDICTED BY IDOCK:   -9.34 KCAL/MOL
REMARK 923 INTER-LIGAND FREE ENERGY PREDICTED BY IDOCK:   -7.44 KCAL/MOL
REMARK 924 INTRA-LIGAND FREE ENERGY PREDICTED BY IDOCK:   -1.90 KCAL/MOL
REMARK 927      BINDING AFFINITY PREDICTED BY RF-SCORE:    0.00 PKD
ROOT
HETATM    1  C   UNL     1     -12.021  14.195  68.949  1.00  0.00    -0.376 C  
HETATM    2  C   UNL     1     -11.892  12.882  69.706  1.00  0.00    -0.380 C  
HETATM    3  C   UNL     1     -11.318  11.618  69.064  1.00  0.00    -0.337 C  
HETATM    4  C   UNL     1     -10.840  11.400  67.806  1.00  0.00    -0.281 C  
ENDROOT
BRANCH   3   5
HETATM    5  C   UNL     1     -11.311  10.525  70.087  1.00  0.00    -0.400 A  
HETATM    6  C   UNL     1     -10.098   9.944  70.483  1.00  0.00    -0.207 A  
HETATM    7  C   UNL     1     -12.498  10.113  70.711  1.00  0.00    -0.417 A  
HETATM    8  C   UNL     1     -12.469   9.140  71.715  1.00  0.00    -0.447 A  
HETATM    9  C   UNL     1     -10.071   8.978  71.492  1.00  0.00    -0.409 A  
HETATM   10  C   UNL     1     -11.254   8.578  72.109  1.00  0.00    -0.432 A  
ENDBRANCH   3   5
BRANCH   4  11
HETATM   11  C   UNL     1     -10.854  12.456  66.769  1.00  0.00    -0.283 A  
HETATM   12  C   UNL     1      -9.789  13.360  66.650  1.00  0.00    -0.278 A  
HETATM   13  C   UNL     1      -9.796  14.329  65.644  1.00  0.00    -0.301 A  
HETATM   14  C   UNL     1     -11.962  13.551  64.908  1.00  0.00    -0.410 A  
HETATM   15  C   UNL     1     -11.955  12.581  65.911  1.00  0.00    -0.472 A  
HETATM   16  C   UNL     1     -10.877  14.417  64.768  1.00  0.00    -0.415 A  
ENDBRANCH   4  11
BRANCH   4  17
HETATM   17  C   UNL     1     -10.282  10.063  67.456  1.00  0.00    -0.260 A  
HETATM   18  C   UNL     1      -8.399   8.572  67.081  1.00  0.00    -0.111 A  
HETATM   19  C   UNL     1      -9.272   7.495  66.920  1.00  0.00    -0.149 A  
HETATM   20  C   UNL     1     -10.652   7.727  66.977  1.00  0.00    -0.396 A  
HETATM   21  C   UNL     1     -11.157   8.999  67.234  1.00  0.00     0.306 A  
HETATM   22  C   UNL     1      -8.901   9.851  67.350  1.00  0.00    -0.137 A  
BRANCH  19  23
HETATM   23  O   UNL     1      -8.690   6.259  66.727  1.00  0.00    -0.113 OA 
BRANCH  23  24
HETATM   24  C   UNL     1      -9.393   5.196  67.378  1.00  0.00    -0.120 C  
BRANCH  24  25
HETATM   25  C   UNL     1      -8.570   4.512  68.476  1.00  0.00    -0.093 C  
BRANCH  25  26
HETATM   26  N   UNL     1      -8.907   5.045  69.819  1.00  0.00    -0.097 NA 
HETATM   27  C   UNL     1     -10.314   5.440  69.878  1.00  0.00    -0.307 C  
HETATM   28  C   UNL     1      -8.058   6.178  70.204  1.00  0.00    -0.116 C  
ENDBRANCH  25  26
ENDBRANCH  24  25
ENDBRANCH  23  24
ENDBRANCH  19  23
ENDBRANCH   4  17
TORSDOF 7
ENDMDL
MODEL       31
REMARK 921   NORMALIZED FREE ENERGY PREDICTED BY IDOCK:   -5.21 KCAL/MOL
REMARK 922        TOTAL FREE ENERGY PREDICTED BY IDOCK:   -9.33 KCAL/MOL
REMARK 923 INTER-LIGAND FREE ENERGY PREDICTED BY IDOCK:   -7.07 KCAL/MOL
REMARK 924 INTRA-LIGAND FREE ENERGY PREDICTED BY IDOCK:   -2.26 KCAL/MOL
REMARK 927      BINDING AFFINITY PREDICTED BY RF-SCORE:    0.00 PKD
ROOT
HETATM    1  C   UNL     1     -13.154  10.359  71.955  1.00  0.00    -0.563 C  
HETATM    2  C   UNL     1     -12.705  11.208  70.776  1.00  0.00    -0.388 C  
HETATM    3  C   UNL     1     -11.555  10.793  69.856  1.00  0.00    -0.410 C  
HETATM    4  C   UNL     1     -10.757   9.687  69.876  1.00  0.00    -0.283 C  
ENDROOT
BRANCH   3   5
HETATM    5  C   UNL     1     -11.395  11.835  68.793  1.00  0.00    -0.325 A  
HETATM    6  C   UNL     1     -10.664  13.001  69.061  1.00  0.00    -0.138 A  
HETATM    7  C   UNL     1     -11.909  11.636  67.504  1.00  0.00    -0.196 A  
HETATM    8  C   UNL     1     -11.691  12.585  66.500  1.00  0.00    -0.454 A  
HETATM    9  C   UNL     1     -10.442  13.945  68.055  1.00  0.00    -0.243 A  
HETATM   10  C   UNL     1     -10.953  13.736  66.775  1.00  0.00    -0.307 A  
ENDBRANCH   3   5
BRANCH   4  11
HETATM   11  C   UNL     1     -10.880   8.653  70.927  1.00  0.00    -0.288 A  
HETATM   12  C   UNL     1     -10.086   8.705  72.082  1.00  0.00    -0.388 A  
HETATM   13  C   UNL     1     -10.238   7.745  73.085  1.00  0.00    -0.398 A  
HETATM   14  C   UNL     1     -11.925   6.629  71.765  1.00  0.00    -0.391 A  
HETATM   15  C   UNL     1     -11.777   7.589  70.762  1.00  0.00    -0.281 A  
HETATM   16  C   UNL     1     -11.164   6.714  72.930  1.00  0.00    -0.227 A  
ENDBRANCH   4  11
BRANCH   4  17
HETATM   17  C   UNL     1      -9.730   9.506  68.811  1.00  0.00    -0.164 A  
HETATM   18  C   UNL     1      -7.505   9.889  67.910  1.00  0.00    -0.089 A  
HETATM   19  C   UNL     1      -7.780   9.031  66.843  1.00  0.00    -0.098 A  
HETATM   20  C   UNL     1      -9.055   8.459  66.745  1.00  0.00    -0.192 A  
HETATM   21  C   UNL     1     -10.027   8.698  67.714  1.00  0.00    -0.240 A  
HETATM   22  C   UNL     1      -8.476  10.124  68.892  1.00  0.00    -0.139 A  
BRANCH  19  23
HETATM   23  O   UNL     1      -6.745   8.802  65.961  1.00  0.00    -0.066 OA 
BRANCH  23  24
HETATM   24  C   UNL     1      -7.174   8.707  64.598  1.00  0.00    -0.089 C  
BRANCH  24  25
HETATM   25  C   UNL     1      -7.114  10.045  63.852  1.00  0.00    -0.126 C  
BRANCH  25  26
HETATM   26  N   UNL     1      -8.332  10.267  63.036  1.00  0.00    -0.161 NA 
HETATM   27  C   UNL     1      -9.400  10.842  63.852  1.00  0.00    -0.253 C  
HETATM   28  C   UNL     1      -8.808   9.040  62.389  1.00  0.00    -0.170 C  
ENDBRANCH  25  26
ENDBRANCH  24  25
ENDBRANCH  23  24
ENDBRANCH  19  23
ENDBRANCH   4  17
TORSDOF 7
ENDMDL
MODEL       32
REMARK 921   NORMALIZED FREE ENERGY PREDICTED BY IDOCK:   -5.16 KCAL/MOL
REMARK 922        TOTAL FREE ENERGY PREDICTED BY IDOCK:   -9.27 KCAL/MOL
REMARK 923 INTER-LIGAND FREE ENERGY PREDICTED BY IDOCK:   -7.50 KCAL/MOL
REMARK 924 INTRA-LIGAND FREE ENERGY PREDICTED BY IDOCK:   -1.77 KCAL/MOL
REMARK 927      BINDING AFFINITY PREDICTED BY RF-SCORE:    0.00 PKD
ROOT
HETATM    1  C   UNL     1     -12.591  14.149  70.346  1.00  0.00    -0.397 C  
HETATM    2  C   UNL     1     -12.545  12.702  70.812  1.00  0.00    -0.302 C  
HETATM    3  C   UNL     1     -11.809  11.612  70.031  1.00  0.00    -0.435 C  
HETATM    4  C   UNL     1     -11.101  11.677  68.867  1.00  0.00    -0.287 C  
ENDROOT
BRANCH   3   5
HETATM    5  C   UNL     1     -11.941  10.320  70.776  1.00  0.00    -0.456 A  
HETATM    6  C   UNL     1     -10.796   9.673  71.263  1.00  0.00    -0.366 A  
HETATM    7  C   UNL     1     -13.202   9.774  71.056  1.00  0.00    -0.341 A  
HETATM    8  C   UNL     1     -13.314   8.604  71.814  1.00  0.00    -0.410 A  
HETATM    9  C   UNL     1     -10.911   8.508  72.025  1.00  0.00    -0.410 A  
HETATM   10  C   UNL     1     -12.169   7.975  72.303  1.00  0.00    -0.366 A  
ENDBRANCH   3   5
BRANCH   4  11
HETATM   11  C   UNL     1     -10.973  12.937  68.099  1.00  0.00    -0.273 A  
HETATM   12  C   UNL     1     -11.871  13.242  67.066  1.00  0.00    -0.442 A  
HETATM   13  C   UNL     1     -11.763  14.451  66.374  1.00  0.00    -0.397 A  
HETATM   14  C   UNL     1      -9.822  15.033  67.688  1.00  0.00    -0.220 A  
HETATM   15  C   UNL     1      -9.928  13.827  68.382  1.00  0.00    -0.229 A  
HETATM   16  C   UNL     1     -10.745  15.349  66.693  1.00  0.00    -0.309 A  
ENDBRANCH   4  11
BRANCH   4  17
HETATM   17  C   UNL     1     -10.432  10.452  68.347  1.00  0.00    -0.216 A  
HETATM   18  C   UNL     1     -10.468   8.385  67.068  1.00  0.00    -0.375 A  
HETATM   19  C   UNL     1      -9.097   8.221  67.277  1.00  0.00    -0.137 A  
HETATM   20  C   UNL     1      -8.416   9.154  68.069  1.00  0.00    -0.121 A  
HETATM   21  C   UNL     1      -9.075  10.257  68.607  1.00  0.00    -0.152 A  
HETATM   22  C   UNL     1     -11.133   9.497  67.599  1.00  0.00    -0.009 A  
BRANCH  19  23
HETATM   23  O   UNL     1      -8.511   7.135  66.661  1.00  0.00    -0.113 OA 
BRANCH  23  24
HETATM   24  C   UNL     1      -9.032   5.880  67.110  1.00  0.00    -0.113 C  
BRANCH  24  25
HETATM   25  C   UNL     1      -8.193   5.242  68.223  1.00  0.00    -0.094 C  
BRANCH  25  26
HETATM   26  N   UNL     1      -9.048   4.708  69.311  1.00  0.00    -0.101 NA 
HETATM   27  C   UNL     1      -9.398   3.312  69.051  1.00  0.00    -0.163 C  
HETATM   28  C   UNL     1     -10.269   5.497  69.506  1.00  0.00    -0.261 C  
ENDBRANCH  25  26
ENDBRANCH  24  25
ENDBRANCH  23  24
ENDBRANCH  19  23
ENDBRANCH   4  17
TORSDOF 7
ENDMDL
MODEL       33
REMARK 921   NORMALIZED FREE ENERGY PREDICTED BY IDOCK:   -5.15 KCAL/MOL
REMARK 922        TOTAL FREE ENERGY PREDICTED BY IDOCK:   -9.25 KCAL/MOL
REMARK 923 INTER-LIGAND FREE ENERGY PREDICTED BY IDOCK:   -7.48 KCAL/MOL
REMARK 924 INTRA-LIGAND FREE ENERGY PREDICTED BY IDOCK:   -1.77 KCAL/MOL
REMARK 927      BINDING AFFINITY PREDICTED BY RF-SCORE:    0.00 PKD
ROOT
HETATM    1  C   UNL     1     -12.656  14.022  70.368  1.00  0.00    -0.374 C  
HETATM    2  C   UNL     1     -12.500  12.587  70.847  1.00  0.00    -0.361 C  
HETATM    3  C   UNL     1     -11.715  11.539  70.056  1.00  0.00    -0.414 C  
HETATM    4  C   UNL     1     -11.046  11.638  68.872  1.00  0.00    -0.287 C  
ENDROOT
BRANCH   3   5
HETATM    5  C   UNL     1     -11.740  10.250  70.817  1.00  0.00    -0.453 A  
HETATM    6  C   UNL     1     -10.548   9.715  71.326  1.00  0.00    -0.269 A  
HETATM    7  C   UNL     1     -12.950   9.597  71.091  1.00  0.00    -0.389 A  
HETATM    8  C   UNL     1     -12.966   8.431  71.864  1.00  0.00    -0.381 A  
HETATM    9  C   UNL     1     -10.567   8.554  72.103  1.00  0.00    -0.419 A  
HETATM   10  C   UNL     1     -11.775   7.915  72.374  1.00  0.00    -0.423 A  
ENDBRANCH   3   5
BRANCH   4  11
HETATM   11  C   UNL     1     -11.024  12.894  68.088  1.00  0.00    -0.273 A  
HETATM   12  C   UNL     1     -10.062  13.882  68.343  1.00  0.00    -0.237 A  
HETATM   13  C   UNL     1     -10.027  15.046  67.572  1.00  0.00    -0.226 A  
HETATM   14  C   UNL     1     -11.954  14.284  66.331  1.00  0.00    -0.438 A  
HETATM   15  C   UNL     1     -11.989  13.119  67.098  1.00  0.00    -0.397 A  
HETATM   16  C   UNL     1     -10.966  15.241  66.560  1.00  0.00    -0.295 A  
ENDBRANCH   4  11
BRANCH   4  17
HETATM   17  C   UNL     1     -10.311  10.454  68.345  1.00  0.00    -0.198 A  
HETATM   18  C   UNL     1     -10.267   8.307  67.205  1.00  0.00    -0.344 A  
HETATM   19  C   UNL     1      -8.872   8.301  67.250  1.00  0.00    -0.130 A  
HETATM   20  C   UNL     1      -8.210   9.354  67.894  1.00  0.00    -0.115 A  
HETATM   21  C   UNL     1      -8.920  10.419  68.445  1.00  0.00    -0.137 A  
HETATM   22  C   UNL     1     -10.985   9.380  67.748  1.00  0.00    -0.122 A  
BRANCH  19  23
HETATM   23  O   UNL     1      -8.245   7.240  66.631  1.00  0.00    -0.113 OA 
BRANCH  23  24
HETATM   24  C   UNL     1      -7.332   7.644  65.605  1.00  0.00    -0.073 C  
BRANCH  24  25
HETATM   25  C   UNL     1      -8.004   7.843  64.242  1.00  0.00    -0.130 C  
BRANCH  25  26
HETATM   26  N   UNL     1      -8.064   9.277  63.870  1.00  0.00    -0.141 NA 
HETATM   27  C   UNL     1      -8.604   9.437  62.520  1.00  0.00    -0.215 C  
HETATM   28  C   UNL     1      -6.757   9.938  63.961  1.00  0.00    -0.126 C  
ENDBRANCH  25  26
ENDBRANCH  24  25
ENDBRANCH  23  24
ENDBRANCH  19  23
ENDBRANCH   4  17
TORSDOF 7
ENDMDL
MODEL       34
REMARK 921   NORMALIZED FREE ENERGY PREDICTED BY IDOCK:   -5.14 KCAL/MOL
REMARK 922        TOTAL FREE ENERGY PREDICTED BY IDOCK:   -9.23 KCAL/MOL
REMARK 923 INTER-LIGAND FREE ENERGY PREDICTED BY IDOCK:   -7.63 KCAL/MOL
REMARK 924 INTRA-LIGAND FREE ENERGY PREDICTED BY IDOCK:   -1.60 KCAL/MOL
REMARK 927      BINDING AFFINITY PREDICTED BY RF-SCORE:    0.00 PKD
ROOT
HETATM    1  C   UNL     1     -13.391  12.543  72.094  1.00  0.00    -0.540 C  
HETATM    2  C   UNL     1     -12.776  13.376  70.980  1.00  0.00    -0.387 C  
HETATM    3  C   UNL     1     -11.906  12.762  69.882  1.00  0.00    -0.371 C  
HETATM    4  C   UNL     1     -11.525  11.470  69.668  1.00  0.00    -0.373 C  
ENDROOT
BRANCH   3   5
HETATM    5  C   UNL     1     -11.489  13.850  68.941  1.00  0.00    -0.340 A  
HETATM    6  C   UNL     1     -10.501  14.767  69.325  1.00  0.00    -0.231 A  
HETATM    7  C   UNL     1     -12.023  13.928  67.647  1.00  0.00    -0.403 A  
HETATM    8  C   UNL     1     -11.573  14.906  66.753  1.00  0.00    -0.275 A  
HETATM    9  C   UNL     1     -10.048  15.738  68.429  1.00  0.00    -0.222 A  
HETATM   10  C   UNL     1     -10.581  15.806  67.143  1.00  0.00    -0.313 A  
ENDBRANCH   3   5
BRANCH   4  11
HETATM   11  C   UNL     1     -11.906  10.379  70.594  1.00  0.00    -0.445 A  
HETATM   12  C   UNL     1     -10.933   9.697  71.338  1.00  0.00    -0.354 A  
HETATM   13  C   UNL     1     -11.308   8.696  72.237  1.00  0.00    -0.411 A  
HETATM   14  C   UNL     1     -13.621   8.995  71.609  1.00  0.00    -0.446 A  
HETATM   15  C   UNL     1     -13.249   9.998  70.712  1.00  0.00    -0.270 A  
HETATM   16  C   UNL     1     -12.652   8.353  72.379  1.00  0.00    -0.372 A  
ENDBRANCH   4  11
BRANCH   4  17
HETATM   17  C   UNL     1     -10.704  11.137  68.470  1.00  0.00    -0.235 A  
HETATM   18  C   UNL     1     -10.481  10.230  66.225  1.00  0.00    -0.214 A  
HETATM   19  C   UNL     1      -9.149  10.643  66.181  1.00  0.00    -0.170 A  
HETATM   20  C   UNL     1      -8.591  11.256  67.310  1.00  0.00    -0.143 A  
HETATM   21  C   UNL     1      -9.357  11.495  68.450  1.00  0.00    -0.194 A  
HETATM   22  C   UNL     1     -11.258  10.477  67.365  1.00  0.00    -0.249 A  
BRANCH  19  23
HETATM   23  O   UNL     1      -8.479  10.422  64.996  1.00  0.00    -0.169 OA 
BRANCH  23  24
HETATM   24  C   UNL     1      -8.353   9.034  64.669  1.00  0.00    -0.172 C  
BRANCH  24  25
HETATM   25  C   UNL     1      -7.168   8.355  65.366  1.00  0.00    -0.082 C  
BRANCH  25  26
HETATM   26  N   UNL     1      -7.608   7.197  66.181  1.00  0.00    -0.089 NA 
HETATM   27  C   UNL     1      -9.018   6.900  65.934  1.00  0.00    -0.064 C  
HETATM   28  C   UNL     1      -7.390   7.405  67.617  1.00  0.00    -0.092 C  
ENDBRANCH  25  26
ENDBRANCH  24  25
ENDBRANCH  23  24
ENDBRANCH  19  23
ENDBRANCH   4  17
TORSDOF 7
ENDMDL
MODEL       35
REMARK 921   NORMALIZED FREE ENERGY PREDICTED BY IDOCK:   -5.13 KCAL/MOL
REMARK 922        TOTAL FREE ENERGY PREDICTED BY IDOCK:   -9.21 KCAL/MOL
REMARK 923 INTER-LIGAND FREE ENERGY PREDICTED BY IDOCK:   -7.85 KCAL/MOL
REMARK 924 INTRA-LIGAND FREE ENERGY PREDICTED BY IDOCK:   -1.36 KCAL/MOL
REMARK 927      BINDING AFFINITY PREDICTED BY RF-SCORE:    0.00 PKD
ROOT
HETATM    1  C   UNL     1      -6.833  17.951  69.035  1.00  0.00    -0.242 C  
HETATM    2  C   UNL     1      -6.947  16.446  68.850  1.00  0.00    -0.186 C  
HETATM    3  C   UNL     1      -8.087  15.801  68.060  1.00  0.00    -0.143 C  
HETATM    4  C   UNL     1      -9.146  16.362  67.409  1.00  0.00    -0.206 C  
ENDROOT
BRANCH   3   5
HETATM    5  C   UNL     1      -7.882  14.317  68.053  1.00  0.00    -0.143 A  
HETATM    6  C   UNL     1      -8.858  13.474  68.602  1.00  0.00    -0.003 A  
HETATM    7  C   UNL     1      -6.756  13.748  67.442  1.00  0.00    -0.006 A  
HETATM    8  C   UNL     1      -6.611  12.358  67.380  1.00  0.00    -0.157 A  
HETATM    9  C   UNL     1      -8.715  12.086  68.533  1.00  0.00    -0.095 A  
HETATM   10  C   UNL     1      -7.594  11.528  67.920  1.00  0.00    -0.113 A  
ENDBRANCH   3   5
BRANCH   4  11
HETATM   11  C   UNL     1      -9.384  17.823  67.418  1.00  0.00    -0.252 A  
HETATM   12  C   UNL     1     -10.064  18.433  68.481  1.00  0.00    -0.413 A  
HETATM   13  C   UNL     1     -10.250  19.818  68.498  1.00  0.00    -0.547 A  
HETATM   14  C   UNL     1      -9.140  19.993  66.359  1.00  0.00    -0.427 A  
HETATM   15  C   UNL     1      -8.952  18.610  66.342  1.00  0.00    -0.285 A  
HETATM   16  C   UNL     1      -9.778  20.597  67.442  1.00  0.00    -0.552 A  
ENDBRANCH   4  11
BRANCH   4  17
HETATM   17  C   UNL     1     -10.094  15.488  66.663  1.00  0.00    -0.275 A  
HETATM   18  C   UNL     1     -12.154  14.204  66.531  1.00  0.00    -0.481 A  
HETATM   19  C   UNL     1     -11.921  13.950  65.179  1.00  0.00    -0.385 A  
HETATM   20  C   UNL     1     -10.741  14.428  64.593  1.00  0.00    -0.357 A  
HETATM   21  C   UNL     1      -9.830  15.184  65.327  1.00  0.00    -0.249 A  
HETATM   22  C   UNL     1     -11.246  14.972  67.271  1.00  0.00    -0.339 A  
BRANCH  19  23
HETATM   23  O   UNL     1     -12.900  13.245  64.511  1.00  0.00    -0.665 OA 
BRANCH  23  24
HETATM   24  C   UNL     1     -12.396  12.102  63.812  1.00  0.00    -0.532 C  
BRANCH  24  25
HETATM   25  C   UNL     1     -11.460  11.237  64.664  1.00  0.00     0.094 C  
BRANCH  25  26
HETATM   26  N   UNL     1     -10.409  10.597  63.838  1.00  0.00    -0.255 NA 
HETATM   27  C   UNL     1      -9.441   9.901  64.685  1.00  0.00    -0.278 C  
HETATM   28  C   UNL     1      -9.711  11.556  62.973  1.00  0.00    -0.359 C  
ENDBRANCH  25  26
ENDBRANCH  24  25
ENDBRANCH  23  24
ENDBRANCH  19  23
ENDBRANCH   4  17
TORSDOF 7
ENDMDL
MODEL       36
REMARK 921   NORMALIZED FREE ENERGY PREDICTED BY IDOCK:   -5.12 KCAL/MOL
REMARK 922        TOTAL FREE ENERGY PREDICTED BY IDOCK:   -9.20 KCAL/MOL
REMARK 923 INTER-LIGAND FREE ENERGY PREDICTED BY IDOCK:   -7.57 KCAL/MOL
REMARK 924 INTRA-LIGAND FREE ENERGY PREDICTED BY IDOCK:   -1.63 KCAL/MOL
REMARK 927      BINDING AFFINITY PREDICTED BY RF-SCORE:    0.00 PKD
ROOT
HETATM    1  C   UNL     1      -8.793  11.197  66.089  1.00  0.00    -0.195 C  
HETATM    2  C   UNL     1      -8.088  12.261  66.915  1.00  0.00    -0.090 C  
HETATM    3  C   UNL     1      -8.624  13.688  67.045  1.00  0.00    -0.173 C  
HETATM    4  C   UNL     1      -9.735  14.271  66.512  1.00  0.00    -0.304 C  
ENDROOT
BRANCH   3   5
HETATM    5  C   UNL     1      -7.709  14.461  67.944  1.00  0.00    -0.152 A  
HETATM    6  C   UNL     1      -7.650  14.157  69.311  1.00  0.00     0.058 A  
HETATM    7  C   UNL     1      -6.855  15.446  67.429  1.00  0.00    -0.204 A  
HETATM    8  C   UNL     1      -5.955  16.112  68.268  1.00  0.00    -0.112 A  
HETATM    9  C   UNL     1      -6.745  14.818  70.146  1.00  0.00    -0.114 A  
HETATM   10  C   UNL     1      -5.897  15.793  69.624  1.00  0.00    -0.135 A  
ENDBRANCH   3   5
BRANCH   4  11
HETATM   11  C   UNL     1     -10.644  13.537  65.603  1.00  0.00    -0.284 A  
HETATM   12  C   UNL     1     -11.917  13.135  66.032  1.00  0.00    -0.488 A  
HETATM   13  C   UNL     1     -12.781  12.476  65.155  1.00  0.00    -0.208 A  
HETATM   14  C   UNL     1     -11.089  12.548  63.432  1.00  0.00    -0.419 A  
HETATM   15  C   UNL     1     -10.225  13.209  64.307  1.00  0.00    -0.283 A  
HETATM   16  C   UNL     1     -12.370  12.193  63.852  1.00  0.00    -0.587 A  
ENDBRANCH   4  11
BRANCH   4  17
HETATM   17  C   UNL     1     -10.052  15.688  66.849  1.00  0.00    -0.265 A  
HETATM   18  C   UNL     1     -10.614  17.420  68.459  1.00  0.00    -0.340 A  
HETATM   19  C   UNL     1     -10.518  18.392  67.462  1.00  0.00    -0.419 A  
HETATM   20  C   UNL     1     -10.240  17.990  66.149  1.00  0.00    -0.364 A  
HETATM   21  C   UNL     1     -10.016  16.650  65.840  1.00  0.00    -0.320 A  
HETATM   22  C   UNL     1     -10.380  16.073  68.155  1.00  0.00    -0.260 A  
BRANCH  19  23
HETATM   23  O   UNL     1     -10.695  19.699  67.863  1.00  0.00    -0.408 OA 
BRANCH  23  24
HETATM   24  C   UNL     1      -9.710  20.591  67.333  1.00  0.00    -0.446 C  
BRANCH  24  25
HETATM   25  C   UNL     1      -8.311  20.363  67.917  1.00  0.00    -0.086 C  
BRANCH  25  26
HETATM   26  N   UNL     1      -7.269  21.056  67.122  1.00  0.00    -0.388 NA 
HETATM   27  C   UNL     1      -7.027  20.350  65.864  1.00  0.00    -0.233 C  
HETATM   28  C   UNL     1      -6.008  21.207  67.856  1.00  0.00    -0.349 C  
ENDBRANCH  25  26
ENDBRANCH  24  25
ENDBRANCH  23  24
ENDBRANCH  19  23
ENDBRANCH   4  17
TORSDOF 7
ENDMDL
MODEL       37
REMARK 921   NORMALIZED FREE ENERGY PREDICTED BY IDOCK:   -5.03 KCAL/MOL
REMARK 922        TOTAL FREE ENERGY PREDICTED BY IDOCK:   -9.08 KCAL/MOL
REMARK 923 INTER-LIGAND FREE ENERGY PREDICTED BY IDOCK:   -7.01 KCAL/MOL
REMARK 924 INTRA-LIGAND FREE ENERGY PREDICTED BY IDOCK:   -2.07 KCAL/MOL
REMARK 927      BINDING AFFINITY PREDICTED BY RF-SCORE:    0.00 PKD
ROOT
HETATM    1  C   UNL     1     -12.508  12.915  65.448  1.00  0.00    -0.511 C  
HETATM    2  C   UNL     1     -12.120  14.332  65.839  1.00  0.00    -0.416 C  
HETATM    3  C   UNL     1     -10.822  14.652  66.582  1.00  0.00    -0.312 C  
HETATM    4  C   UNL     1      -9.822  13.832  67.017  1.00  0.00    -0.251 C  
ENDROOT
BRANCH   3   5
HETATM    5  C   UNL     1     -10.741  16.133  66.785  1.00  0.00    -0.235 A  
HETATM    6  C   UNL     1     -10.642  16.986  65.677  1.00  0.00    -0.206 A  
HETATM    7  C   UNL     1     -10.829  16.691  68.068  1.00  0.00    -0.337 A  
HETATM    8  C   UNL     1     -10.823  18.080  68.238  1.00  0.00    -0.084 A  
HETATM    9  C   UNL     1     -10.643  18.373  65.849  1.00  0.00    -0.313 A  
HETATM   10  C   UNL     1     -10.736  18.919  67.127  1.00  0.00    -0.506 A  
ENDBRANCH   3   5
BRANCH   4  11
HETATM   11  C   UNL     1      -9.887  12.363  66.849  1.00  0.00    -0.219 A  
HETATM   12  C   UNL     1     -10.493  11.555  67.822  1.00  0.00    -0.216 A  
HETATM   13  C   UNL     1     -10.582  10.173  67.635  1.00  0.00    -0.316 A  
HETATM   14  C   UNL     1      -9.402  10.380  65.537  1.00  0.00    -0.244 A  
HETATM   15  C   UNL     1      -9.314  11.760  65.721  1.00  0.00    -0.197 A  
HETATM   16  C   UNL     1     -10.046   9.589  66.487  1.00  0.00    -0.326 A  
ENDBRANCH   4  11
BRANCH   4  17
HETATM   17  C   UNL     1      -8.626  14.423  67.679  1.00  0.00    -0.189 A  
HETATM   18  C   UNL     1      -6.599  15.764  67.613  1.00  0.00    -0.196 A  
HETATM   19  C   UNL     1      -6.452  15.628  68.994  1.00  0.00    -0.126 A  
HETATM   20  C   UNL     1      -7.372  14.840  69.699  1.00  0.00    -0.114 A  
HETATM   21  C   UNL     1      -8.446  14.235  69.049  1.00  0.00     0.049 A  
HETATM   22  C   UNL     1      -7.683  15.167  66.957  1.00  0.00    -0.158 A  
BRANCH  19  23
HETATM   23  O   UNL     1      -5.398  16.306  69.567  1.00  0.00    -0.119 OA 
BRANCH  23  24
HETATM   24  C   UNL     1      -5.308  17.671  69.146  1.00  0.00    -0.178 C  
BRANCH  24  25
HETATM   25  C   UNL     1      -5.464  18.670  70.299  1.00  0.00    -0.233 C  
BRANCH  25  26
HETATM   26  N   UNL     1      -6.331  19.811  69.916  1.00  0.00    -0.337 NA 
HETATM   27  C   UNL     1      -7.331  19.391  68.935  1.00  0.00    -0.367 C  
HETATM   28  C   UNL     1      -5.567  20.946  69.389  1.00  0.00    -0.345 C  
ENDBRANCH  25  26
ENDBRANCH  24  25
ENDBRANCH  23  24
ENDBRANCH  19  23
ENDBRANCH   4  17
TORSDOF 7
ENDMDL
MODEL       38
REMARK 921   NORMALIZED FREE ENERGY PREDICTED BY IDOCK:   -5.02 KCAL/MOL
REMARK 922        TOTAL FREE ENERGY PREDICTED BY IDOCK:   -9.07 KCAL/MOL
REMARK 923 INTER-LIGAND FREE ENERGY PREDICTED BY IDOCK:   -7.39 KCAL/MOL
REMARK 924 INTRA-LIGAND FREE ENERGY PREDICTED BY IDOCK:   -1.67 KCAL/MOL
REMARK 927      BINDING AFFINITY PREDICTED BY RF-SCORE:    0.00 PKD
ROOT
HETATM    1  C   UNL     1     -12.056  13.904  69.189  1.00  0.00    -0.377 C  
HETATM    2  C   UNL     1     -11.863  12.586  69.923  1.00  0.00    -0.373 C  
HETATM    3  C   UNL     1     -11.233  11.362  69.259  1.00  0.00    -0.342 C  
HETATM    4  C   UNL     1     -10.750  11.187  67.995  1.00  0.00    -0.254 C  
ENDROOT
BRANCH   3   5
HETATM    5  C   UNL     1     -11.171  10.253  70.263  1.00  0.00    -0.395 A  
HETATM    6  C   UNL     1      -9.928   9.773  70.699  1.00  0.00    -0.215 A  
HETATM    7  C   UNL     1     -12.340   9.726  70.829  1.00  0.00    -0.321 A  
HETATM    8  C   UNL     1     -12.266   8.740  71.818  1.00  0.00    -0.415 A  
HETATM    9  C   UNL     1      -9.856   8.793  71.692  1.00  0.00    -0.378 A  
HETATM   10  C   UNL     1     -11.024   8.279  72.253  1.00  0.00    -0.418 A  
ENDBRANCH   3   5
BRANCH   4  11
HETATM   11  C   UNL     1     -10.818  12.259  66.977  1.00  0.00    -0.288 A  
HETATM   12  C   UNL     1     -11.889  12.324  66.074  1.00  0.00    -0.409 A  
HETATM   13  C   UNL     1     -11.963  13.362  65.142  1.00  0.00    -0.406 A  
HETATM   14  C   UNL     1      -9.865  14.242  65.953  1.00  0.00    -0.322 A  
HETATM   15  C   UNL     1      -9.790  13.207  66.887  1.00  0.00    -0.249 A  
HETATM   16  C   UNL     1     -10.956  14.326  65.090  1.00  0.00    -0.369 A  
ENDBRANCH   4  11
BRANCH   4  17
HETATM   17  C   UNL     1     -10.131   9.884  67.621  1.00  0.00    -0.241 A  
HETATM   18  C   UNL     1     -10.312   7.542  66.994  1.00  0.00    -0.395 A  
HETATM   19  C   UNL     1      -8.932   7.480  66.791  1.00  0.00    -0.144 A  
HETATM   20  C   UNL     1      -8.156   8.615  67.059  1.00  0.00    -0.100 A  
HETATM   21  C   UNL     1      -8.746   9.806  67.478  1.00  0.00    -0.125 A  
HETATM   22  C   UNL     1     -10.911   8.740  67.405  1.00  0.00    -0.087 A  
BRANCH  19  23
HETATM   23  O   UNL     1      -8.437   6.283  66.320  1.00  0.00    -0.123 OA 
BRANCH  23  24
HETATM   24  C   UNL     1      -9.449   5.289  66.127  1.00  0.00    -0.158 C  
BRANCH  24  25
HETATM   25  C   UNL     1      -8.971   4.095  65.293  1.00  0.00    -0.134 C  
BRANCH  25  26
HETATM   26  N   UNL     1      -8.607   2.942  66.152  1.00  0.00    -0.113 NA 
HETATM   27  C   UNL     1      -9.306   3.015  67.434  1.00  0.00    -0.175 C  
HETATM   28  C   UNL     1      -7.161   2.844  66.380  1.00  0.00    -0.066 C  
ENDBRANCH  25  26
ENDBRANCH  24  25
ENDBRANCH  23  24
ENDBRANCH  19  23
ENDBRANCH   4  17
TORSDOF 7
ENDMDL
MODEL       39
REMARK 921   NORMALIZED FREE ENERGY PREDICTED BY IDOCK:   -4.99 KCAL/MOL
REMARK 922        TOTAL FREE ENERGY PREDICTED BY IDOCK:   -9.02 KCAL/MOL
REMARK 923 INTER-LIGAND FREE ENERGY PREDICTED BY IDOCK:   -6.85 KCAL/MOL
REMARK 924 INTRA-LIGAND FREE ENERGY PREDICTED BY IDOCK:   -2.18 KCAL/MOL
REMARK 927      BINDING AFFINITY PREDICTED BY RF-SCORE:    0.00 PKD
ROOT
HETATM    1  C   UNL     1      -8.718  16.661  66.133  1.00  0.00    -0.322 C  
HETATM    2  C   UNL     1      -9.633  15.644  65.468  1.00  0.00    -0.237 C  
HETATM    3  C   UNL     1      -9.781  14.213  65.987  1.00  0.00    -0.297 C  
HETATM    4  C   UNL     1      -9.196  13.587  67.049  1.00  0.00    -0.248 C  
ENDROOT
BRANCH   3   5
HETATM    5  C   UNL     1     -10.771  13.493  65.124  1.00  0.00    -0.349 A  
HETATM    6  C   UNL     1     -10.322  12.689  64.067  1.00  0.00    -0.414 A  
HETATM    7  C   UNL     1     -12.145  13.554  65.396  1.00  0.00    -0.447 A  
HETATM    8  C   UNL     1     -13.053  12.821  64.626  1.00  0.00    -0.051 A  
HETATM    9  C   UNL     1     -11.230  11.952  63.303  1.00  0.00    -0.382 A  
HETATM   10  C   UNL     1     -12.594  12.015  63.584  1.00  0.00    -0.605 A  
ENDBRANCH   3   5
BRANCH   4  11
HETATM   11  C   UNL     1      -8.199  14.269  67.905  1.00  0.00    -0.156 A  
HETATM   12  C   UNL     1      -8.599  14.981  69.045  1.00  0.00    -0.205 A  
HETATM   13  C   UNL     1      -7.647  15.588  69.867  1.00  0.00     0.044 A  
HETATM   14  C   UNL     1      -5.891  14.841  68.386  1.00  0.00    -0.104 A  
HETATM   15  C   UNL     1      -6.841  14.232  67.565  1.00  0.00    -0.158 A  
HETATM   16  C   UNL     1      -6.292  15.508  69.542  1.00  0.00    -0.155 A  
ENDBRANCH   4  11
BRANCH   4  17
HETATM   17  C   UNL     1      -9.566  12.179  67.364  1.00  0.00    -0.177 A  
HETATM   18  C   UNL     1     -11.038  10.543  68.398  1.00  0.00    -0.335 A  
HETATM   19  C   UNL     1     -10.300   9.505  67.827  1.00  0.00    -0.239 A  
HETATM   20  C   UNL     1      -9.164   9.818  67.069  1.00  0.00    -0.166 A  
HETATM   21  C   UNL     1      -8.792  11.141  66.844  1.00  0.00    -0.157 A  
HETATM   22  C   UNL     1     -10.674  11.876  68.166  1.00  0.00    -0.246 A  
BRANCH  19  23
HETATM   23  O   UNL     1     -10.769   8.228  68.050  1.00  0.00    -0.162 OA 
BRANCH  23  24
HETATM   24  C   UNL     1      -9.804   7.371  68.669  1.00  0.00    -0.163 C  
BRANCH  24  25
HETATM   25  C   UNL     1      -9.715   7.560  70.187  1.00  0.00    -0.172 C  
BRANCH  25  26
HETATM   26  N   UNL     1     -11.054   7.766  70.789  1.00  0.00    -0.254 NA 
HETATM   27  C   UNL     1     -10.996   8.782  71.840  1.00  0.00    -0.365 C  
HETATM   28  C   UNL     1     -11.625   6.527  71.330  1.00  0.00    -0.327 C  
ENDBRANCH  25  26
ENDBRANCH  24  25
ENDBRANCH  23  24
ENDBRANCH  19  23
ENDBRANCH   4  17
TORSDOF 7
ENDMDL
MODEL       40
REMARK 921   NORMALIZED FREE ENERGY PREDICTED BY IDOCK:   -4.97 KCAL/MOL
REMARK 922        TOTAL FREE ENERGY PREDICTED BY IDOCK:   -9.00 KCAL/MOL
REMARK 923 INTER-LIGAND FREE ENERGY PREDICTED BY IDOCK:   -7.51 KCAL/MOL
REMARK 924 INTRA-LIGAND FREE ENERGY PREDICTED BY IDOCK:   -1.49 KCAL/MOL
REMARK 927      BINDING AFFINITY PREDICTED BY RF-SCORE:    0.00 PKD
ROOT
HETATM    1  C   UNL     1      -8.448   6.265  73.421  1.00  0.00    -0.122 C  
HETATM    2  C   UNL     1      -9.859   6.744  73.121  1.00  0.00    -0.201 C  
HETATM    3  C   UNL     1     -10.188   7.621  71.913  1.00  0.00    -0.234 C  
HETATM    4  C   UNL     1      -9.382   8.121  70.932  1.00  0.00    -0.173 C  
ENDROOT
BRANCH   3   5
HETATM    5  C   UNL     1     -11.662   7.886  71.902  1.00  0.00    -0.342 A  
HETATM    6  C   UNL     1     -12.162   9.083  72.434  1.00  0.00    -0.322 A  
HETATM    7  C   UNL     1     -12.552   6.982  71.306  1.00  0.00    -0.418 A  
HETATM    8  C   UNL     1     -13.919   7.274  71.240  1.00  0.00    -0.342 A  
HETATM    9  C   UNL     1     -13.526   9.375  72.360  1.00  0.00    -0.506 A  
HETATM   10  C   UNL     1     -14.403   8.473  71.761  1.00  0.00    -0.522 A  
ENDBRANCH   3   5
BRANCH   4  11
HETATM   11  C   UNL     1      -7.920   7.893  70.930  1.00  0.00    -0.093 A  
HETATM   12  C   UNL     1      -7.060   8.738  71.647  1.00  0.00    -0.091 A  
HETATM   13  C   UNL     1      -5.686   8.491  71.669  1.00  0.00    -0.042 A  
HETATM   14  C   UNL     1      -6.002   6.595  70.205  1.00  0.00    -0.023 A  
HETATM   15  C   UNL     1      -7.375   6.839  70.183  1.00  0.00    -0.085 A  
HETATM   16  C   UNL     1      -5.159   7.413  70.956  1.00  0.00    -0.023 A  
ENDBRANCH   4  11
BRANCH   4  17
HETATM   17  C   UNL     1      -9.983   8.918  69.826  1.00  0.00    -0.196 A  
HETATM   18  C   UNL     1     -10.964  10.970  68.968  1.00  0.00    -0.284 A  
HETATM   19  C   UNL     1     -10.989  10.431  67.681  1.00  0.00    -0.312 A  
HETATM   20  C   UNL     1     -10.556   9.112  67.490  1.00  0.00    -0.317 A  
HETATM   21  C   UNL     1     -10.064   8.357  68.551  1.00  0.00    -0.218 A  
HETATM   22  C   UNL     1     -10.460  10.218  70.037  1.00  0.00    -0.293 A  
BRANCH  19  23
HETATM   23  O   UNL     1     -11.435  11.265  66.677  1.00  0.00    -0.373 OA 
BRANCH  23  24
HETATM   24  C   UNL     1     -10.826  12.560  66.706  1.00  0.00    -0.249 C  
BRANCH  24  25
HETATM   25  C   UNL     1     -10.392  13.053  65.321  1.00  0.00    -0.304 C  
BRANCH  25  26
HETATM   26  N   UNL     1     -11.492  13.767  64.628  1.00  0.00    -0.356 NA 
HETATM   27  C   UNL     1     -12.568  14.087  65.565  1.00  0.00    -0.516 C  
HETATM   28  C   UNL     1     -12.032  13.006  63.495  1.00  0.00    -0.545 C  
ENDBRANCH  25  26
ENDBRANCH  24  25
ENDBRANCH  23  24
ENDBRANCH  19  23
ENDBRANCH   4  17
TORSDOF 7
ENDMDL
MODEL       41
REMARK 921   NORMALIZED FREE ENERGY PREDICTED BY IDOCK:   -4.97 KCAL/MOL
REMARK 922        TOTAL FREE ENERGY PREDICTED BY IDOCK:   -8.99 KCAL/MOL
REMARK 923 INTER-LIGAND FREE ENERGY PREDICTED BY IDOCK:   -6.86 KCAL/MOL
REMARK 924 INTRA-LIGAND FREE ENERGY PREDICTED BY IDOCK:   -2.13 KCAL/MOL
REMARK 927      BINDING AFFINITY PREDICTED BY RF-SCORE:    0.00 PKD
ROOT
HETATM    1  C   UNL     1      -8.435   8.944  63.279  1.00  0.00    -0.155 C  
HETATM    2  C   UNL     1      -9.310  10.176  63.442  1.00  0.00    -0.334 C  
HETATM    3  C   UNL     1      -9.797  10.661  64.809  1.00  0.00    -0.372 C  
HETATM    4  C   UNL     1      -9.582  10.159  66.058  1.00  0.00    -0.265 C  
ENDROOT
BRANCH   3   5
HETATM    5  C   UNL     1     -10.609  11.905  64.612  1.00  0.00    -0.353 A  
HETATM    6  C   UNL     1     -11.967  11.808  64.280  1.00  0.00    -0.277 A  
HETATM    7  C   UNL     1     -10.048  13.172  64.821  1.00  0.00    -0.244 A  
HETATM    8  C   UNL     1     -10.834  14.323  64.703  1.00  0.00    -0.384 A  
HETATM    9  C   UNL     1     -12.753  12.958  64.169  1.00  0.00    -0.256 A  
HETATM   10  C   UNL     1     -12.188  14.214  64.384  1.00  0.00    -0.466 A  
ENDBRANCH   3   5
BRANCH   4  11
HETATM   11  C   UNL     1      -8.802   8.920  66.279  1.00  0.00    -0.187 A  
HETATM   12  C   UNL     1      -9.439   7.673  66.351  1.00  0.00    -0.224 A  
HETATM   13  C   UNL     1      -8.690   6.507  66.522  1.00  0.00    -0.135 A  
HETATM   14  C   UNL     1      -6.665   7.822  66.620  1.00  0.00    -0.066 A  
HETATM   15  C   UNL     1      -7.412   8.988  66.448  1.00  0.00    -0.092 A  
HETATM   16  C   UNL     1      -7.302   6.582  66.646  1.00  0.00    -0.078 A  
ENDBRANCH   4  11
BRANCH   4  17
HETATM   17  C   UNL     1     -10.142  10.871  67.241  1.00  0.00    -0.225 A  
HETATM   18  C   UNL     1     -10.031  12.626  68.920  1.00  0.00     0.090 A  
HETATM   19  C   UNL     1     -11.296  12.269  69.390  1.00  0.00    -0.228 A  
HETATM   20  C   UNL     1     -11.951  11.175  68.809  1.00  0.00    -0.337 A  
HETATM   21  C   UNL     1     -11.378  10.475  67.749  1.00  0.00    -0.267 A  
HETATM   22  C   UNL     1      -9.456  11.932  67.848  1.00  0.00    -0.194 A  
BRANCH  19  23
HETATM   23  O   UNL     1     -11.816  13.049  70.401  1.00  0.00    -0.285 OA 
BRANCH  23  24
HETATM   24  C   UNL     1     -12.269  14.330  69.951  1.00  0.00    -0.352 C  
BRANCH  24  25
HETATM   25  C   UNL     1     -11.425  15.492  70.487  1.00  0.00    -0.347 C  
BRANCH  25  26
HETATM   26  N   UNL     1     -10.777  16.246  69.387  1.00  0.00    -0.296 NA 
HETATM   27  C   UNL     1     -11.372  15.891  68.099  1.00  0.00    -0.311 C  
HETATM   28  C   UNL     1      -9.326  16.035  69.337  1.00  0.00    -0.218 C  
ENDBRANCH  25  26
ENDBRANCH  24  25
ENDBRANCH  23  24
ENDBRANCH  19  23
ENDBRANCH   4  17
TORSDOF 7
ENDMDL
MODEL       42
REMARK 921   NORMALIZED FREE ENERGY PREDICTED BY IDOCK:   -4.96 KCAL/MOL
REMARK 922        TOTAL FREE ENERGY PREDICTED BY IDOCK:   -8.98 KCAL/MOL
REMARK 923 INTER-LIGAND FREE ENERGY PREDICTED BY IDOCK:   -7.06 KCAL/MOL
REMARK 924 INTRA-LIGAND FREE ENERGY PREDICTED BY IDOCK:   -1.93 KCAL/MOL
REMARK 927      BINDING AFFINITY PREDICTED BY RF-SCORE:    0.00 PKD
ROOT
HETATM    1  C   UNL     1      -9.121   3.039  69.873  1.00  0.00    -0.196 C  
HETATM    2  C   UNL     1      -9.833   4.207  70.538  1.00  0.00    -0.252 C  
HETATM    3  C   UNL     1      -9.876   5.603  69.916  1.00  0.00    -0.250 C  
HETATM    4  C   UNL     1      -9.348   6.073  68.750  1.00  0.00    -0.128 C  
ENDROOT
BRANCH   3   5
HETATM    5  C   UNL     1     -10.674   6.500  70.812  1.00  0.00    -0.290 A  
HETATM    6  C   UNL     1     -10.040   7.187  71.857  1.00  0.00    -0.197 A  
HETATM    7  C   UNL     1     -12.039   6.719  70.583  1.00  0.00    -0.371 A  
HETATM    8  C   UNL     1     -12.757   7.613  71.384  1.00  0.00    -0.357 A  
HETATM    9  C   UNL     1     -10.758   8.085  72.651  1.00  0.00    -0.426 A  
HETATM   10  C   UNL     1     -12.114   8.300  72.413  1.00  0.00    -0.430 A  
ENDBRANCH   3   5
BRANCH   4  11
HETATM   11  C   UNL     1      -8.538   5.214  67.857  1.00  0.00    -0.103 A  
HETATM   12  C   UNL     1      -7.137   5.256  67.897  1.00  0.00    -0.067 A  
HETATM   13  C   UNL     1      -6.383   4.414  67.076  1.00  0.00    -0.040 A  
HETATM   14  C   UNL     1      -8.415   3.528  66.116  1.00  0.00    -0.112 A  
HETATM   15  C   UNL     1      -9.170   4.367  66.937  1.00  0.00    -0.150 A  
HETATM   16  C   UNL     1      -7.023   3.543  66.194  1.00  0.00    -0.062 A  
ENDBRANCH   4  11
BRANCH   4  17
HETATM   17  C   UNL     1      -9.589   7.489  68.354  1.00  0.00    -0.152 A  
HETATM   18  C   UNL     1      -9.030   9.853  68.452  1.00  0.00    -0.120 A  
HETATM   19  C   UNL     1      -9.994  10.131  67.482  1.00  0.00    -0.191 A  
HETATM   20  C   UNL     1     -10.786   9.083  66.994  1.00  0.00    -0.185 A  
HETATM   21  C   UNL     1     -10.593   7.774  67.430  1.00  0.00    -0.345 A  
HETATM   22  C   UNL     1      -8.826   8.537  68.886  1.00  0.00    -0.139 A  
BRANCH  19  23
HETATM   23  O   UNL     1     -10.080  11.442  67.063  1.00  0.00    -0.201 OA 
BRANCH  23  24
HETATM   24  C   UNL     1     -11.020  11.635  66.001  1.00  0.00    -0.286 C  
BRANCH  24  25
HETATM   25  C   UNL     1     -11.987  12.797  66.254  1.00  0.00    -0.395 C  
BRANCH  25  26
HETATM   26  N   UNL     1     -12.590  13.288  64.992  1.00  0.00    -0.620 NA 
HETATM   27  C   UNL     1     -12.409  12.310  63.920  1.00  0.00    -0.509 C  
HETATM   28  C   UNL     1     -12.047  14.586  64.575  1.00  0.00    -0.484 C  
ENDBRANCH  25  26
ENDBRANCH  24  25
ENDBRANCH  23  24
ENDBRANCH  19  23
ENDBRANCH   4  17
TORSDOF 7
ENDMDL
MODEL       43
REMARK 921   NORMALIZED FREE ENERGY PREDICTED BY IDOCK:   -4.96 KCAL/MOL
REMARK 922        TOTAL FREE ENERGY PREDICTED BY IDOCK:   -8.98 KCAL/MOL
REMARK 923 INTER-LIGAND FREE ENERGY PREDICTED BY IDOCK:   -6.77 KCAL/MOL
REMARK 924 INTRA-LIGAND FREE ENERGY PREDICTED BY IDOCK:   -2.21 KCAL/MOL
REMARK 927      BINDING AFFINITY PREDICTED BY RF-SCORE:    0.00 PKD
ROOT
HETATM    1  C   UNL     1      -8.155   7.485  71.144  1.00  0.00    -0.100 C  
HETATM    2  C   UNL     1      -7.663   8.596  70.229  1.00  0.00    -0.083 C  
HETATM    3  C   UNL     1      -8.615   9.580  69.547  1.00  0.00    -0.171 C  
HETATM    4  C   UNL     1      -9.974   9.680  69.598  1.00  0.00    -0.239 C  
ENDROOT
BRANCH   3   5
HETATM    5  C   UNL     1      -7.804  10.550  68.746  1.00  0.00    -0.116 A  
HETATM    6  C   UNL     1      -7.435  11.782  69.303  1.00  0.00     0.109 A  
HETATM    7  C   UNL     1      -7.346  10.220  67.462  1.00  0.00    -0.089 A  
HETATM    8  C   UNL     1      -6.531  11.107  66.751  1.00  0.00    -0.127 A  
HETATM    9  C   UNL     1      -6.614  12.663  68.595  1.00  0.00    -0.083 A  
HETATM   10  C   UNL     1      -6.160  12.325  67.321  1.00  0.00    -0.153 A  
ENDBRANCH   3   5
BRANCH   4  11
HETATM   11  C   UNL     1     -10.801   8.722  70.365  1.00  0.00    -0.256 A  
HETATM   12  C   UNL     1     -11.160   7.483  69.815  1.00  0.00    -0.143 A  
HETATM   13  C   UNL     1     -11.909   6.571  70.562  1.00  0.00    -0.393 A  
HETATM   14  C   UNL     1     -12.009   8.148  72.390  1.00  0.00    -0.431 A  
HETATM   15  C   UNL     1     -11.259   9.059  71.645  1.00  0.00    -0.431 A  
HETATM   16  C   UNL     1     -12.324   6.900  71.853  1.00  0.00    -0.364 A  
ENDBRANCH   4  11
BRANCH   4  17
HETATM   17  C   UNL     1     -10.655  10.784  68.864  1.00  0.00    -0.246 A  
HETATM   18  C   UNL     1     -11.622  13.013  68.790  1.00  0.00    -0.350 A  
HETATM   19  C   UNL     1     -11.820  12.892  67.413  1.00  0.00    -0.360 A  
HETATM   20  C   UNL     1     -11.478  11.688  66.783  1.00  0.00    -0.299 A  
HETATM   21  C   UNL     1     -10.907  10.638  67.500  1.00  0.00    -0.351 A  
HETATM   22  C   UNL     1     -11.040  11.965  69.513  1.00  0.00    -0.169 A  
BRANCH  19  23
HETATM   23  O   UNL     1     -12.334  13.997  66.769  1.00  0.00    -0.439 OA 
BRANCH  23  24
HETATM   24  C   UNL     1     -11.540  14.423  65.657  1.00  0.00    -0.347 C  
BRANCH  24  25
HETATM   25  C   UNL     1     -10.337  15.280  66.067  1.00  0.00    -0.312 C  
BRANCH  25  26
HETATM   26  N   UNL     1     -10.758  16.482  66.827  1.00  0.00    -0.219 NA 
HETATM   27  C   UNL     1     -10.357  17.701  66.126  1.00  0.00    -0.334 C  
HETATM   28  C   UNL     1     -10.226  16.498  68.194  1.00  0.00    -0.271 C  
ENDBRANCH  25  26
ENDBRANCH  24  25
ENDBRANCH  23  24
ENDBRANCH  19  23
ENDBRANCH   4  17
TORSDOF 7
ENDMDL
MODEL       44
REMARK 921   NORMALIZED FREE ENERGY PREDICTED BY IDOCK:   -4.95 KCAL/MOL
REMARK 922        TOTAL FREE ENERGY PREDICTED BY IDOCK:   -8.96 KCAL/MOL
REMARK 923 INTER-LIGAND FREE ENERGY PREDICTED BY IDOCK:   -6.77 KCAL/MOL
REMARK 924 INTRA-LIGAND FREE ENERGY PREDICTED BY IDOCK:   -2.19 KCAL/MOL
REMARK 927      BINDING AFFINITY PREDICTED BY RF-SCORE:    0.00 PKD
ROOT
HETATM    1  C   UNL     1     -10.536   7.740  67.590  1.00  0.00    -0.283 C  
HETATM    2  C   UNL     1     -10.775   8.964  66.720  1.00  0.00    -0.098 C  
HETATM    3  C   UNL     1     -10.133  10.320  67.019  1.00  0.00    -0.268 C  
HETATM    4  C   UNL     1      -9.290  10.702  68.021  1.00  0.00    -0.151 C  
ENDROOT
BRANCH   3   5
HETATM    5  C   UNL     1     -10.555  11.291  65.961  1.00  0.00    -0.314 A  
HETATM    6  C   UNL     1      -9.935  11.269  64.704  1.00  0.00    -0.331 A  
HETATM    7  C   UNL     1     -11.612  12.185  66.182  1.00  0.00    -0.418 A  
HETATM    8  C   UNL     1     -12.043  13.039  65.161  1.00  0.00    -0.476 A  
HETATM    9  C   UNL     1     -10.371  12.118  63.683  1.00  0.00    -0.482 A  
HETATM   10  C   UNL     1     -11.426  12.999  63.911  1.00  0.00    -0.490 A  
ENDBRANCH   3   5
BRANCH   4  11
HETATM   11  C   UNL     1      -8.874   9.769  69.092  1.00  0.00    -0.160 A  
HETATM   12  C   UNL     1      -9.581   9.703  70.302  1.00  0.00    -0.307 A  
HETATM   13  C   UNL     1      -9.202   8.792  71.290  1.00  0.00    -0.309 A  
HETATM   14  C   UNL     1      -7.368   8.048  69.905  1.00  0.00    -0.066 A  
HETATM   15  C   UNL     1      -7.746   8.957  68.915  1.00  0.00    -0.095 A  
HETATM   16  C   UNL     1      -8.103   7.958  71.087  1.00  0.00    -0.093 A  
ENDBRANCH   4  11
BRANCH   4  17
HETATM   17  C   UNL     1      -8.765  12.097  68.045  1.00  0.00    -0.180 A  
HETATM   18  C   UNL     1      -8.928  14.422  68.734  1.00  0.00    -0.131 A  
HETATM   19  C   UNL     1      -7.676  14.685  68.177  1.00  0.00    -0.125 A  
HETATM   20  C   UNL     1      -7.002  13.654  67.509  1.00  0.00    -0.157 A  
HETATM   21  C   UNL     1      -7.542  12.372  67.435  1.00  0.00    -0.160 A  
HETATM   22  C   UNL     1      -9.471  13.133  68.671  1.00  0.00    -0.012 A  
BRANCH  19  23
HETATM   23  O   UNL     1      -7.187  15.963  68.346  1.00  0.00    -0.116 OA 
BRANCH  23  24
HETATM   24  C   UNL     1      -8.209  16.965  68.331  1.00  0.00    -0.232 C  
BRANCH  24  25
HETATM   25  C   UNL     1      -8.478  17.533  66.933  1.00  0.00    -0.239 C  
BRANCH  25  26
HETATM   26  N   UNL     1      -9.930  17.682  66.676  1.00  0.00    -0.313 NA 
HETATM   27  C   UNL     1     -10.407  16.623  65.788  1.00  0.00    -0.321 C  
HETATM   28  C   UNL     1     -10.271  18.993  66.112  1.00  0.00    -0.446 C  
ENDBRANCH  25  26
ENDBRANCH  24  25
ENDBRANCH  23  24
ENDBRANCH  19  23
ENDBRANCH   4  17
TORSDOF 7
ENDMDL
MODEL       45
REMARK 921   NORMALIZED FREE ENERGY PREDICTED BY IDOCK:   -4.93 KCAL/MOL
REMARK 922        TOTAL FREE ENERGY PREDICTED BY IDOCK:   -8.93 KCAL/MOL
REMARK 923 INTER-LIGAND FREE ENERGY PREDICTED BY IDOCK:   -6.79 KCAL/MOL
REMARK 924 INTRA-LIGAND FREE ENERGY PREDICTED BY IDOCK:   -2.14 KCAL/MOL
REMARK 927      BINDING AFFINITY PREDICTED BY RF-SCORE:    0.00 PKD
ROOT
HETATM    1  C   UNL     1     -12.761  10.803  71.864  1.00  0.00    -0.368 C  
HETATM    2  C   UNL     1     -12.281  11.531  70.618  1.00  0.00    -0.473 C  
HETATM    3  C   UNL     1     -11.313  10.896  69.618  1.00  0.00    -0.362 C  
HETATM    4  C   UNL     1     -10.724   9.666  69.612  1.00  0.00    -0.260 C  
ENDROOT
BRANCH   3   5
HETATM    5  C   UNL     1     -11.072  11.867  68.505  1.00  0.00    -0.290 A  
HETATM    6  C   UNL     1     -11.883  11.837  67.362  1.00  0.00    -0.210 A  
HETATM    7  C   UNL     1     -10.084  12.856  68.613  1.00  0.00    -0.136 A  
HETATM    8  C   UNL     1      -9.915  13.802  67.596  1.00  0.00    -0.238 A  
HETATM    9  C   UNL     1     -11.717  12.787  66.351  1.00  0.00    -0.464 A  
HETATM   10  C   UNL     1     -10.737  13.770  66.469  1.00  0.00    -0.284 A  
ENDBRANCH   3   5
BRANCH   4  11
HETATM   11  C   UNL     1     -10.928   8.695  70.710  1.00  0.00    -0.286 A  
HETATM   12  C   UNL     1     -10.148   8.752  71.874  1.00  0.00    -0.409 A  
HETATM   13  C   UNL     1     -10.375   7.854  72.920  1.00  0.00    -0.413 A  
HETATM   14  C   UNL     1     -12.116   6.788  71.629  1.00  0.00    -0.404 A  
HETATM   15  C   UNL     1     -11.892   7.685  70.583  1.00  0.00    -0.169 A  
HETATM   16  C   UNL     1     -11.366   6.880  72.800  1.00  0.00    -0.237 A  
ENDBRANCH   4  11
BRANCH   4  17
HETATM   17  C   UNL     1      -9.849   9.278  68.470  1.00  0.00    -0.173 A  
HETATM   18  C   UNL     1      -9.544   8.447  66.206  1.00  0.00    -0.286 A  
HETATM   19  C   UNL     1      -8.171   8.683  66.294  1.00  0.00    -0.116 A  
HETATM   20  C   UNL     1      -7.643   9.169  67.497  1.00  0.00    -0.088 A  
HETATM   21  C   UNL     1      -8.470   9.457  68.580  1.00  0.00    -0.119 A  
HETATM   22  C   UNL     1     -10.381   8.745  67.289  1.00  0.00    -0.360 A  
BRANCH  19  23
HETATM   23  O   UNL     1      -7.433   8.426  65.158  1.00  0.00    -0.079 OA 
BRANCH  23  24
HETATM   24  C   UNL     1      -8.108   7.577  64.225  1.00  0.00    -0.064 C  
BRANCH  24  25
HETATM   25  C   UNL     1      -7.665   6.112  64.311  1.00  0.00    -0.106 C  
BRANCH  25  26
HETATM   26  N   UNL     1      -8.725   5.257  64.897  1.00  0.00    -0.145 NA 
HETATM   27  C   UNL     1      -8.308   4.740  66.200  1.00  0.00    -0.111 C  
HETATM   28  C   UNL     1      -9.099   4.142  64.019  1.00  0.00    -0.144 C  
ENDBRANCH  25  26
ENDBRANCH  24  25
ENDBRANCH  23  24
ENDBRANCH  19  23
ENDBRANCH   4  17
TORSDOF 7
ENDMDL
MODEL       46
REMARK 921   NORMALIZED FREE ENERGY PREDICTED BY IDOCK:   -4.92 KCAL/MOL
REMARK 922        TOTAL FREE ENERGY PREDICTED BY IDOCK:   -8.92 KCAL/MOL
REMARK 923 INTER-LIGAND FREE ENERGY PREDICTED BY IDOCK:   -6.84 KCAL/MOL
REMARK 924 INTRA-LIGAND FREE ENERGY PREDICTED BY IDOCK:   -2.09 KCAL/MOL
REMARK 927      BINDING AFFINITY PREDICTED BY RF-SCORE:    0.00 PKD
ROOT
HETATM    1  C   UNL     1     -10.623   6.782  73.697  1.00  0.00    -0.347 C  
HETATM    2  C   UNL     1      -9.419   6.527  72.803  1.00  0.00    -0.150 C  
HETATM    3  C   UNL     1      -9.372   6.977  71.342  1.00  0.00    -0.155 C  
HETATM    4  C   UNL     1     -10.294   7.640  70.587  1.00  0.00    -0.205 C  
ENDROOT
BRANCH   3   5
HETATM    5  C   UNL     1      -8.044   6.593  70.767  1.00  0.00    -0.119 A  
HETATM    6  C   UNL     1      -7.913   5.395  70.051  1.00  0.00    -0.082 A  
HETATM    7  C   UNL     1      -6.937   7.446  70.875  1.00  0.00    -0.059 A  
HETATM    8  C   UNL     1      -5.721   7.108  70.273  1.00  0.00    -0.024 A  
HETATM    9  C   UNL     1      -6.699   5.062  69.444  1.00  0.00    -0.052 A  
HETATM   10  C   UNL     1      -5.605   5.919  69.552  1.00  0.00    -0.012 A  
ENDBRANCH   3   5
BRANCH   4  11
HETATM   11  C   UNL     1     -11.622   8.013  71.124  1.00  0.00    -0.307 A  
HETATM   12  C   UNL     1     -11.855   9.297  71.637  1.00  0.00    -0.453 A  
HETATM   13  C   UNL     1     -13.122   9.650  72.106  1.00  0.00    -0.520 A  
HETATM   14  C   UNL     1     -13.923   7.423  71.621  1.00  0.00    -0.523 A  
HETATM   15  C   UNL     1     -12.658   7.069  71.150  1.00  0.00    -0.387 A  
HETATM   16  C   UNL     1     -14.158   8.716  72.088  1.00  0.00    -0.511 A  
ENDBRANCH   4  11
BRANCH   4  17
HETATM   17  C   UNL     1      -9.964   8.006  69.181  1.00  0.00    -0.188 A  
HETATM   18  C   UNL     1      -8.876   9.448  67.554  1.00  0.00    -0.123 A  
HETATM   19  C   UNL     1      -9.253   8.586  66.523  1.00  0.00    -0.190 A  
HETATM   20  C   UNL     1     -10.032   7.463  66.830  1.00  0.00    -0.307 A  
HETATM   21  C   UNL     1     -10.393   7.176  68.145  1.00  0.00    -0.234 A  
HETATM   22  C   UNL     1      -9.227   9.159  68.879  1.00  0.00    -0.139 A  
BRANCH  19  23
HETATM   23  O   UNL     1      -8.806   8.911  65.260  1.00  0.00    -0.191 OA 
BRANCH  23  24
HETATM   24  C   UNL     1      -8.862  10.314  64.984  1.00  0.00    -0.187 C  
BRANCH  24  25
HETATM   25  C   UNL     1     -10.242  10.782  64.508  1.00  0.00    -0.359 C  
BRANCH  25  26
HETATM   26  N   UNL     1     -10.535  12.163  64.960  1.00  0.00    -0.280 NA 
HETATM   27  C   UNL     1     -11.406  12.147  66.134  1.00  0.00    -0.361 C  
HETATM   28  C   UNL     1     -11.140  12.984  63.906  1.00  0.00    -0.371 C  
ENDBRANCH  25  26
ENDBRANCH  24  25
ENDBRANCH  23  24
ENDBRANCH  19  23
ENDBRANCH   4  17
TORSDOF 7
ENDMDL
MODEL       47
REMARK 921   NORMALIZED FREE ENERGY PREDICTED BY IDOCK:   -4.92 KCAL/MOL
REMARK 922        TOTAL FREE ENERGY PREDICTED BY IDOCK:   -8.92 KCAL/MOL
REMARK 923 INTER-LIGAND FREE ENERGY PREDICTED BY IDOCK:   -6.54 KCAL/MOL
REMARK 924 INTRA-LIGAND FREE ENERGY PREDICTED BY IDOCK:   -2.38 KCAL/MOL
REMARK 927      BINDING AFFINITY PREDICTED BY RF-SCORE:    0.00 PKD
ROOT
HETATM    1  C   UNL     1      -7.172  10.854  68.917  1.00  0.00    -0.095 C  
HETATM    2  C   UNL     1      -6.653  12.283  68.929  1.00  0.00    -0.094 C  
HETATM    3  C   UNL     1      -7.491  13.463  68.433  1.00  0.00    -0.117 C  
HETATM    4  C   UNL     1      -8.756  13.504  67.925  1.00  0.00    -0.183 C  
ENDROOT
BRANCH   3   5
HETATM    5  C   UNL     1      -6.694  14.720  68.608  1.00  0.00    -0.088 A  
HETATM    6  C   UNL     1      -5.930  15.217  67.543  1.00  0.00    -0.042 A  
HETATM    7  C   UNL     1      -6.751  15.449  69.804  1.00  0.00    -0.170 A  
HETATM    8  C   UNL     1      -6.059  16.658  69.930  1.00  0.00    -0.192 A  
HETATM    9  C   UNL     1      -5.245  16.428  67.668  1.00  0.00    -0.152 A  
HETATM   10  C   UNL     1      -5.311  17.149  68.859  1.00  0.00    -0.146 A  
ENDBRANCH   3   5
BRANCH   4  11
HETATM   11  C   UNL     1      -9.556  12.276  67.722  1.00  0.00    -0.200 A  
HETATM   12  C   UNL     1      -9.389  11.491  66.572  1.00  0.00    -0.210 A  
HETATM   13  C   UNL     1     -10.123  10.314  66.409  1.00  0.00    -0.296 A  
HETATM   14  C   UNL     1     -11.251  10.725  68.505  1.00  0.00    -0.340 A  
HETATM   15  C   UNL     1     -10.517  11.900  68.671  1.00  0.00    -0.231 A  
HETATM   16  C   UNL     1     -11.045   9.927  67.381  1.00  0.00    -0.101 A  
ENDBRANCH   4  11
BRANCH   4  17
HETATM   17  C   UNL     1      -9.358  14.818  67.563  1.00  0.00    -0.194 A  
HETATM   18  C   UNL     1     -10.529  16.862  68.162  1.00  0.00    -0.350 A  
HETATM   19  C   UNL     1     -10.366  17.348  66.864  1.00  0.00    -0.317 A  
HETATM   20  C   UNL     1      -9.742  16.534  65.910  1.00  0.00    -0.303 A  
HETATM   21  C   UNL     1      -9.248  15.276  66.250  1.00  0.00    -0.350 A  
HETATM   22  C   UNL     1     -10.026  15.603  68.512  1.00  0.00    -0.211 A  
BRANCH  19  23
HETATM   23  O   UNL     1     -10.830  18.624  66.625  1.00  0.00    -0.312 OA 
BRANCH  23  24
HETATM   24  C   UNL     1     -10.525  19.543  67.679  1.00  0.00    -0.467 C  
BRANCH  24  25
HETATM   25  C   UNL     1      -9.648  20.715  67.223  1.00  0.00    -0.417 C  
BRANCH  25  26
HETATM   26  N   UNL     1      -8.213  20.460  67.498  1.00  0.00    -0.310 NA 
HETATM   27  C   UNL     1      -7.546  19.937  66.308  1.00  0.00    -0.310 C  
HETATM   28  C   UNL     1      -8.011  19.541  68.624  1.00  0.00    -0.346 C  
ENDBRANCH  25  26
ENDBRANCH  24  25
ENDBRANCH  23  24
ENDBRANCH  19  23
ENDBRANCH   4  17
TORSDOF 7
ENDMDL
MODEL       48
REMARK 921   NORMALIZED FREE ENERGY PREDICTED BY IDOCK:   -4.92 KCAL/MOL
REMARK 922        TOTAL FREE ENERGY PREDICTED BY IDOCK:   -8.92 KCAL/MOL
REMARK 923 INTER-LIGAND FREE ENERGY PREDICTED BY IDOCK:   -6.89 KCAL/MOL
REMARK 924 INTRA-LIGAND FREE ENERGY PREDICTED BY IDOCK:   -2.02 KCAL/MOL
REMARK 927      BINDING AFFINITY PREDICTED BY RF-SCORE:    0.00 PKD
ROOT
HETATM    1  C   UNL     1      -9.009   6.084  69.320  1.00  0.00    -0.122 C  
HETATM    2  C   UNL     1      -8.680   6.890  68.073  1.00  0.00    -0.125 C  
HETATM    3  C   UNL     1      -8.942   8.394  67.977  1.00  0.00    -0.138 C  
HETATM    4  C   UNL     1      -9.470   9.264  68.885  1.00  0.00    -0.154 C  
ENDROOT
BRANCH   3   5
HETATM    5  C   UNL     1      -8.481   8.874  66.635  1.00  0.00    -0.122 A  
HETATM    6  C   UNL     1      -7.110   8.993  66.368  1.00  0.00    -0.080 A  
HETATM    7  C   UNL     1      -9.400   9.144  65.612  1.00  0.00    -0.300 A  
HETATM    8  C   UNL     1      -8.954   9.523  64.341  1.00  0.00    -0.255 A  
HETATM    9  C   UNL     1      -6.667   9.365  65.096  1.00  0.00    -0.080 A  
HETATM   10  C   UNL     1      -7.587   9.627  64.083  1.00  0.00    -0.128 A  
ENDBRANCH   3   5
BRANCH   4  11
HETATM   11  C   UNL     1      -9.953   8.813  70.210  1.00  0.00    -0.210 A  
HETATM   12  C   UNL     1     -11.275   8.381  70.384  1.00  0.00    -0.220 A  
HETATM   13  C   UNL     1     -11.709   7.923  71.630  1.00  0.00    -0.320 A  
HETATM   14  C   UNL     1      -9.529   8.385  72.561  1.00  0.00    -0.360 A  
HETATM   15  C   UNL     1      -9.093   8.842  71.316  1.00  0.00    -0.323 A  
HETATM   16  C   UNL     1     -10.832   7.915  72.714  1.00  0.00    -0.451 A  
ENDBRANCH   4  11
BRANCH   4  17
HETATM   17  C   UNL     1      -9.566  10.711  68.544  1.00  0.00    -0.175 A  
HETATM   18  C   UNL     1      -8.535  12.857  68.052  1.00  0.00    -0.178 A  
HETATM   19  C   UNL     1      -9.788  13.405  67.772  1.00  0.00    -0.234 A  
HETATM   20  C   UNL     1     -10.928  12.608  67.934  1.00  0.00    -0.262 A  
HETATM   21  C   UNL     1     -10.823  11.274  68.324  1.00  0.00    -0.249 A  
HETATM   22  C   UNL     1      -8.423  11.514  68.435  1.00  0.00    -0.159 A  
BRANCH  19  23
HETATM   23  O   UNL     1      -9.799  14.713  67.336  1.00  0.00    -0.220 OA 
BRANCH  23  24
HETATM   24  C   UNL     1     -10.909  15.015  66.484  1.00  0.00    -0.320 C  
BRANCH  24  25
HETATM   25  C   UNL     1     -10.687  14.587  65.029  1.00  0.00    -0.427 C  
BRANCH  25  26
HETATM   26  N   UNL     1     -11.966  14.244  64.362  1.00  0.00    -0.456 NA 
HETATM   27  C   UNL     1     -13.016  14.009  65.352  1.00  0.00    -0.310 C  
HETATM   28  C   UNL     1     -11.847  13.078  63.480  1.00  0.00    -0.516 C  
ENDBRANCH  25  26
ENDBRANCH  24  25
ENDBRANCH  23  24
ENDBRANCH  19  23
ENDBRANCH   4  17
TORSDOF 7
ENDMDL
MODEL       49
REMARK 921   NORMALIZED FREE ENERGY PREDICTED BY IDOCK:   -4.91 KCAL/MOL
REMARK 922        TOTAL FREE ENERGY PREDICTED BY IDOCK:   -8.90 KCAL/MOL
REMARK 923 INTER-LIGAND FREE ENERGY PREDICTED BY IDOCK:   -7.05 KCAL/MOL
REMARK 924 INTRA-LIGAND FREE ENERGY PREDICTED BY IDOCK:   -1.85 KCAL/MOL
REMARK 927      BINDING AFFINITY PREDICTED BY RF-SCORE:    0.00 PKD
ROOT
HETATM    1  C   UNL     1     -11.149  15.407  64.930  1.00  0.00    -0.435 C  
HETATM    2  C   UNL     1     -11.242  15.533  66.442  1.00  0.00    -0.098 C  
HETATM    3  C   UNL     1     -11.266  14.315  67.367  1.00  0.00    -0.330 C  
HETATM    4  C   UNL     1     -11.214  12.982  67.081  1.00  0.00    -0.322 C  
ENDROOT
BRANCH   3   5
HETATM    5  C   UNL     1     -11.336  14.793  68.784  1.00  0.00    -0.301 A  
HETATM    6  C   UNL     1     -12.583  14.993  69.394  1.00  0.00     0.035 A  
HETATM    7  C   UNL     1     -10.171  14.982  69.540  1.00  0.00    -0.198 A  
HETATM    8  C   UNL     1     -10.252  15.360  70.884  1.00  0.00     0.493 A  
HETATM    9  C   UNL     1     -12.662  15.365  70.739  1.00  0.00    -0.516 A  
HETATM   10  C   UNL     1     -11.498  15.545  71.484  1.00  0.00    -0.489 A  
ENDBRANCH   3   5
BRANCH   4  11
HETATM   11  C   UNL     1     -11.165  12.482  65.689  1.00  0.00    -0.352 A  
HETATM   12  C   UNL     1      -9.951  12.087  65.110  1.00  0.00    -0.265 A  
HETATM   13  C   UNL     1      -9.923  11.581  63.808  1.00  0.00    -0.384 A  
HETATM   14  C   UNL     1     -12.307  11.922  63.622  1.00  0.00    -0.591 A  
HETATM   15  C   UNL     1     -12.337  12.426  64.923  1.00  0.00    -0.475 A  
HETATM   16  C   UNL     1     -11.102  11.489  63.069  1.00  0.00     0.018 A  
ENDBRANCH   4  11
BRANCH   4  17
HETATM   17  C   UNL     1     -11.202  11.994  68.197  1.00  0.00    -0.316 A  
HETATM   18  C   UNL     1     -10.024  10.469  69.679  1.00  0.00    -0.149 A  
HETATM   19  C   UNL     1     -11.203  10.234  70.389  1.00  0.00    -0.332 A  
HETATM   20  C   UNL     1     -12.387  10.846  69.958  1.00  0.00    -0.385 A  
HETATM   21  C   UNL     1     -12.392  11.713  68.867  1.00  0.00     0.095 A  
HETATM   22  C   UNL     1     -10.022  11.348  68.588  1.00  0.00    -0.209 A  
BRANCH  19  23
HETATM   23  O   UNL     1     -11.100   9.411  71.490  1.00  0.00    -0.355 OA 
BRANCH  23  24
HETATM   24  C   UNL     1      -9.798   8.837  71.647  1.00  0.00    -0.308 C  
BRANCH  24  25
HETATM   25  C   UNL     1      -9.800   7.306  71.576  1.00  0.00    -0.174 C  
BRANCH  25  26
HETATM   26  N   UNL     1      -9.940   6.827  70.180  1.00  0.00    -0.177 NA 
HETATM   27  C   UNL     1     -11.205   6.114  70.005  1.00  0.00    -0.401 C  
HETATM   28  C   UNL     1      -8.826   5.967  69.766  1.00  0.00    -0.128 C  
ENDBRANCH  25  26
ENDBRANCH  24  25
ENDBRANCH  23  24
ENDBRANCH  19  23
ENDBRANCH   4  17
TORSDOF 7
ENDMDL
MODEL       50
REMARK 921   NORMALIZED FREE ENERGY PREDICTED BY IDOCK:   -4.90 KCAL/MOL
REMARK 922        TOTAL FREE ENERGY PREDICTED BY IDOCK:   -8.90 KCAL/MOL
REMARK 923 INTER-LIGAND FREE ENERGY PREDICTED BY IDOCK:   -6.78 KCAL/MOL
REMARK 924 INTRA-LIGAND FREE ENERGY PREDICTED BY IDOCK:   -2.12 KCAL/MOL
REMARK 927      BINDING AFFINITY PREDICTED BY RF-SCORE:    0.00 PKD
ROOT
HETATM    1  C   UNL     1      -8.626   6.313  69.191  1.00  0.00    -0.120 C  
HETATM    2  C   UNL     1      -8.459   7.194  67.962  1.00  0.00    -0.122 C  
HETATM    3  C   UNL     1      -9.015   8.617  67.891  1.00  0.00    -0.142 C  
HETATM    4  C   UNL     1      -9.711   9.346  68.811  1.00  0.00    -0.161 C  
ENDROOT
BRANCH   3   5
HETATM    5  C   UNL     1      -8.654   9.205  66.562  1.00  0.00    -0.136 A  
HETATM    6  C   UNL     1      -7.332   9.593  66.305  1.00  0.00    -0.094 A  
HETATM    7  C   UNL     1      -9.606   9.313  65.539  1.00  0.00    -0.291 A  
HETATM    8  C   UNL     1      -9.239   9.799  64.279  1.00  0.00    -0.286 A  
HETATM    9  C   UNL     1      -6.966  10.071  65.044  1.00  0.00    -0.135 A  
HETATM   10  C   UNL     1      -7.918  10.171  64.031  1.00  0.00    -0.154 A  
ENDBRANCH   3   5
BRANCH   4  11
HETATM   11  C   UNL     1     -10.100   8.782  70.123  1.00  0.00    -0.203 A  
HETATM   12  C   UNL     1     -11.338   8.146  70.293  1.00  0.00    -0.132 A  
HETATM   13  C   UNL     1     -11.679   7.585  71.526  1.00  0.00    -0.309 A  
HETATM   14  C   UNL     1      -9.582   8.346  72.453  1.00  0.00    -0.373 A  
HETATM   15  C   UNL     1      -9.239   8.906  71.222  1.00  0.00    -0.328 A  
HETATM   16  C   UNL     1     -10.796   7.676  72.602  1.00  0.00    -0.395 A  
ENDBRANCH   4  11
BRANCH   4  17
HETATM   17  C   UNL     1     -10.092  10.751  68.495  1.00  0.00    -0.187 A  
HETATM   18  C   UNL     1      -9.520  13.090  68.161  1.00  0.00    -0.218 A  
HETATM   19  C   UNL     1     -10.831  13.364  67.767  1.00  0.00    -0.252 A  
HETATM   20  C   UNL     1     -11.777  12.331  67.793  1.00  0.00    -0.403 A  
HETATM   21  C   UNL     1     -11.416  11.036  68.161  1.00  0.00    -0.374 A  
HETATM   22  C   UNL     1      -9.151  11.788  68.522  1.00  0.00    -0.144 A  
BRANCH  19  23
HETATM   23  O   UNL     1     -11.090  14.657  67.363  1.00  0.00    -0.304 OA 
BRANCH  23  24
HETATM   24  C   UNL     1     -11.521  15.508  68.430  1.00  0.00    -0.363 C  
BRANCH  24  25
HETATM   25  C   UNL     1     -10.611  16.724  68.636  1.00  0.00    -0.353 C  
BRANCH  25  26
HETATM   26  N   UNL     1      -9.591  16.828  67.565  1.00  0.00    -0.238 NA 
HETATM   27  C   UNL     1      -8.246  16.870  68.138  1.00  0.00    -0.207 C  
HETATM   28  C   UNL     1      -9.798  17.996  66.702  1.00  0.00    -0.352 C  
ENDBRANCH  25  26
ENDBRANCH  24  25
ENDBRANCH  23  24
ENDBRANCH  19  23
ENDBRANCH   4  17
TORSDOF 7
ENDMDL
MODEL       51
REMARK 921   NORMALIZED FREE ENERGY PREDICTED BY IDOCK:   -4.87 KCAL/MOL
REMARK 922        TOTAL FREE ENERGY PREDICTED BY IDOCK:   -8.85 KCAL/MOL
REMARK 923 INTER-LIGAND FREE ENERGY PREDICTED BY IDOCK:   -6.90 KCAL/MOL
REMARK 924 INTRA-LIGAND FREE ENERGY PREDICTED BY IDOCK:   -1.94 KCAL/MOL
REMARK 927      BINDING AFFINITY PREDICTED BY RF-SCORE:    0.00 PKD
ROOT
HETATM    1  C   UNL     1      -6.187  19.169  68.563  1.00  0.00    -0.258 C  
HETATM    2  C   UNL     1      -5.950  17.694  68.851  1.00  0.00    -0.191 C  
HETATM    3  C   UNL     1      -7.011  16.626  68.584  1.00  0.00    -0.172 C  
HETATM    4  C   UNL     1      -8.274  16.734  68.081  1.00  0.00    -0.199 C  
ENDROOT
BRANCH   3   5
HETATM    5  C   UNL     1      -6.446  15.289  68.953  1.00  0.00    -0.103 A  
HETATM    6  C   UNL     1      -5.794  14.514  67.984  1.00  0.00    -0.149 A  
HETATM    7  C   UNL     1      -6.498  14.824  70.275  1.00  0.00    -0.145 A  
HETATM    8  C   UNL     1      -5.903  13.605  70.620  1.00  0.00    -0.179 A  
HETATM    9  C   UNL     1      -5.195  13.301  68.332  1.00  0.00    -0.080 A  
HETATM   10  C   UNL     1      -5.247  12.848  69.650  1.00  0.00    -0.076 A  
ENDBRANCH   3   5
BRANCH   4  11
HETATM   11  C   UNL     1      -8.865  18.045  67.728  1.00  0.00    -0.255 A  
HETATM   12  C   UNL     1      -9.711  18.715  68.624  1.00  0.00    -0.418 A  
HETATM   13  C   UNL     1     -10.233  19.969  68.296  1.00  0.00    -0.527 A  
HETATM   14  C   UNL     1      -9.130  19.869  66.149  1.00  0.00    -0.393 A  
HETATM   15  C   UNL     1      -8.606  18.617  66.476  1.00  0.00    -0.307 A  
HETATM   16  C   UNL     1      -9.933  20.549  67.064  1.00  0.00    -0.489 A  
ENDBRANCH   4  11
BRANCH   4  17
HETATM   17  C   UNL     1      -9.089  15.504  67.873  1.00  0.00    -0.175 A  
HETATM   18  C   UNL     1      -9.748  13.586  66.533  1.00  0.00    -0.287 A  
HETATM   19  C   UNL     1     -10.547  13.119  67.578  1.00  0.00    -0.235 A  
HETATM   20  C   UNL     1     -10.649  13.883  68.747  1.00  0.00    -0.258 A  
HETATM   21  C   UNL     1      -9.935  15.070  68.894  1.00  0.00    -0.236 A  
HETATM   22  C   UNL     1      -9.019  14.773  66.680  1.00  0.00    -0.286 A  
BRANCH  19  23
HETATM   23  O   UNL     1     -11.174  11.908  67.373  1.00  0.00    -0.265 OA 
BRANCH  23  24
HETATM   24  C   UNL     1     -11.297  11.561  65.990  1.00  0.00    -0.116 C  
BRANCH  24  25
HETATM   25  C   UNL     1     -10.326  10.457  65.555  1.00  0.00    -0.195 C  
BRANCH  25  26
HETATM   26  N   UNL     1     -10.112  10.468  64.088  1.00  0.00    -0.328 NA 
HETATM   27  C   UNL     1      -8.686  10.402  63.774  1.00  0.00    -0.193 C  
HETATM   28  C   UNL     1     -10.708  11.643  63.440  1.00  0.00    -0.391 C  
ENDBRANCH  25  26
ENDBRANCH  24  25
ENDBRANCH  23  24
ENDBRANCH  19  23
ENDBRANCH   4  17
TORSDOF 7
ENDMDL
MODEL       52
REMARK 921   NORMALIZED FREE ENERGY PREDICTED BY IDOCK:   -4.82 KCAL/MOL
REMARK 922        TOTAL FREE ENERGY PREDICTED BY IDOCK:   -8.79 KCAL/MOL
REMARK 923 INTER-LIGAND FREE ENERGY PREDICTED BY IDOCK:   -6.74 KCAL/MOL
REMARK 924 INTRA-LIGAND FREE ENERGY PREDICTED BY IDOCK:   -2.05 KCAL/MOL
REMARK 927      BINDING AFFINITY PREDICTED BY RF-SCORE:    0.00 PKD
ROOT
HETATM    1  C   UNL     1      -9.381   2.802  71.023  1.00  0.00    -0.217 C  
HETATM    2  C   UNL     1      -9.980   4.162  71.349  1.00  0.00    -0.223 C  
HETATM    3  C   UNL     1      -9.931   5.336  70.370  1.00  0.00    -0.303 C  
HETATM    4  C   UNL     1      -9.401   5.426  69.117  1.00  0.00    -0.158 C  
ENDROOT
BRANCH   3   5
HETATM    5  C   UNL     1     -10.630   6.505  70.993  1.00  0.00    -0.275 A  
HETATM    6  C   UNL     1     -12.014   6.659  70.834  1.00  0.00    -0.413 A  
HETATM    7  C   UNL     1      -9.931   7.419  71.794  1.00  0.00    -0.192 A  
HETATM    8  C   UNL     1     -10.608   8.467  72.428  1.00  0.00    -0.405 A  
HETATM    9  C   UNL     1     -12.689   7.702  71.473  1.00  0.00    -0.373 A  
HETATM   10  C   UNL     1     -11.987   8.603  72.272  1.00  0.00    -0.438 A  
ENDBRANCH   3   5
BRANCH   4  11
HETATM   11  C   UNL     1      -8.687   4.293  68.486  1.00  0.00    -0.121 A  
HETATM   12  C   UNL     1      -9.374   3.366  67.689  1.00  0.00    -0.246 A  
HETATM   13  C   UNL     1      -8.684   2.322  67.069  1.00  0.00    -0.138 A  
HETATM   14  C   UNL     1      -6.627   3.076  68.087  1.00  0.00    -0.037 A  
HETATM   15  C   UNL     1      -7.314   4.120  68.706  1.00  0.00    -0.055 A  
HETATM   16  C   UNL     1      -7.309   2.185  67.259  1.00  0.00    -0.056 A  
ENDBRANCH   4  11
BRANCH   4  17
HETATM   17  C   UNL     1      -9.542   6.697  68.352  1.00  0.00    -0.123 A  
HETATM   18  C   UNL     1     -10.775   8.149  66.841  1.00  0.00    -0.186 A  
HETATM   19  C   UNL     1      -9.831   9.160  67.028  1.00  0.00    -0.207 A  
HETATM   20  C   UNL     1      -8.718   8.907  67.840  1.00  0.00    -0.129 A  
HETATM   21  C   UNL     1      -8.567   7.685  68.491  1.00  0.00    -0.129 A  
HETATM   22  C   UNL     1     -10.633   6.922  67.502  1.00  0.00    -0.351 A  
BRANCH  19  23
HETATM   23  O   UNL     1     -10.086  10.359  66.395  1.00  0.00    -0.212 OA 
BRANCH  23  24
HETATM   24  C   UNL     1      -9.239  10.592  65.265  1.00  0.00    -0.200 C  
BRANCH  24  25
HETATM   25  C   UNL     1      -9.956  11.302  64.110  1.00  0.00    -0.300 C  
BRANCH  25  26
HETATM   26  N   UNL     1     -11.041  12.183  64.604  1.00  0.00    -0.306 NA 
HETATM   27  C   UNL     1     -12.150  12.217  63.652  1.00  0.00    -0.551 C  
HETATM   28  C   UNL     1     -10.578  13.549  64.873  1.00  0.00    -0.397 C  
ENDBRANCH  25  26
ENDBRANCH  24  25
ENDBRANCH  23  24
ENDBRANCH  19  23
ENDBRANCH   4  17
TORSDOF 7
ENDMDL
MODEL       53
REMARK 921   NORMALIZED FREE ENERGY PREDICTED BY IDOCK:   -4.82 KCAL/MOL
REMARK 922        TOTAL FREE ENERGY PREDICTED BY IDOCK:   -8.79 KCAL/MOL
REMARK 923 INTER-LIGAND FREE ENERGY PREDICTED BY IDOCK:   -7.11 KCAL/MOL
REMARK 924 INTRA-LIGAND FREE ENERGY PREDICTED BY IDOCK:   -1.67 KCAL/MOL
REMARK 927      BINDING AFFINITY PREDICTED BY RF-SCORE:    0.00 PKD
ROOT
HETATM    1  C   UNL     1      -7.562   9.499  66.336  1.00  0.00    -0.097 C  
HETATM    2  C   UNL     1      -8.775  10.157  65.697  1.00  0.00    -0.173 C  
HETATM    3  C   UNL     1      -9.243  11.562  66.079  1.00  0.00    -0.229 C  
HETATM    4  C   UNL     1      -8.735  12.453  66.979  1.00  0.00    -0.207 C  
ENDROOT
BRANCH   3   5
HETATM    5  C   UNL     1     -10.439  11.909  65.249  1.00  0.00    -0.317 A  
HETATM    6  C   UNL     1     -11.656  12.219  65.871  1.00  0.00    -0.450 A  
HETATM    7  C   UNL     1     -10.347  11.996  63.852  1.00  0.00    -0.433 A  
HETATM    8  C   UNL     1     -11.454  12.389  63.093  1.00  0.00    -0.256 A  
HETATM    9  C   UNL     1     -12.759  12.619  65.111  1.00  0.00    -0.329 A  
HETATM   10  C   UNL     1     -12.657  12.707  63.724  1.00  0.00    -0.436 A  
ENDBRANCH   3   5
BRANCH   4  11
HETATM   11  C   UNL     1      -7.567  12.128  67.828  1.00  0.00    -0.131 A  
HETATM   12  C   UNL     1      -6.280  12.557  67.473  1.00  0.00    -0.155 A  
HETATM   13  C   UNL     1      -5.191  12.277  68.301  1.00  0.00    -0.056 A  
HETATM   14  C   UNL     1      -6.645  11.077  69.811  1.00  0.00    -0.143 A  
HETATM   15  C   UNL     1      -7.735  11.358  68.987  1.00  0.00    -0.064 A  
HETATM   16  C   UNL     1      -5.376  11.546  69.475  1.00  0.00    -0.054 A  
ENDBRANCH   4  11
BRANCH   4  17
HETATM   17  C   UNL     1      -9.367  13.795  67.117  1.00  0.00    -0.240 A  
HETATM   18  C   UNL     1     -10.668  15.419  68.375  1.00  0.00    -0.256 A  
HETATM   19  C   UNL     1     -10.433  16.382  67.393  1.00  0.00    -0.309 A  
HETATM   20  C   UNL     1      -9.706  16.022  66.251  1.00  0.00    -0.332 A  
HETATM   21  C   UNL     1      -9.183  14.739  66.106  1.00  0.00    -0.237 A  
HETATM   22  C   UNL     1     -10.136  14.130  68.239  1.00  0.00    -0.241 A  
BRANCH  19  23
HETATM   23  O   UNL     1     -10.935  17.642  67.640  1.00  0.00    -0.296 OA 
BRANCH  23  24
HETATM   24  C   UNL     1     -10.017  18.691  67.312  1.00  0.00    -0.329 C  
BRANCH  24  25
HETATM   25  C   UNL     1      -9.503  19.449  68.541  1.00  0.00    -0.389 C  
BRANCH  25  26
HETATM   26  N   UNL     1      -8.021  19.471  68.585  1.00  0.00    -0.358 NA 
HETATM   27  C   UNL     1      -7.485  20.282  67.492  1.00  0.00    -0.312 C  
HETATM   28  C   UNL     1      -7.436  18.127  68.537  1.00  0.00    -0.280 C  
ENDBRANCH  25  26
ENDBRANCH  24  25
ENDBRANCH  23  24
ENDBRANCH  19  23
ENDBRANCH   4  17
TORSDOF 7
ENDMDL
MODEL       54
REMARK 921   NORMALIZED FREE ENERGY PREDICTED BY IDOCK:   -4.72 KCAL/MOL
REMARK 922        TOTAL FREE ENERGY PREDICTED BY IDOCK:   -8.63 KCAL/MOL
REMARK 923 INTER-LIGAND FREE ENERGY PREDICTED BY IDOCK:   -6.49 KCAL/MOL
REMARK 924 INTRA-LIGAND FREE ENERGY PREDICTED BY IDOCK:   -2.14 KCAL/MOL
REMARK 927      BINDING AFFINITY PREDICTED BY RF-SCORE:    0.00 PKD
ROOT
HETATM    1  C   UNL     1      -9.329  12.826  66.623  1.00  0.00    -0.242 C  
HETATM    2  C   UNL     1      -9.515  11.990  67.879  1.00  0.00    -0.196 C  
HETATM    3  C   UNL     1      -9.615  10.464  67.842  1.00  0.00    -0.157 C  
HETATM    4  C   UNL     1      -9.563   9.596  66.791  1.00  0.00    -0.225 C  
ENDROOT
BRANCH   3   5
HETATM    5  C   UNL     1      -9.767   9.962  69.244  1.00  0.00    -0.218 A  
HETATM    6  C   UNL     1     -11.029   9.959  69.853  1.00  0.00    -0.321 A  
HETATM    7  C   UNL     1      -8.674   9.428  69.941  1.00  0.00    -0.209 A  
HETATM    8  C   UNL     1      -8.844   8.897  71.224  1.00  0.00    -0.298 A  
HETATM    9  C   UNL     1     -11.198   9.422  71.132  1.00  0.00    -0.427 A  
HETATM   10  C   UNL     1     -10.107   8.889  71.816  1.00  0.00    -0.407 A  
ENDBRANCH   3   5
BRANCH   4  11
HETATM   11  C   UNL     1      -9.435  10.067  65.393  1.00  0.00    -0.310 A  
HETATM   12  C   UNL     1     -10.515  10.677  64.739  1.00  0.00    -0.280 A  
HETATM   13  C   UNL     1     -10.371  11.152  63.434  1.00  0.00    -0.419 A  
HETATM   14  C   UNL     1      -8.092  10.352  63.393  1.00  0.00    -0.128 A  
HETATM   15  C   UNL     1      -8.233   9.879  64.698  1.00  0.00    -0.153 A  
HETATM   16  C   UNL     1      -9.156  10.998  62.765  1.00  0.00    -0.361 A  
ENDBRANCH   4  11
BRANCH   4  17
HETATM   17  C   UNL     1      -9.635   8.130  67.047  1.00  0.00    -0.253 A  
HETATM   18  C   UNL     1      -8.570   5.986  67.466  1.00  0.00    -0.106 A  
HETATM   19  C   UNL     1      -9.818   5.393  67.659  1.00  0.00    -0.150 A  
HETATM   20  C   UNL     1     -10.971   6.170  67.491  1.00  0.00    -0.404 A  
HETATM   21  C   UNL     1     -10.885   7.525  67.180  1.00  0.00    -0.298 A  
HETATM   22  C   UNL     1      -8.477   7.350  67.163  1.00  0.00    -0.118 A  
BRANCH  19  23
HETATM   23  O   UNL     1      -9.813   4.062  68.022  1.00  0.00    -0.116 OA 
BRANCH  23  24
HETATM   24  C   UNL     1      -9.046   3.801  69.202  1.00  0.00    -0.137 C  
BRANCH  24  25
HETATM   25  C   UNL     1      -9.796   4.137  70.496  1.00  0.00    -0.182 C  
BRANCH  25  26
HETATM   26  N   UNL     1      -9.124   5.224  71.248  1.00  0.00    -0.143 NA 
HETATM   27  C   UNL     1      -7.688   5.228  70.973  1.00  0.00    -0.097 C  
HETATM   28  C   UNL     1      -9.350   5.131  72.695  1.00  0.00    -0.137 C  
ENDBRANCH  25  26
ENDBRANCH  24  25
ENDBRANCH  23  24
ENDBRANCH  19  23
ENDBRANCH   4  17
TORSDOF 7
ENDMDL
MODEL       55
REMARK 921   NORMALIZED FREE ENERGY PREDICTED BY IDOCK:   -4.69 KCAL/MOL
REMARK 922        TOTAL FREE ENERGY PREDICTED BY IDOCK:   -8.60 KCAL/MOL
REMARK 923 INTER-LIGAND FREE ENERGY PREDICTED BY IDOCK:   -8.18 KCAL/MOL
REMARK 924 INTRA-LIGAND FREE ENERGY PREDICTED BY IDOCK:   -0.42 KCAL/MOL
REMARK 927      BINDING AFFINITY PREDICTED BY RF-SCORE:    0.00 PKD
ROOT
HETATM    1  C   UNL     1     -11.761  16.452  68.816  1.00  0.00    -0.037 C  
HETATM    2  C   UNL     1     -11.329  15.228  68.023  1.00  0.00    -0.345 C  
HETATM    3  C   UNL     1     -11.374  13.815  68.607  1.00  0.00    -0.321 C  
HETATM    4  C   UNL     1     -11.768  13.374  69.836  1.00  0.00    -0.337 C  
ENDROOT
BRANCH   3   5
HETATM    5  C   UNL     1     -10.909  12.851  67.560  1.00  0.00    -0.256 A  
HETATM    6  C   UNL     1     -11.826  12.317  66.644  1.00  0.00    -0.362 A  
HETATM    7  C   UNL     1      -9.552  12.521  67.435  1.00  0.00    -0.192 A  
HETATM    8  C   UNL     1      -9.121  11.674  66.408  1.00  0.00    -0.209 A  
HETATM    9  C   UNL     1     -11.392  11.477  65.615  1.00  0.00    -0.151 A  
HETATM   10  C   UNL     1     -10.041  11.159  65.495  1.00  0.00    -0.309 A  
ENDBRANCH   3   5
BRANCH   4  11
HETATM   11  C   UNL     1     -12.211  14.307  70.896  1.00  0.00    -0.425 A  
HETATM   12  C   UNL     1     -13.567  14.408  71.243  1.00  0.00    -0.389 A  
HETATM   13  C   UNL     1     -13.969  15.264  72.271  1.00  0.00    -0.646 A  
HETATM   14  C   UNL     1     -11.681  15.979  72.573  1.00  0.00    -0.547 A  
HETATM   15  C   UNL     1     -11.277  15.123  71.547  1.00  0.00    -0.323 A  
HETATM   16  C   UNL     1     -13.024  16.041  72.942  1.00  0.00    -0.555 A  
ENDBRANCH   4  11
BRANCH   4  17
HETATM   17  C   UNL     1     -11.758  11.913  70.128  1.00  0.00    -0.337 A  
HETATM   18  C   UNL     1     -10.649   9.750  70.136  1.00  0.00    -0.337 A  
HETATM   19  C   UNL     1     -11.731   9.187  70.814  1.00  0.00    -0.256 A  
HETATM   20  C   UNL     1     -12.845   9.988  71.096  1.00  0.00    -0.480 A  
HETATM   21  C   UNL     1     -12.866  11.337  70.751  1.00  0.00    -0.279 A  
HETATM   22  C   UNL     1     -10.660  11.108  69.796  1.00  0.00     0.020 A  
BRANCH  19  23
HETATM   23  O   UNL     1     -11.607   7.861  71.171  1.00  0.00    -0.274 OA 
BRANCH  23  24
HETATM   24  C   UNL     1     -10.412   7.251  70.672  1.00  0.00    -0.214 C  
BRANCH  24  25
HETATM   25  C   UNL     1      -9.416   6.879  71.777  1.00  0.00    -0.153 C  
BRANCH  25  26
HETATM   26  N   UNL     1      -9.008   8.068  72.564  1.00  0.00    -0.173 NA 
HETATM   27  C   UNL     1      -7.725   8.585  72.088  1.00  0.00    -0.078 C  
HETATM   28  C   UNL     1      -8.928   7.791  74.002  1.00  0.00    -0.215 C  
ENDBRANCH  25  26
ENDBRANCH  24  25
ENDBRANCH  23  24
ENDBRANCH  19  23
ENDBRANCH   4  17
TORSDOF 7
ENDMDL
MODEL       56
REMARK 921   NORMALIZED FREE ENERGY PREDICTED BY IDOCK:   -4.69 KCAL/MOL
REMARK 922        TOTAL FREE ENERGY PREDICTED BY IDOCK:   -8.59 KCAL/MOL
REMARK 923 INTER-LIGAND FREE ENERGY PREDICTED BY IDOCK:   -6.64 KCAL/MOL
REMARK 924 INTRA-LIGAND FREE ENERGY PREDICTED BY IDOCK:   -1.96 KCAL/MOL
REMARK 927      BINDING AFFINITY PREDICTED BY RF-SCORE:    0.00 PKD
ROOT
HETATM    1  C   UNL     1      -9.548   4.890  74.060  1.00  0.00    -0.140 C  
HETATM    2  C   UNL     1     -10.720   5.740  73.594  1.00  0.00    -0.281 C  
HETATM    3  C   UNL     1     -10.632   6.662  72.377  1.00  0.00    -0.242 C  
HETATM    4  C   UNL     1      -9.598   6.908  71.522  1.00  0.00    -0.162 C  
ENDROOT
BRANCH   3   5
HETATM    5  C   UNL     1     -11.960   7.326  72.185  1.00  0.00    -0.307 A  
HETATM    6  C   UNL     1     -12.132   8.668  72.551  1.00  0.00    -0.368 A  
HETATM    7  C   UNL     1     -13.025   6.645  71.578  1.00  0.00    -0.159 A  
HETATM    8  C   UNL     1     -14.239   7.298  71.340  1.00  0.00    -0.476 A  
HETATM    9  C   UNL     1     -13.343   9.320  72.306  1.00  0.00    -0.547 A  
HETATM   10  C   UNL     1     -14.394   8.637  71.698  1.00  0.00    -0.451 A  
ENDBRANCH   3   5
BRANCH   4  11
HETATM   11  C   UNL     1      -8.269   6.283  71.702  1.00  0.00    -0.118 A  
HETATM   12  C   UNL     1      -7.957   5.067  71.076  1.00  0.00    -0.093 A  
HETATM   13  C   UNL     1      -6.686   4.505  71.222  1.00  0.00    -0.031 A  
HETATM   14  C   UNL     1      -6.046   6.326  72.676  1.00  0.00    -0.045 A  
HETATM   15  C   UNL     1      -7.314   6.890  72.529  1.00  0.00    -0.085 A  
HETATM   16  C   UNL     1      -5.729   5.140  72.013  1.00  0.00    -0.020 A  
ENDBRANCH   4  11
BRANCH   4  17
HETATM   17  C   UNL     1      -9.804   7.830  70.370  1.00  0.00    -0.183 A  
HETATM   18  C   UNL     1     -10.693   8.311  68.159  1.00  0.00    -0.093 A  
HETATM   19  C   UNL     1     -10.284   9.640  68.273  1.00  0.00    -0.186 A  
HETATM   20  C   UNL     1      -9.588  10.039  69.422  1.00  0.00    -0.237 A  
HETATM   21  C   UNL     1      -9.341   9.143  70.459  1.00  0.00    -0.287 A  
HETATM   22  C   UNL     1     -10.456   7.409  69.204  1.00  0.00    -0.217 A  
BRANCH  19  23
HETATM   23  O   UNL     1     -10.619  10.475  67.228  1.00  0.00    -0.231 OA 
BRANCH  23  24
HETATM   24  C   UNL     1     -10.351  11.855  67.498  1.00  0.00    -0.200 C  
BRANCH  24  25
HETATM   25  C   UNL     1     -11.616  12.720  67.531  1.00  0.00    -0.356 C  
BRANCH  25  26
HETATM   26  N   UNL     1     -11.432  13.982  66.773  1.00  0.00    -0.347 NA 
HETATM   27  C   UNL     1     -11.421  15.129  67.679  1.00  0.00    -0.309 C  
HETATM   28  C   UNL     1     -12.457  14.174  65.741  1.00  0.00    -0.466 C  
ENDBRANCH  25  26
ENDBRANCH  24  25
ENDBRANCH  23  24
ENDBRANCH  19  23
ENDBRANCH   4  17
TORSDOF 7
ENDMDL
MODEL       57
REMARK 921   NORMALIZED FREE ENERGY PREDICTED BY IDOCK:   -4.68 KCAL/MOL
REMARK 922        TOTAL FREE ENERGY PREDICTED BY IDOCK:   -8.59 KCAL/MOL
REMARK 923 INTER-LIGAND FREE ENERGY PREDICTED BY IDOCK:   -7.54 KCAL/MOL
REMARK 924 INTRA-LIGAND FREE ENERGY PREDICTED BY IDOCK:   -1.04 KCAL/MOL
REMARK 927      BINDING AFFINITY PREDICTED BY RF-SCORE:    0.00 PKD
ROOT
HETATM    1  C   UNL     1     -12.529  10.214  70.146  1.00  0.00    -0.103 C  
HETATM    2  C   UNL     1     -12.778  11.505  70.910  1.00  0.00    -0.372 C  
HETATM    3  C   UNL     1     -12.162  12.840  70.487  1.00  0.00    -0.389 C  
HETATM    4  C   UNL     1     -11.341  13.148  69.443  1.00  0.00    -0.276 C  
ENDROOT
BRANCH   3   5
HETATM    5  C   UNL     1     -12.629  13.902  71.434  1.00  0.00    -0.444 A  
HETATM    6  C   UNL     1     -11.731  14.465  72.352  1.00  0.00     0.372 A  
HETATM    7  C   UNL     1     -13.940  14.395  71.375  1.00  0.00    -0.395 A  
HETATM    8  C   UNL     1     -14.344  15.436  72.217  1.00  0.00    -0.576 A  
HETATM    9  C   UNL     1     -12.134  15.509  73.188  1.00  0.00    -0.591 A  
HETATM   10  C   UNL     1     -13.438  15.997  73.118  1.00  0.00    -0.587 A  
ENDBRANCH   3   5
BRANCH   4  11
HETATM   11  C   UNL     1     -10.847  12.115  68.505  1.00  0.00    -0.267 A  
HETATM   12  C   UNL     1     -11.428  11.958  67.238  1.00  0.00    -0.385 A  
HETATM   13  C   UNL     1     -10.930  11.005  66.347  1.00  0.00    -0.202 A  
HETATM   14  C   UNL     1      -9.311  10.306  67.998  1.00  0.00    -0.145 A  
HETATM   15  C   UNL     1      -9.807  11.259  68.889  1.00  0.00    -0.153 A  
HETATM   16  C   UNL     1      -9.865  10.187  66.724  1.00  0.00    -0.247 A  
ENDBRANCH   4  11
BRANCH   4  17
HETATM   17  C   UNL     1     -10.925  14.563  69.231  1.00  0.00    -0.282 A  
HETATM   18  C   UNL     1      -9.237  16.313  69.245  1.00  0.00    -0.192 A  
HETATM   19  C   UNL     1     -10.151  17.212  68.693  1.00  0.00    -0.329 A  
HETATM   20  C   UNL     1     -11.466  16.787  68.464  1.00  0.00     0.065 A  
HETATM   21  C   UNL     1     -11.855  15.477  68.736  1.00  0.00    -0.335 A  
HETATM   22  C   UNL     1      -9.621  14.992  69.512  1.00  0.00    -0.094 A  
BRANCH  19  23
HETATM   23  O   UNL     1      -9.669  18.470  68.399  1.00  0.00    -0.327 OA 
BRANCH  23  24
HETATM   24  C   UNL     1      -9.305  18.629  67.024  1.00  0.00    -0.294 C  
BRANCH  24  25
HETATM   25  C   UNL     1     -10.437  18.270  66.054  1.00  0.00    -0.361 C  
BRANCH  25  26
HETATM   26  N   UNL     1     -10.066  17.128  65.184  1.00  0.00    -0.182 NA 
HETATM   27  C   UNL     1     -11.262  16.448  64.689  1.00  0.00    -0.192 C  
HETATM   28  C   UNL     1      -9.193  16.164  65.862  1.00  0.00    -0.261 C  
ENDBRANCH  25  26
ENDBRANCH  24  25
ENDBRANCH  23  24
ENDBRANCH  19  23
ENDBRANCH   4  17
TORSDOF 7
ENDMDL
MODEL       58
REMARK 921   NORMALIZED FREE ENERGY PREDICTED BY IDOCK:   -4.65 KCAL/MOL
REMARK 922        TOTAL FREE ENERGY PREDICTED BY IDOCK:   -8.55 KCAL/MOL
REMARK 923 INTER-LIGAND FREE ENERGY PREDICTED BY IDOCK:   -6.22 KCAL/MOL
REMARK 924 INTRA-LIGAND FREE ENERGY PREDICTED BY IDOCK:   -2.33 KCAL/MOL
REMARK 927      BINDING AFFINITY PREDICTED BY RF-SCORE:    0.00 PKD
ROOT
HETATM    1  C   UNL     1      -9.112  14.043  66.586  1.00  0.00    -0.221 C  
HETATM    2  C   UNL     1      -8.447  12.973  67.438  1.00  0.00    -0.200 C  
HETATM    3  C   UNL     1      -8.752  11.484  67.270  1.00  0.00    -0.151 C  
HETATM    4  C   UNL     1      -9.594  10.841  66.410  1.00  0.00    -0.226 C  
ENDROOT
BRANCH   3   5
HETATM    5  C   UNL     1      -7.913  10.712  68.241  1.00  0.00    -0.116 A  
HETATM    6  C   UNL     1      -6.557  10.486  67.969  1.00  0.00    -0.060 A  
HETATM    7  C   UNL     1      -8.447  10.266  69.459  1.00  0.00    -0.156 A  
HETATM    8  C   UNL     1      -7.635   9.608  70.389  1.00  0.00    -0.176 A  
HETATM    9  C   UNL     1      -5.746   9.835  68.903  1.00  0.00    -0.035 A  
HETATM   10  C   UNL     1      -6.284   9.399  70.112  1.00  0.00    -0.055 A  
ENDBRANCH   3   5
BRANCH   4  11
HETATM   11  C   UNL     1     -10.449  11.579  65.455  1.00  0.00    -0.333 A  
HETATM   12  C   UNL     1     -11.682  12.113  65.858  1.00  0.00    -0.393 A  
HETATM   13  C   UNL     1     -12.463  12.841  64.958  1.00  0.00    -0.572 A  
HETATM   14  C   UNL     1     -10.828  12.454  63.223  1.00  0.00    -0.300 A  
HETATM   15  C   UNL     1     -10.045  11.728  64.121  1.00  0.00    -0.344 A  
HETATM   16  C   UNL     1     -12.031  13.020  63.644  1.00  0.00    -0.608 A  
ENDBRANCH   4  11
BRANCH   4  17
HETATM   17  C   UNL     1      -9.659   9.352  66.425  1.00  0.00    -0.285 A  
HETATM   18  C   UNL     1      -8.758   7.174  65.832  1.00  0.00    -0.146 A  
HETATM   19  C   UNL     1      -9.749   6.547  66.588  1.00  0.00    -0.154 A  
HETATM   20  C   UNL     1     -10.723   7.335  67.216  1.00  0.00    -0.391 A  
HETATM   21  C   UNL     1     -10.686   8.725  67.131  1.00  0.00    -0.204 A  
HETATM   22  C   UNL     1      -8.711   8.571  65.752  1.00  0.00    -0.210 A  
BRANCH  19  23
HETATM   23  O   UNL     1      -9.679   5.172  66.669  1.00  0.00    -0.140 OA 
BRANCH  23  24
HETATM   24  C   UNL     1      -8.809   4.710  67.707  1.00  0.00    -0.106 C  
BRANCH  24  25
HETATM   25  C   UNL     1      -9.558   4.082  68.888  1.00  0.00    -0.143 C  
BRANCH  25  26
HETATM   26  N   UNL     1      -9.750   5.056  69.990  1.00  0.00    -0.187 NA 
HETATM   27  C   UNL     1      -8.629   5.992  70.051  1.00  0.00    -0.131 C  
HETATM   28  C   UNL     1      -9.923   4.404  71.293  1.00  0.00    -0.175 C  
ENDBRANCH  25  26
ENDBRANCH  24  25
ENDBRANCH  23  24
ENDBRANCH  19  23
ENDBRANCH   4  17
TORSDOF 7
ENDMDL
MODEL       59
REMARK 921   NORMALIZED FREE ENERGY PREDICTED BY IDOCK:   -4.63 KCAL/MOL
REMARK 922        TOTAL FREE ENERGY PREDICTED BY IDOCK:   -8.51 KCAL/MOL
REMARK 923 INTER-LIGAND FREE ENERGY PREDICTED BY IDOCK:   -6.46 KCAL/MOL
REMARK 924 INTRA-LIGAND FREE ENERGY PREDICTED BY IDOCK:   -2.05 KCAL/MOL
REMARK 927      BINDING AFFINITY PREDICTED BY RF-SCORE:    0.00 PKD
ROOT
HETATM    1  C   UNL     1      -6.965   6.125  67.429  1.00  0.00    -0.069 C  
HETATM    2  C   UNL     1      -7.892   6.564  68.551  1.00  0.00    -0.106 C  
HETATM    3  C   UNL     1      -8.628   7.905  68.529  1.00  0.00    -0.128 C  
HETATM    4  C   UNL     1      -8.626   8.905  67.601  1.00  0.00    -0.124 C  
ENDROOT
BRANCH   3   5
HETATM    5  C   UNL     1      -9.470   8.008  69.763  1.00  0.00    -0.159 A  
HETATM    6  C   UNL     1      -9.005   8.735  70.868  1.00  0.00    -0.247 A  
HETATM    7  C   UNL     1     -10.752   7.443  69.811  1.00  0.00    -0.252 A  
HETATM    8  C   UNL     1     -11.556   7.606  70.944  1.00  0.00    -0.299 A  
HETATM    9  C   UNL     1      -9.812   8.903  71.996  1.00  0.00    -0.325 A  
HETATM   10  C   UNL     1     -11.088   8.342  72.033  1.00  0.00    -0.379 A  
ENDBRANCH   3   5
BRANCH   4  11
HETATM   11  C   UNL     1      -7.787   8.838  66.383  1.00  0.00    -0.099 A  
HETATM   12  C   UNL     1      -6.455   9.277  66.403  1.00  0.00    -0.066 A  
HETATM   13  C   UNL     1      -5.662   9.174  65.258  1.00  0.00    -0.054 A  
HETATM   14  C   UNL     1      -7.537   8.260  64.039  1.00  0.00    -0.128 A  
HETATM   15  C   UNL     1      -8.331   8.360  65.183  1.00  0.00    -0.177 A  
HETATM   16  C   UNL     1      -6.201   8.656  64.080  1.00  0.00    -0.072 A  
ENDBRANCH   4  11
BRANCH   4  17
HETATM   17  C   UNL     1      -9.490  10.100  67.809  1.00  0.00    -0.160 A  
HETATM   18  C   UNL     1     -11.664  11.187  67.788  1.00  0.00    -0.220 A  
HETATM   19  C   UNL     1     -11.104  12.340  68.340  1.00  0.00    -0.243 A  
HETATM   20  C   UNL     1      -9.723  12.378  68.572  1.00  0.00    -0.140 A  
HETATM   21  C   UNL     1      -8.918  11.273  68.303  1.00  0.00    -0.172 A  
HETATM   22  C   UNL     1     -10.861  10.070  67.525  1.00  0.00    -0.326 A  
BRANCH  19  23
HETATM   23  O   UNL     1     -11.978  13.366  68.630  1.00  0.00    -0.343 OA 
BRANCH  23  24
HETATM   24  C   UNL     1     -11.576  14.148  69.760  1.00  0.00    -0.290 C  
BRANCH  24  25
HETATM   25  C   UNL     1     -12.567  14.076  70.927  1.00  0.00    -0.361 C  
BRANCH  25  26
HETATM   26  N   UNL     1     -13.057  15.423  71.309  1.00  0.00    -0.463 NA 
HETATM   27  C   UNL     1     -12.042  16.139  72.080  1.00  0.00    -0.512 C  
HETATM   28  C   UNL     1     -14.311  15.372  72.069  1.00  0.00    -0.550 C  
ENDBRANCH  25  26
ENDBRANCH  24  25
ENDBRANCH  23  24
ENDBRANCH  19  23
ENDBRANCH   4  17
TORSDOF 7
ENDMDL
MODEL       60
REMARK 921   NORMALIZED FREE ENERGY PREDICTED BY IDOCK:   -4.63 KCAL/MOL
REMARK 922        TOTAL FREE ENERGY PREDICTED BY IDOCK:   -8.51 KCAL/MOL
REMARK 923 INTER-LIGAND FREE ENERGY PREDICTED BY IDOCK:   -6.37 KCAL/MOL
REMARK 924 INTRA-LIGAND FREE ENERGY PREDICTED BY IDOCK:   -2.14 KCAL/MOL
REMARK 927      BINDING AFFINITY PREDICTED BY RF-SCORE:    0.00 PKD
ROOT
HETATM    1  C   UNL     1      -9.138  13.316  67.030  1.00  0.00    -0.232 C  
HETATM    2  C   UNL     1      -8.772  12.218  68.017  1.00  0.00    -0.181 C  
HETATM    3  C   UNL     1      -9.074  10.742  67.752  1.00  0.00    -0.151 C  
HETATM    4  C   UNL     1      -9.672  10.136  66.686  1.00  0.00    -0.242 C  
ENDROOT
BRANCH   3   5
HETATM    5  C   UNL     1      -8.563   9.936  68.905  1.00  0.00    -0.135 A  
HETATM    6  C   UNL     1      -7.226   9.514  68.926  1.00  0.00    -0.072 A  
HETATM    7  C   UNL     1      -9.384   9.649  70.005  1.00  0.00    -0.276 A  
HETATM    8  C   UNL     1      -8.874   8.955  71.107  1.00  0.00    -0.297 A  
HETATM    9  C   UNL     1      -6.717   8.828  70.031  1.00  0.00    -0.039 A  
HETATM   10  C   UNL     1      -7.539   8.551  71.122  1.00  0.00    -0.104 A  
ENDBRANCH   3   5
BRANCH   4  11
HETATM   11  C   UNL     1     -10.205  10.910  65.543  1.00  0.00    -0.332 A  
HETATM   12  C   UNL     1      -9.511  10.963  64.326  1.00  0.00    -0.289 A  
HETATM   13  C   UNL     1     -10.043  11.666  63.242  1.00  0.00    -0.454 A  
HETATM   14  C   UNL     1     -11.930  12.330  64.596  1.00  0.00    -0.437 A  
HETATM   15  C   UNL     1     -11.402  11.626  65.679  1.00  0.00    -0.233 A  
HETATM   16  C   UNL     1     -11.257  12.340  63.375  1.00  0.00    -0.497 A  
ENDBRANCH   4  11
BRANCH   4  17
HETATM   17  C   UNL     1      -9.794   8.651  66.663  1.00  0.00    -0.336 A  
HETATM   18  C   UNL     1     -11.025   6.607  67.130  1.00  0.00    -0.478 A  
HETATM   19  C   UNL     1     -10.044   5.856  66.480  1.00  0.00    -0.156 A  
HETATM   20  C   UNL     1      -8.915   6.512  65.972  1.00  0.00    -0.139 A  
HETATM   21  C   UNL     1      -8.784   7.896  66.068  1.00  0.00    -0.182 A  
HETATM   22  C   UNL     1     -10.903   8.000  67.219  1.00  0.00    -0.159 A  
BRANCH  19  23
HETATM   23  O   UNL     1     -10.278   4.502  66.378  1.00  0.00    -0.246 OA 
BRANCH  23  24
HETATM   24  C   UNL     1      -9.138   3.703  66.713  1.00  0.00    -0.164 C  
BRANCH  24  25
HETATM   25  C   UNL     1      -9.320   2.906  68.010  1.00  0.00    -0.205 C  
BRANCH  25  26
HETATM   26  N   UNL     1      -8.620   3.549  69.147  1.00  0.00    -0.069 NA 
HETATM   27  C   UNL     1      -9.544   4.378  69.919  1.00  0.00    -0.205 C  
HETATM   28  C   UNL     1      -7.472   4.356  68.718  1.00  0.00    -0.060 C  
ENDBRANCH  25  26
ENDBRANCH  24  25
ENDBRANCH  23  24
ENDBRANCH  19  23
ENDBRANCH   4  17
TORSDOF 7
ENDMDL
MODEL       61
REMARK 921   NORMALIZED FREE ENERGY PREDICTED BY IDOCK:   -4.59 KCAL/MOL
REMARK 922        TOTAL FREE ENERGY PREDICTED BY IDOCK:   -8.46 KCAL/MOL
REMARK 923 INTER-LIGAND FREE ENERGY PREDICTED BY IDOCK:   -6.88 KCAL/MOL
REMARK 924 INTRA-LIGAND FREE ENERGY PREDICTED BY IDOCK:   -1.58 KCAL/MOL
REMARK 927      BINDING AFFINITY PREDICTED BY RF-SCORE:    0.00 PKD
ROOT
HETATM    1  C   UNL     1      -9.455   9.734  65.082  1.00  0.00    -0.338 C  
HETATM    2  C   UNL     1      -8.458  10.232  66.117  1.00  0.00    -0.144 C  
HETATM    3  C   UNL     1      -8.524  11.642  66.706  1.00  0.00    -0.177 C  
HETATM    4  C   UNL     1      -9.396  12.664  66.470  1.00  0.00    -0.228 C  
ENDROOT
BRANCH   3   5
HETATM    5  C   UNL     1      -7.418  11.793  67.705  1.00  0.00    -0.117 A  
HETATM    6  C   UNL     1      -6.305  12.588  67.401  1.00  0.00    -0.157 A  
HETATM    7  C   UNL     1      -7.508  11.205  68.975  1.00  0.00    -0.124 A  
HETATM    8  C   UNL     1      -6.502  11.412  69.924  1.00  0.00    -0.118 A  
HETATM    9  C   UNL     1      -5.304  12.799  68.353  1.00  0.00    -0.061 A  
HETATM   10  C   UNL     1      -5.404  12.214  69.614  1.00  0.00    -0.077 A  
ENDBRANCH   3   5
BRANCH   4  11
HETATM   11  C   UNL     1     -10.484  12.549  65.473  1.00  0.00    -0.305 A  
HETATM   12  C   UNL     1     -11.826  12.508  65.877  1.00  0.00    -0.489 A  
HETATM   13  C   UNL     1     -12.846  12.437  64.925  1.00  0.00    -0.092 A  
HETATM   14  C   UNL     1     -11.198  12.378  63.160  1.00  0.00    -0.191 A  
HETATM   15  C   UNL     1     -10.177  12.450  64.109  1.00  0.00    -0.377 A  
HETATM   16  C   UNL     1     -12.531  12.383  63.567  1.00  0.00    -0.605 A  
ENDBRANCH   4  11
BRANCH   4  17
HETATM   17  C   UNL     1      -9.258  13.936  67.234  1.00  0.00    -0.235 A  
HETATM   18  C   UNL     1      -8.645  16.284  67.369  1.00  0.00    -0.194 A  
HETATM   19  C   UNL     1      -9.137  16.348  68.674  1.00  0.00    -0.233 A  
HETATM   20  C   UNL     1      -9.640  15.182  69.266  1.00  0.00    -0.218 A  
HETATM   21  C   UNL     1      -9.694  13.983  68.558  1.00  0.00    -0.215 A  
HETATM   22  C   UNL     1      -8.707  15.084  66.650  1.00  0.00    -0.289 A  
BRANCH  19  23
HETATM   23  O   UNL     1      -9.100  17.585  69.282  1.00  0.00    -0.003 OA 
BRANCH  23  24
HETATM   24  C   UNL     1      -8.669  18.632  68.407  1.00  0.00    -0.333 C  
BRANCH  24  25
HETATM   25  C   UNL     1      -9.797  19.592  68.012  1.00  0.00    -0.398 C  
BRANCH  25  26
HETATM   26  N   UNL     1      -9.615  20.108  66.634  1.00  0.00    -0.411 NA 
HETATM   27  C   UNL     1     -10.615  19.536  65.734  1.00  0.00    -0.427 C  
HETATM   28  C   UNL     1      -8.270  19.849  66.109  1.00  0.00    -0.322 C  
ENDBRANCH  25  26
ENDBRANCH  24  25
ENDBRANCH  23  24
ENDBRANCH  19  23
ENDBRANCH   4  17
TORSDOF 7
ENDMDL
MODEL       62
REMARK 921   NORMALIZED FREE ENERGY PREDICTED BY IDOCK:   -4.58 KCAL/MOL
REMARK 922        TOTAL FREE ENERGY PREDICTED BY IDOCK:   -8.44 KCAL/MOL
REMARK 923 INTER-LIGAND FREE ENERGY PREDICTED BY IDOCK:   -6.49 KCAL/MOL
REMARK 924 INTRA-LIGAND FREE ENERGY PREDICTED BY IDOCK:   -1.95 KCAL/MOL
REMARK 927      BINDING AFFINITY PREDICTED BY RF-SCORE:    0.00 PKD
ROOT
HETATM    1  C   UNL     1      -9.610   6.836  65.974  1.00  0.00     0.085 C  
HETATM    2  C   UNL     1     -10.091   7.649  67.165  1.00  0.00    -0.323 C  
HETATM    3  C   UNL     1      -9.789   9.141  67.315  1.00  0.00    -0.244 C  
HETATM    4  C   UNL     1      -9.098   9.993  66.505  1.00  0.00    -0.172 C  
ENDROOT
BRANCH   3   5
HETATM    5  C   UNL     1     -10.427   9.633  68.578  1.00  0.00    -0.241 A  
HETATM    6  C   UNL     1     -11.517  10.511  68.515  1.00  0.00    -0.284 A  
HETATM    7  C   UNL     1      -9.994   9.175  69.830  1.00  0.00    -0.213 A  
HETATM    8  C   UNL     1     -10.644   9.587  70.998  1.00  0.00    -0.392 A  
HETATM    9  C   UNL     1     -12.170  10.916  69.682  1.00  0.00    -0.354 A  
HETATM   10  C   UNL     1     -11.735  10.452  70.922  1.00  0.00    -0.455 A  
ENDBRANCH   3   5
BRANCH   4  11
HETATM   11  C   UNL     1      -8.439   9.530  65.263  1.00  0.00    -0.159 A  
HETATM   12  C   UNL     1      -7.152   8.975  65.297  1.00  0.00    -0.084 A  
HETATM   13  C   UNL     1      -6.556   8.507  64.124  1.00  0.00    -0.071 A  
HETATM   14  C   UNL     1      -8.493   9.202  62.859  1.00  0.00    -0.209 A  
HETATM   15  C   UNL     1      -9.091   9.669  64.031  1.00  0.00    -0.246 A  
HETATM   16  C   UNL     1      -7.231   8.611  62.908  1.00  0.00    -0.094 A  
ENDBRANCH   4  11
BRANCH   4  17
HETATM   17  C   UNL     1      -8.998  11.434  66.872  1.00  0.00    -0.171 A  
HETATM   18  C   UNL     1      -9.728  13.743  66.656  1.00  0.00    -0.293 A  
HETATM   19  C   UNL     1      -8.868  14.121  67.687  1.00  0.00    -0.194 A  
HETATM   20  C   UNL     1      -8.038  13.153  68.267  1.00  0.00    -0.152 A  
HETATM   21  C   UNL     1      -8.094  11.822  67.861  1.00  0.00    -0.144 A  
HETATM   22  C   UNL     1      -9.796  12.404  66.250  1.00  0.00    -0.257 A  
BRANCH  19  23
HETATM   23  O   UNL     1      -8.916  15.446  68.069  1.00  0.00    -0.169 OA 
BRANCH  23  24
HETATM   24  C   UNL     1      -9.403  15.632  69.402  1.00  0.00    -0.279 C  
BRANCH  24  25
HETATM   25  C   UNL     1     -10.687  16.468  69.463  1.00  0.00    -0.321 C  
BRANCH  25  26
HETATM   26  N   UNL     1     -11.791  15.721  70.115  1.00  0.00    -0.354 NA 
HETATM   27  C   UNL     1     -11.440  15.384  71.494  1.00  0.00    -0.413 C  
HETATM   28  C   UNL     1     -12.154  14.502  69.384  1.00  0.00    -0.290 C  
ENDBRANCH  25  26
ENDBRANCH  24  25
ENDBRANCH  23  24
ENDBRANCH  19  23
ENDBRANCH   4  17
TORSDOF 7
ENDMDL
MODEL       63
REMARK 921   NORMALIZED FREE ENERGY PREDICTED BY IDOCK:   -4.58 KCAL/MOL
REMARK 922        TOTAL FREE ENERGY PREDICTED BY IDOCK:   -8.44 KCAL/MOL
REMARK 923 INTER-LIGAND FREE ENERGY PREDICTED BY IDOCK:   -6.71 KCAL/MOL
REMARK 924 INTRA-LIGAND FREE ENERGY PREDICTED BY IDOCK:   -1.73 KCAL/MOL
REMARK 927      BINDING AFFINITY PREDICTED BY RF-SCORE:    0.00 PKD
ROOT
HETATM    1  C   UNL     1      -9.157  13.284  67.240  1.00  0.00    -0.221 C  
HETATM    2  C   UNL     1      -8.783  12.163  68.197  1.00  0.00    -0.185 C  
HETATM    3  C   UNL     1      -9.076  10.693  67.892  1.00  0.00    -0.145 C  
HETATM    4  C   UNL     1      -9.672  10.111  66.812  1.00  0.00    -0.235 C  
ENDROOT
BRANCH   3   5
HETATM    5  C   UNL     1      -8.558   9.859  69.022  1.00  0.00    -0.149 A  
HETATM    6  C   UNL     1      -7.227   9.418  69.014  1.00  0.00    -0.071 A  
HETATM    7  C   UNL     1      -9.365   9.563  70.130  1.00  0.00    -0.286 A  
HETATM    8  C   UNL     1      -8.847   8.843  71.212  1.00  0.00    -0.298 A  
HETATM    9  C   UNL     1      -6.710   8.705  70.098  1.00  0.00    -0.039 A  
HETATM   10  C   UNL     1      -7.518   8.420  71.197  1.00  0.00    -0.084 A  
ENDBRANCH   3   5
BRANCH   4  11
HETATM   11  C   UNL     1     -10.212  10.913  65.691  1.00  0.00    -0.323 A  
HETATM   12  C   UNL     1      -9.549  10.960  64.456  1.00  0.00    -0.312 A  
HETATM   13  C   UNL     1     -10.088  11.689  63.394  1.00  0.00    -0.468 A  
HETATM   14  C   UNL     1     -11.920  12.392  64.804  1.00  0.00    -0.462 A  
HETATM   15  C   UNL     1     -11.384  11.662  65.865  1.00  0.00    -0.262 A  
HETATM   16  C   UNL     1     -11.278  12.396  63.566  1.00  0.00    -0.540 A  
ENDBRANCH   4  11
BRANCH   4  17
HETATM   17  C   UNL     1      -9.785   8.627  66.748  1.00  0.00    -0.298 A  
HETATM   18  C   UNL     1     -10.985   6.561  67.197  1.00  0.00    -0.480 A  
HETATM   19  C   UNL     1     -10.022   5.837  66.492  1.00  0.00    -0.163 A  
HETATM   20  C   UNL     1      -8.916   6.517  65.964  1.00  0.00    -0.139 A  
HETATM   21  C   UNL     1      -8.791   7.898  66.096  1.00  0.00    -0.197 A  
HETATM   22  C   UNL     1     -10.869   7.951  67.323  1.00  0.00    -0.189 A  
BRANCH  19  23
HETATM   23  O   UNL     1     -10.251   4.484  66.357  1.00  0.00    -0.246 OA 
BRANCH  23  24
HETATM   24  C   UNL     1      -9.672   3.928  65.172  1.00  0.00    -0.191 C  
BRANCH  24  25
HETATM   25  C   UNL     1     -10.692   3.703  64.050  1.00  0.00    -0.239 C  
BRANCH  25  26
HETATM   26  N   UNL     1     -10.256   2.628  63.126  1.00  0.00    -0.125 NA 
HETATM   27  C   UNL     1     -11.393   1.800  62.727  1.00  0.00    -0.258 C  
HETATM   28  C   UNL     1      -9.206   1.782  63.703  1.00  0.00    -0.099 C  
ENDBRANCH  25  26
ENDBRANCH  24  25
ENDBRANCH  23  24
ENDBRANCH  19  23
ENDBRANCH   4  17
TORSDOF 7
ENDMDL
MODEL       64
REMARK 921   NORMALIZED FREE ENERGY PREDICTED BY IDOCK:   -4.52 KCAL/MOL
REMARK 922        TOTAL FREE ENERGY PREDICTED BY IDOCK:   -8.35 KCAL/MOL
REMARK 923 INTER-LIGAND FREE ENERGY PREDICTED BY IDOCK:   -6.66 KCAL/MOL
REMARK 924 INTRA-LIGAND FREE ENERGY PREDICTED BY IDOCK:   -1.69 KCAL/MOL
REMARK 927      BINDING AFFINITY PREDICTED BY RF-SCORE:    0.00 PKD
ROOT
HETATM    1  C   UNL     1      -9.323  12.995  66.681  1.00  0.00    -0.242 C  
HETATM    2  C   UNL     1      -9.522  12.140  67.923  1.00  0.00    -0.195 C  
HETATM    3  C   UNL     1      -9.629  10.615  67.859  1.00  0.00    -0.174 C  
HETATM    4  C   UNL     1      -9.575   9.764  66.795  1.00  0.00    -0.228 C  
ENDROOT
BRANCH   3   5
HETATM    5  C   UNL     1      -9.793  10.090  69.252  1.00  0.00    -0.227 A  
HETATM    6  C   UNL     1     -11.034  10.192  69.896  1.00  0.00    -0.344 A  
HETATM    7  C   UNL     1      -8.740   9.434  69.904  1.00  0.00    -0.209 A  
HETATM    8  C   UNL     1      -8.927   8.886  71.178  1.00  0.00    -0.305 A  
HETATM    9  C   UNL     1     -11.221   9.637  71.165  1.00  0.00    -0.454 A  
HETATM   10  C   UNL     1     -10.170   8.983  71.804  1.00  0.00    -0.389 A  
ENDBRANCH   3   5
BRANCH   4  11
HETATM   11  C   UNL     1      -9.435  10.257  65.406  1.00  0.00    -0.287 A  
HETATM   12  C   UNL     1      -8.215  10.144  64.724  1.00  0.00    -0.161 A  
HETATM   13  C   UNL     1      -8.105  10.579  63.401  1.00  0.00    -0.076 A  
HETATM   14  C   UNL     1     -10.407  11.307  63.446  1.00  0.00    -0.449 A  
HETATM   15  C   UNL     1     -10.520  10.872  64.767  1.00  0.00    -0.373 A  
HETATM   16  C   UNL     1      -9.204  11.150  62.760  1.00  0.00    -0.374 A  
ENDBRANCH   4  11
BRANCH   4  17
HETATM   17  C   UNL     1      -9.657   8.295  67.026  1.00  0.00    -0.249 A  
HETATM   18  C   UNL     1     -10.933   6.280  67.498  1.00  0.00    -0.444 A  
HETATM   19  C   UNL     1      -9.786   5.503  67.328  1.00  0.00    -0.150 A  
HETATM   20  C   UNL     1      -8.568   6.141  67.059  1.00  0.00    -0.108 A  
HETATM   21  C   UNL     1      -8.499   7.525  66.917  1.00  0.00    -0.122 A  
HETATM   22  C   UNL     1     -10.870   7.671  67.345  1.00  0.00    -0.240 A  
BRANCH  19  23
HETATM   23  O   UNL     1      -9.953   4.137  67.427  1.00  0.00    -0.151 OA 
BRANCH  23  24
HETATM   24  C   UNL     1      -8.856   3.393  66.886  1.00  0.00    -0.138 C  
BRANCH  24  25
HETATM   25  C   UNL     1      -9.217   2.631  65.606  1.00  0.00    -0.087 C  
BRANCH  25  26
HETATM   26  N   UNL     1      -9.240   3.530  64.426  1.00  0.00    -0.127 NA 
HETATM   27  C   UNL     1     -10.563   3.528  63.804  1.00  0.00    -0.275 C  
HETATM   28  C   UNL     1      -8.223   3.176  63.430  1.00  0.00    -0.085 C  
ENDBRANCH  25  26
ENDBRANCH  24  25
ENDBRANCH  23  24
ENDBRANCH  19  23
ENDBRANCH   4  17
TORSDOF 7
ENDMDL
MODEL       65
REMARK 921   NORMALIZED FREE ENERGY PREDICTED BY IDOCK:   -4.51 KCAL/MOL
REMARK 922        TOTAL FREE ENERGY PREDICTED BY IDOCK:   -8.35 KCAL/MOL
REMARK 923 INTER-LIGAND FREE ENERGY PREDICTED BY IDOCK:   -6.32 KCAL/MOL
REMARK 924 INTRA-LIGAND FREE ENERGY PREDICTED BY IDOCK:   -2.03 KCAL/MOL
REMARK 927      BINDING AFFINITY PREDICTED BY RF-SCORE:    0.00 PKD
ROOT
HETATM    1  C   UNL     1      -9.478   2.534  71.096  1.00  0.00    -0.222 C  
HETATM    2  C   UNL     1     -10.066   3.889  71.458  1.00  0.00    -0.148 C  
HETATM    3  C   UNL     1      -9.968   5.100  70.529  1.00  0.00    -0.304 C  
HETATM    4  C   UNL     1      -9.397   5.230  69.297  1.00  0.00    -0.167 C  
ENDROOT
BRANCH   3   5
HETATM    5  C   UNL     1     -10.668   6.255  71.175  1.00  0.00    -0.301 A  
HETATM    6  C   UNL     1      -9.954   7.128  72.008  1.00  0.00    -0.178 A  
HETATM    7  C   UNL     1     -12.019   6.521  70.908  1.00  0.00    -0.353 A  
HETATM    8  C   UNL     1     -12.642   7.644  71.463  1.00  0.00    -0.369 A  
HETATM    9  C   UNL     1     -10.577   8.253  72.555  1.00  0.00    -0.407 A  
HETATM   10  C   UNL     1     -11.919   8.512  72.281  1.00  0.00    -0.454 A  
ENDBRANCH   3   5
BRANCH   4  11
HETATM   11  C   UNL     1      -8.681   4.111  68.644  1.00  0.00    -0.126 A  
HETATM   12  C   UNL     1      -7.309   3.915  68.857  1.00  0.00    -0.054 A  
HETATM   13  C   UNL     1      -6.652   2.834  68.266  1.00  0.00    -0.036 A  
HETATM   14  C   UNL     1      -8.709   2.170  67.189  1.00  0.00    -0.136 A  
HETATM   15  C   UNL     1      -9.368   3.249  67.779  1.00  0.00    -0.246 A  
HETATM   16  C   UNL     1      -7.355   1.956  67.441  1.00  0.00    -0.055 A  
ENDBRANCH   4  11
BRANCH   4  17
HETATM   17  C   UNL     1      -9.494   6.532  68.579  1.00  0.00    -0.121 A  
HETATM   18  C   UNL     1     -10.646   8.056  67.075  1.00  0.00    -0.364 A  
HETATM   19  C   UNL     1      -9.705   9.050  67.346  1.00  0.00    -0.168 A  
HETATM   20  C   UNL     1      -8.631   8.753  68.195  1.00  0.00    -0.134 A  
HETATM   21  C   UNL     1      -8.519   7.504  68.802  1.00  0.00    -0.129 A  
HETATM   22  C   UNL     1     -10.544   6.802  67.691  1.00  0.00    -0.323 A  
BRANCH  19  23
HETATM   23  O   UNL     1      -9.921  10.275  66.751  1.00  0.00    -0.192 OA 
BRANCH  23  24
HETATM   24  C   UNL     1     -11.153  10.887  67.149  1.00  0.00    -0.240 C  
BRANCH  24  25
HETATM   25  C   UNL     1     -11.309  10.997  68.670  1.00  0.00    -0.281 C  
BRANCH  25  26
HETATM   26  N   UNL     1     -12.017  12.241  69.056  1.00  0.00    -0.284 NA 
HETATM   27  C   UNL     1     -11.238  13.417  68.671  1.00  0.00    -0.269 C  
HETATM   28  C   UNL     1     -12.320  12.295  70.491  1.00  0.00    -0.264 C  
ENDBRANCH  25  26
ENDBRANCH  24  25
ENDBRANCH  23  24
ENDBRANCH  19  23
ENDBRANCH   4  17
TORSDOF 7
ENDMDL
MODEL       66
REMARK 921   NORMALIZED FREE ENERGY PREDICTED BY IDOCK:   -4.45 KCAL/MOL
REMARK 922        TOTAL FREE ENERGY PREDICTED BY IDOCK:   -8.26 KCAL/MOL
REMARK 923 INTER-LIGAND FREE ENERGY PREDICTED BY IDOCK:   -6.93 KCAL/MOL
REMARK 924 INTRA-LIGAND FREE ENERGY PREDICTED BY IDOCK:   -1.33 KCAL/MOL
REMARK 927      BINDING AFFINITY PREDICTED BY RF-SCORE:    0.00 PKD
ROOT
HETATM    1  C   UNL     1     -10.781  15.482  66.025  1.00  0.00    -0.331 C  
HETATM    2  C   UNL     1     -10.313  14.192  65.369  1.00  0.00    -0.384 C  
HETATM    3  C   UNL     1     -10.126  12.894  66.155  1.00  0.00    -0.281 C  
HETATM    4  C   UNL     1     -10.317  12.620  67.478  1.00  0.00    -0.220 C  
ENDROOT
BRANCH   3   5
HETATM    5  C   UNL     1      -9.685  11.822  65.207  1.00  0.00    -0.236 A  
HETATM    6  C   UNL     1     -10.461  11.523  64.079  1.00  0.00    -0.424 A  
HETATM    7  C   UNL     1      -8.467  11.152  65.393  1.00  0.00     0.043 A  
HETATM    8  C   UNL     1      -8.032  10.202  64.462  1.00  0.00    -0.147 A  
HETATM    9  C   UNL     1     -10.021  10.579  63.147  1.00  0.00    -0.204 A  
HETATM   10  C   UNL     1      -8.807   9.922  63.336  1.00  0.00    -0.253 A  
ENDBRANCH   3   5
BRANCH   4  11
HETATM   11  C   UNL     1     -10.732  13.666  68.440  1.00  0.00    -0.272 A  
HETATM   12  C   UNL     1      -9.806  14.596  68.934  1.00  0.00    -0.211 A  
HETATM   13  C   UNL     1     -10.217  15.601  69.812  1.00  0.00    -0.303 A  
HETATM   14  C   UNL     1     -12.466  14.721  69.770  1.00  0.00    -0.230 A  
HETATM   15  C   UNL     1     -12.058  13.717  68.891  1.00  0.00    -0.335 A  
HETATM   16  C   UNL     1     -11.549  15.669  70.221  1.00  0.00    -0.370 A  
ENDBRANCH   4  11
BRANCH   4  17
HETATM   17  C   UNL     1     -10.106  11.232  67.977  1.00  0.00    -0.192 A  
HETATM   18  C   UNL     1      -8.902   9.618  69.338  1.00  0.00    -0.183 A  
HETATM   19  C   UNL     1      -9.824   8.627  68.996  1.00  0.00    -0.182 A  
HETATM   20  C   UNL     1     -10.853   8.941  68.099  1.00  0.00    -0.062 A  
HETATM   21  C   UNL     1     -10.992  10.229  67.586  1.00  0.00    -0.356 A  
HETATM   22  C   UNL     1      -9.043  10.917  68.833  1.00  0.00    -0.151 A  
BRANCH  19  23
HETATM   23  O   UNL     1      -9.649   7.397  69.593  1.00  0.00    -0.157 OA 
BRANCH  23  24
HETATM   24  C   UNL     1     -10.830   6.588  69.577  1.00  0.00    -0.304 C  
BRANCH  24  25
HETATM   25  C   UNL     1     -11.797   6.910  70.723  1.00  0.00    -0.377 C  
BRANCH  25  26
HETATM   26  N   UNL     1     -11.424   6.193  71.966  1.00  0.00    -0.305 NA 
HETATM   27  C   UNL     1     -10.804   7.110  72.922  1.00  0.00    -0.323 C  
HETATM   28  C   UNL     1     -10.528   5.059  71.715  1.00  0.00    -0.176 C  
ENDBRANCH  25  26
ENDBRANCH  24  25
ENDBRANCH  23  24
ENDBRANCH  19  23
ENDBRANCH   4  17
TORSDOF 7
ENDMDL
MODEL       67
REMARK 921   NORMALIZED FREE ENERGY PREDICTED BY IDOCK:   -4.43 KCAL/MOL
REMARK 922        TOTAL FREE ENERGY PREDICTED BY IDOCK:   -8.23 KCAL/MOL
REMARK 923 INTER-LIGAND FREE ENERGY PREDICTED BY IDOCK:   -6.61 KCAL/MOL
REMARK 924 INTRA-LIGAND FREE ENERGY PREDICTED BY IDOCK:   -1.62 KCAL/MOL
REMARK 927      BINDING AFFINITY PREDICTED BY RF-SCORE:    0.00 PKD
ROOT
HETATM    1  C   UNL     1     -14.325   8.138  71.028  1.00  0.00    -0.126 C  
HETATM    2  C   UNL     1     -13.391   6.992  71.385  1.00  0.00    -0.335 C  
HETATM    3  C   UNL     1     -11.907   7.208  71.689  1.00  0.00    -0.340 C  
HETATM    4  C   UNL     1     -11.162   8.350  71.710  1.00  0.00    -0.360 C  
ENDROOT
BRANCH   3   5
HETATM    5  C   UNL     1     -11.292   5.884  72.024  1.00  0.00    -0.325 A  
HETATM    6  C   UNL     1     -10.468   5.240  71.092  1.00  0.00    -0.275 A  
HETATM    7  C   UNL     1     -11.472   5.305  73.288  1.00  0.00    -0.250 A  
HETATM    8  C   UNL     1     -10.835   4.103  73.614  1.00  0.00    -0.346 A  
HETATM    9  C   UNL     1      -9.826   4.043  71.421  1.00  0.00    -0.249 A  
HETATM   10  C   UNL     1     -10.007   3.477  72.682  1.00  0.00    -0.225 A  
ENDBRANCH   3   5
BRANCH   4  11
HETATM   11  C   UNL     1     -11.739   9.667  71.362  1.00  0.00    -0.478 A  
HETATM   12  C   UNL     1     -12.678  10.284  72.201  1.00  0.00    -0.277 A  
HETATM   13  C   UNL     1     -13.188  11.544  71.882  1.00  0.00    -0.479 A  
HETATM   14  C   UNL     1     -11.884  11.559  69.849  1.00  0.00    -0.430 A  
HETATM   15  C   UNL     1     -11.371  10.301  70.167  1.00  0.00    -0.388 A  
HETATM   16  C   UNL     1     -12.783  12.185  70.711  1.00  0.00    -0.220 A  
ENDBRANCH   4  11
BRANCH   4  17
HETATM   17  C   UNL     1      -9.724   8.279  72.095  1.00  0.00    -0.344 A  
HETATM   18  C   UNL     1      -7.976   7.963  73.755  1.00  0.00    -0.240 A  
HETATM   19  C   UNL     1      -7.003   8.023  72.756  1.00  0.00    -0.092 A  
HETATM   20  C   UNL     1      -7.403   8.265  71.435  1.00  0.00    -0.085 A  
HETATM   21  C   UNL     1      -8.749   8.401  71.105  1.00  0.00    -0.194 A  
HETATM   22  C   UNL     1      -9.332   8.088  73.426  1.00  0.00    -0.323 A  
BRANCH  19  23
HETATM   23  O   UNL     1      -5.700   7.821  73.159  1.00  0.00    -0.044 OA 
BRANCH  23  24
HETATM   24  C   UNL     1      -5.591   7.005  74.329  1.00  0.00    -0.055 C  
BRANCH  24  25
HETATM   25  C   UNL     1      -5.169   5.563  74.023  1.00  0.00    -0.023 C  
BRANCH  25  26
HETATM   26  N   UNL     1      -6.315   4.749  73.553  1.00  0.00    -0.048 NA 
HETATM   27  C   UNL     1      -6.611   3.678  74.503  1.00  0.00    -0.040 C  
HETATM   28  C   UNL     1      -6.092   4.180  72.219  1.00  0.00    -0.016 C  
ENDBRANCH  25  26
ENDBRANCH  24  25
ENDBRANCH  23  24
ENDBRANCH  19  23
ENDBRANCH   4  17
TORSDOF 7
ENDMDL
MODEL       68
REMARK 921   NORMALIZED FREE ENERGY PREDICTED BY IDOCK:   -4.43 KCAL/MOL
REMARK 922        TOTAL FREE ENERGY PREDICTED BY IDOCK:   -8.23 KCAL/MOL
REMARK 923 INTER-LIGAND FREE ENERGY PREDICTED BY IDOCK:   -8.09 KCAL/MOL
REMARK 924 INTRA-LIGAND FREE ENERGY PREDICTED BY IDOCK:   -0.14 KCAL/MOL
REMARK 927      BINDING AFFINITY PREDICTED BY RF-SCORE:    0.00 PKD
ROOT
HETATM    1  C   UNL     1     -10.904   9.386  67.619  1.00  0.00    -0.222 C  
HETATM    2  C   UNL     1     -11.382  10.653  68.311  1.00  0.00    -0.357 C  
HETATM    3  C   UNL     1     -10.964  12.049  67.846  1.00  0.00    -0.266 C  
HETATM    4  C   UNL     1     -10.157  12.438  66.817  1.00  0.00    -0.226 C  
ENDROOT
BRANCH   3   5
HETATM    5  C   UNL     1     -11.629  13.063  68.723  1.00  0.00    -0.350 A  
HETATM    6  C   UNL     1     -11.871  12.770  70.073  1.00  0.00    -0.352 A  
HETATM    7  C   UNL     1     -11.957  14.335  68.234  1.00  0.00    -0.346 A  
HETATM    8  C   UNL     1     -12.514  15.298  69.083  1.00  0.00     0.026 A  
HETATM    9  C   UNL     1     -12.420  13.735  70.920  1.00  0.00    -0.451 A  
HETATM   10  C   UNL     1     -12.739  14.999  70.426  1.00  0.00    -0.371 A  
ENDBRANCH   3   5
BRANCH   4  11
HETATM   11  C   UNL     1      -9.470  11.456  65.948  1.00  0.00    -0.251 A  
HETATM   12  C   UNL     1     -10.097  10.952  64.799  1.00  0.00    -0.383 A  
HETATM   13  C   UNL     1      -9.425  10.055  63.965  1.00  0.00    -0.299 A  
HETATM   14  C   UNL     1      -7.521  10.098  65.452  1.00  0.00    -0.144 A  
HETATM   15  C   UNL     1      -8.190  10.996  66.284  1.00  0.00    -0.164 A  
HETATM   16  C   UNL     1      -8.133   9.637  64.287  1.00  0.00    -0.146 A  
ENDBRANCH   4  11
BRANCH   4  17
HETATM   17  C   UNL     1      -9.957  13.890  66.551  1.00  0.00    -0.288 A  
HETATM   18  C   UNL     1      -8.766  15.978  66.915  1.00  0.00    -0.259 A  
HETATM   19  C   UNL     1      -9.531  16.597  65.925  1.00  0.00    -0.183 A  
HETATM   20  C   UNL     1     -10.543  15.864  65.292  1.00  0.00    -0.441 A  
HETATM   21  C   UNL     1     -10.763  14.524  65.606  1.00  0.00    -0.335 A  
HETATM   22  C   UNL     1      -8.976  14.628  67.226  1.00  0.00    -0.216 A  
BRANCH  19  23
HETATM   23  O   UNL     1      -9.210  17.907  65.634  1.00  0.00    -0.362 OA 
BRANCH  23  24
HETATM   24  C   UNL     1     -10.300  18.813  65.833  1.00  0.00    -0.342 C  
BRANCH  24  25
HETATM   25  C   UNL     1     -10.872  18.767  67.255  1.00  0.00    -0.340 C  
BRANCH  25  26
HETATM   26  N   UNL     1     -10.376  19.897  68.077  1.00  0.00    -0.428 NA 
HETATM   27  C   UNL     1      -9.474  20.744  67.297  1.00  0.00    -0.327 C  
HETATM   28  C   UNL     1      -9.700  19.450  69.300  1.00  0.00    -0.263 C  
ENDBRANCH  25  26
ENDBRANCH  24  25
ENDBRANCH  23  24
ENDBRANCH  19  23
ENDBRANCH   4  17
TORSDOF 7
ENDMDL
MODEL       69
REMARK 921   NORMALIZED FREE ENERGY PREDICTED BY IDOCK:   -4.41 KCAL/MOL
REMARK 922        TOTAL FREE ENERGY PREDICTED BY IDOCK:   -8.20 KCAL/MOL
REMARK 923 INTER-LIGAND FREE ENERGY PREDICTED BY IDOCK:   -6.94 KCAL/MOL
REMARK 924 INTRA-LIGAND FREE ENERGY PREDICTED BY IDOCK:   -1.25 KCAL/MOL
REMARK 927      BINDING AFFINITY PREDICTED BY RF-SCORE:    0.00 PKD
ROOT
HETATM    1  C   UNL     1      -8.575   6.612  67.349  1.00  0.00    -0.119 C  
HETATM    2  C   UNL     1      -8.681   7.586  66.186  1.00  0.00    -0.174 C  
HETATM    3  C   UNL     1      -9.183   9.020  66.360  1.00  0.00    -0.239 C  
HETATM    4  C   UNL     1      -9.603   9.685  67.474  1.00  0.00    -0.180 C  
ENDROOT
BRANCH   3   5
HETATM    5  C   UNL     1      -9.135   9.707  65.030  1.00  0.00    -0.284 A  
HETATM    6  C   UNL     1     -10.276  10.355  64.536  1.00  0.00    -0.281 A  
HETATM    7  C   UNL     1      -7.944   9.772  64.294  1.00  0.00    -0.143 A  
HETATM    8  C   UNL     1      -7.895  10.476  63.087  1.00  0.00    -0.063 A  
HETATM    9  C   UNL     1     -10.223  11.064  63.333  1.00  0.00    -0.404 A  
HETATM   10  C   UNL     1      -9.033  11.127  62.611  1.00  0.00    -0.347 A  
ENDBRANCH   3   5
BRANCH   4  11
HETATM   11  C   UNL     1      -9.680   9.025  68.796  1.00  0.00    -0.165 A  
HETATM   12  C   UNL     1      -8.689   9.238  69.765  1.00  0.00    -0.168 A  
HETATM   13  C   UNL     1      -8.791   8.640  71.022  1.00  0.00    -0.235 A  
HETATM   14  C   UNL     1     -10.837   7.552  70.340  1.00  0.00    -0.255 A  
HETATM   15  C   UNL     1     -10.738   8.151  69.083  1.00  0.00    -0.117 A  
HETATM   16  C   UNL     1      -9.871   7.806  71.312  1.00  0.00    -0.194 A  
ENDBRANCH   4  11
BRANCH   4  17
HETATM   17  C   UNL     1      -9.996  11.119  67.367  1.00  0.00    -0.204 A  
HETATM   18  C   UNL     1      -9.429  13.475  67.180  1.00  0.00    -0.244 A  
HETATM   19  C   UNL     1     -10.779  13.798  67.035  1.00  0.00    -0.283 A  
HETATM   20  C   UNL     1     -11.733  12.775  67.112  1.00  0.00    -0.443 A  
HETATM   21  C   UNL     1     -11.350  11.447  67.284  1.00  0.00    -0.347 A  
HETATM   22  C   UNL     1      -9.038  12.140  67.343  1.00  0.00    -0.181 A  
BRANCH  19  23
HETATM   23  O   UNL     1     -11.069  15.127  66.809  1.00  0.00    -0.323 OA 
BRANCH  23  24
HETATM   24  C   UNL     1     -10.266  15.714  65.780  1.00  0.00    -0.367 C  
BRANCH  24  25
HETATM   25  C   UNL     1     -10.426  17.236  65.683  1.00  0.00    -0.181 C  
BRANCH  25  26
HETATM   26  N   UNL     1      -9.739  17.927  66.801  1.00  0.00    -0.300 NA 
HETATM   27  C   UNL     1     -10.661  18.825  67.495  1.00  0.00    -0.435 C  
HETATM   28  C   UNL     1      -8.557  18.676  66.359  1.00  0.00    -0.271 C  
ENDBRANCH  25  26
ENDBRANCH  24  25
ENDBRANCH  23  24
ENDBRANCH  19  23
ENDBRANCH   4  17
TORSDOF 7
ENDMDL
MODEL       70
REMARK 921   NORMALIZED FREE ENERGY PREDICTED BY IDOCK:   -4.39 KCAL/MOL
REMARK 922        TOTAL FREE ENERGY PREDICTED BY IDOCK:   -8.18 KCAL/MOL
REMARK 923 INTER-LIGAND FREE ENERGY PREDICTED BY IDOCK:   -6.44 KCAL/MOL
REMARK 924 INTRA-LIGAND FREE ENERGY PREDICTED BY IDOCK:   -1.74 KCAL/MOL
REMARK 927      BINDING AFFINITY PREDICTED BY RF-SCORE:    0.00 PKD
ROOT
HETATM    1  C   UNL     1      -7.565   9.588  63.117  1.00  0.00    -0.110 C  
HETATM    2  C   UNL     1      -8.653  10.647  63.209  1.00  0.00    -0.151 C  
HETATM    3  C   UNL     1      -9.372  10.972  64.519  1.00  0.00    -0.227 C  
HETATM    4  C   UNL     1      -9.221  10.449  65.769  1.00  0.00    -0.210 C  
ENDROOT
BRANCH   3   5
HETATM    5  C   UNL     1     -10.357  12.071  64.262  1.00  0.00    -0.357 A  
HETATM    6  C   UNL     1     -11.599  11.776  63.683  1.00  0.00    -0.521 A  
HETATM    7  C   UNL     1     -10.085  13.389  64.655  1.00  0.00    -0.256 A  
HETATM    8  C   UNL     1     -11.042  14.394  64.473  1.00  0.00    -0.301 A  
HETATM    9  C   UNL     1     -12.556  12.779  63.509  1.00  0.00    -0.359 A  
HETATM   10  C   UNL     1     -12.279  14.086  63.906  1.00  0.00    -0.336 A  
ENDBRANCH   3   5
BRANCH   4  11
HETATM   11  C   UNL     1      -8.271   9.348  66.047  1.00  0.00    -0.111 A  
HETATM   12  C   UNL     1      -8.659   8.009  65.894  1.00  0.00    -0.171 A  
HETATM   13  C   UNL     1      -7.743   6.980  66.122  1.00  0.00    -0.095 A  
HETATM   14  C   UNL     1      -6.062   8.607  66.723  1.00  0.00    -0.058 A  
HETATM   15  C   UNL     1      -6.975   9.637  66.494  1.00  0.00    -0.085 A  
HETATM   16  C   UNL     1      -6.442   7.280  66.526  1.00  0.00    -0.052 A  
ENDBRANCH   4  11
BRANCH   4  17
HETATM   17  C   UNL     1     -10.030  10.995  66.895  1.00  0.00    -0.231 A  
HETATM   18  C   UNL     1     -11.909  10.859  68.432  1.00  0.00    -0.195 A  
HETATM   19  C   UNL     1     -11.452  11.992  69.106  1.00  0.00    -0.300 A  
HETATM   20  C   UNL     1     -10.310  12.649  68.630  1.00  0.00    -0.192 A  
HETATM   21  C   UNL     1      -9.607  12.163  67.530  1.00  0.00    -0.179 A  
HETATM   22  C   UNL     1     -11.200  10.360  67.332  1.00  0.00    -0.205 A  
BRANCH  19  23
HETATM   23  O   UNL     1     -12.172  12.373  70.219  1.00  0.00    -0.327 OA 
BRANCH  23  24
HETATM   24  C   UNL     1     -12.067  11.445  71.304  1.00  0.00     0.018 C  
BRANCH  24  25
HETATM   25  C   UNL     1     -13.374  10.694  71.584  1.00  0.00    -0.307 C  
BRANCH  25  26
HETATM   26  N   UNL     1     -13.177   9.225  71.540  1.00  0.00    -0.360 NA 
HETATM   27  C   UNL     1     -14.205   8.544  72.325  1.00  0.00    -0.389 C  
HETATM   28  C   UNL     1     -11.847   8.821  72.009  1.00  0.00    -0.372 C  
ENDBRANCH  25  26
ENDBRANCH  24  25
ENDBRANCH  23  24
ENDBRANCH  19  23
ENDBRANCH   4  17
TORSDOF 7
ENDMDL
MODEL       71
REMARK 921   NORMALIZED FREE ENERGY PREDICTED BY IDOCK:   -4.38 KCAL/MOL
REMARK 922        TOTAL FREE ENERGY PREDICTED BY IDOCK:   -8.16 KCAL/MOL
REMARK 923 INTER-LIGAND FREE ENERGY PREDICTED BY IDOCK:   -6.20 KCAL/MOL
REMARK 924 INTRA-LIGAND FREE ENERGY PREDICTED BY IDOCK:   -1.95 KCAL/MOL
REMARK 927      BINDING AFFINITY PREDICTED BY RF-SCORE:    0.00 PKD
ROOT
HETATM    1  C   UNL     1      -8.001   4.954  67.813  1.00  0.00    -0.094 C  
HETATM    2  C   UNL     1      -8.900   5.596  68.858  1.00  0.00    -0.109 C  
HETATM    3  C   UNL     1      -9.302   7.071  68.799  1.00  0.00    -0.134 C  
HETATM    4  C   UNL     1      -8.985   8.043  67.896  1.00  0.00    -0.129 C  
ENDROOT
BRANCH   3   5
HETATM    5  C   UNL     1     -10.206   7.365  69.956  1.00  0.00    -0.211 A  
HETATM    6  C   UNL     1     -11.450   6.727  70.052  1.00  0.00    -0.390 A  
HETATM    7  C   UNL     1      -9.801   8.224  70.988  1.00  0.00    -0.225 A  
HETATM    8  C   UNL     1     -10.625   8.436  72.098  1.00  0.00    -0.400 A  
HETATM    9  C   UNL     1     -12.269   6.934  71.165  1.00  0.00    -0.428 A  
HETATM   10  C   UNL     1     -11.856   7.786  72.188  1.00  0.00    -0.370 A  
ENDBRANCH   3   5
BRANCH   4  11
HETATM   11  C   UNL     1      -8.077   7.785  66.756  1.00  0.00    -0.115 A  
HETATM   12  C   UNL     1      -6.685   7.827  66.923  1.00  0.00    -0.067 A  
HETATM   13  C   UNL     1      -5.838   7.544  65.849  1.00  0.00    -0.037 A  
HETATM   14  C   UNL     1      -7.757   7.242  64.413  1.00  0.00    -0.120 A  
HETATM   15  C   UNL     1      -8.605   7.522  65.485  1.00  0.00    -0.102 A  
HETATM   16  C   UNL     1      -6.375   7.242  64.597  1.00  0.00    -0.037 A  
ENDBRANCH   4  11
BRANCH   4  17
HETATM   17  C   UNL     1      -9.566   9.406  68.053  1.00  0.00    -0.156 A  
HETATM   18  C   UNL     1      -9.329  11.785  68.492  1.00  0.00    -0.158 A  
HETATM   19  C   UNL     1     -10.682  11.982  68.211  1.00  0.00    -0.224 A  
HETATM   20  C   UNL     1     -11.478  10.871  67.903  1.00  0.00    -0.344 A  
HETATM   21  C   UNL     1     -10.930   9.592  67.832  1.00  0.00    -0.205 A  
HETATM   22  C   UNL     1      -8.771  10.503  68.412  1.00  0.00    -0.137 A  
BRANCH  19  23
HETATM   23  O   UNL     1     -11.130  13.285  68.246  1.00  0.00    -0.243 OA 
BRANCH  23  24
HETATM   24  C   UNL     1     -12.043  13.597  67.189  1.00  0.00    -0.362 C  
BRANCH  24  25
HETATM   25  C   UNL     1     -11.347  13.869  65.851  1.00  0.00    -0.313 C  
BRANCH  25  26
HETATM   26  N   UNL     1     -11.560  12.759  64.891  1.00  0.00    -0.316 NA 
HETATM   27  C   UNL     1     -10.295  12.093  64.585  1.00  0.00    -0.297 C  
HETATM   28  C   UNL     1     -12.199  13.204  63.648  1.00  0.00    -0.479 C  
ENDBRANCH  25  26
ENDBRANCH  24  25
ENDBRANCH  23  24
ENDBRANCH  19  23
ENDBRANCH   4  17
TORSDOF 7
ENDMDL
MODEL       72
REMARK 921   NORMALIZED FREE ENERGY PREDICTED BY IDOCK:   -4.37 KCAL/MOL
REMARK 922        TOTAL FREE ENERGY PREDICTED BY IDOCK:   -8.15 KCAL/MOL
REMARK 923 INTER-LIGAND FREE ENERGY PREDICTED BY IDOCK:   -5.93 KCAL/MOL
REMARK 924 INTRA-LIGAND FREE ENERGY PREDICTED BY IDOCK:   -2.22 KCAL/MOL
REMARK 927      BINDING AFFINITY PREDICTED BY RF-SCORE:    0.00 PKD
ROOT
HETATM    1  C   UNL     1      -7.930  13.580  67.181  1.00  0.00    -0.058 C  
HETATM    2  C   UNL     1      -7.328  12.369  67.877  1.00  0.00    -0.112 C  
HETATM    3  C   UNL     1      -8.189  11.255  68.475  1.00  0.00    -0.150 C  
HETATM    4  C   UNL     1      -9.544  11.103  68.515  1.00  0.00    -0.193 C  
ENDROOT
BRANCH   3   5
HETATM    5  C   UNL     1      -7.284  10.213  69.056  1.00  0.00    -0.076 A  
HETATM    6  C   UNL     1      -6.844  10.329  70.382  1.00  0.00    -0.109 A  
HETATM    7  C   UNL     1      -6.919   9.080  68.315  1.00  0.00    -0.076 A  
HETATM    8  C   UNL     1      -6.130   8.079  68.894  1.00  0.00    -0.039 A  
HETATM    9  C   UNL     1      -6.063   9.326  70.960  1.00  0.00    -0.068 A  
HETATM   10  C   UNL     1      -5.709   8.200  70.218  1.00  0.00    -0.022 A  
ENDBRANCH   3   5
BRANCH   4  11
HETATM   11  C   UNL     1     -10.461  12.127  67.967  1.00  0.00    -0.227 A  
HETATM   12  C   UNL     1     -10.940  13.169  68.775  1.00  0.00    -0.298 A  
HETATM   13  C   UNL     1     -11.775  14.151  68.238  1.00  0.00    -0.383 A  
HETATM   14  C   UNL     1     -11.721  13.028  66.099  1.00  0.00    -0.445 A  
HETATM   15  C   UNL     1     -10.885  12.047  66.634  1.00  0.00    -0.311 A  
HETATM   16  C   UNL     1     -12.156  14.086  66.897  1.00  0.00    -0.465 A  
ENDBRANCH   4  11
BRANCH   4  17
HETATM   17  C   UNL     1     -10.126   9.874  69.124  1.00  0.00    -0.210 A  
HETATM   18  C   UNL     1     -11.172   8.708  70.983  1.00  0.00    -0.321 A  
HETATM   19  C   UNL     1     -11.335   7.571  70.190  1.00  0.00    -0.151 A  
HETATM   20  C   UNL     1     -10.840   7.582  68.879  1.00  0.00    -0.063 A  
HETATM   21  C   UNL     1     -10.233   8.719  68.350  1.00  0.00    -0.228 A  
HETATM   22  C   UNL     1     -10.572   9.857  70.452  1.00  0.00    -0.364 A  
BRANCH  19  23
HETATM   23  O   UNL     1     -11.998   6.510  70.771  1.00  0.00    -0.378 OA 
BRANCH  23  24
HETATM   24  C   UNL     1     -12.031   6.579  72.200  1.00  0.00    -0.290 C  
BRANCH  24  25
HETATM   25  C   UNL     1     -11.500   5.310  72.878  1.00  0.00    -0.270 C  
BRANCH  25  26
HETATM   26  N   UNL     1     -10.220   5.565  73.581  1.00  0.00    -0.199 NA 
HETATM   27  C   UNL     1     -10.196   6.918  74.133  1.00  0.00    -0.296 C  
HETATM   28  C   UNL     1      -9.052   5.362  72.717  1.00  0.00    -0.130 C  
ENDBRANCH  25  26
ENDBRANCH  24  25
ENDBRANCH  23  24
ENDBRANCH  19  23
ENDBRANCH   4  17
TORSDOF 7
ENDMDL
MODEL       73
REMARK 921   NORMALIZED FREE ENERGY PREDICTED BY IDOCK:   -4.37 KCAL/MOL
REMARK 922        TOTAL FREE ENERGY PREDICTED BY IDOCK:   -8.14 KCAL/MOL
REMARK 923 INTER-LIGAND FREE ENERGY PREDICTED BY IDOCK:   -5.99 KCAL/MOL
REMARK 924 INTRA-LIGAND FREE ENERGY PREDICTED BY IDOCK:   -2.15 KCAL/MOL
REMARK 927      BINDING AFFINITY PREDICTED BY RF-SCORE:    0.00 PKD
ROOT
HETATM    1  C   UNL     1      -9.603  11.514  63.096  1.00  0.00    -0.381 C  
HETATM    2  C   UNL     1      -9.050  10.285  63.801  1.00  0.00    -0.285 C  
HETATM    3  C   UNL     1      -9.170  10.083  65.312  1.00  0.00    -0.268 C  
HETATM    4  C   UNL     1      -9.740  10.868  66.271  1.00  0.00    -0.245 C  
ENDROOT
BRANCH   3   5
HETATM    5  C   UNL     1      -8.548   8.768  65.668  1.00  0.00    -0.195 A  
HETATM    6  C   UNL     1      -9.356   7.638  65.852  1.00  0.00     0.003 A  
HETATM    7  C   UNL     1      -7.155   8.630  65.758  1.00  0.00    -0.079 A  
HETATM    8  C   UNL     1      -6.583   7.381  66.022  1.00  0.00    -0.049 A  
HETATM    9  C   UNL     1      -8.782   6.390  66.108  1.00  0.00    -0.151 A  
HETATM   10  C   UNL     1      -7.397   6.261  66.190  1.00  0.00    -0.080 A  
ENDBRANCH   3   5
BRANCH   4  11
HETATM   11  C   UNL     1     -10.343  12.181  65.950  1.00  0.00    -0.286 A  
HETATM   12  C   UNL     1      -9.599  13.363  66.079  1.00  0.00    -0.174 A  
HETATM   13  C   UNL     1     -10.167  14.593  65.737  1.00  0.00    -0.360 A  
HETATM   14  C   UNL     1     -12.245  13.486  65.199  1.00  0.00    -0.462 A  
HETATM   15  C   UNL     1     -11.680  12.256  65.539  1.00  0.00    -0.433 A  
HETATM   16  C   UNL     1     -11.486  14.652  65.287  1.00  0.00    -0.361 A  
ENDBRANCH   4  11
BRANCH   4  17
HETATM   17  C   UNL     1      -9.762  10.397  67.685  1.00  0.00    -0.191 A  
HETATM   18  C   UNL     1      -8.685  10.074  69.840  1.00  0.00    -0.169 A  
HETATM   19  C   UNL     1      -9.888   9.618  70.383  1.00  0.00    -0.256 A  
HETATM   20  C   UNL     1     -11.008   9.506  69.550  1.00  0.00    -0.217 A  
HETATM   21  C   UNL     1     -10.948   9.884  68.210  1.00  0.00    -0.248 A  
HETATM   22  C   UNL     1      -8.623  10.465  68.496  1.00  0.00    -0.134 A  
BRANCH  19  23
HETATM   23  O   UNL     1      -9.876   9.321  71.729  1.00  0.00    -0.252 OA 
BRANCH  23  24
HETATM   24  C   UNL     1      -9.998   7.921  72.000  1.00  0.00    -0.193 C  
BRANCH  24  25
HETATM   25  C   UNL     1      -8.652   7.240  72.278  1.00  0.00    -0.116 C  
BRANCH  25  26
HETATM   26  N   UNL     1      -8.500   5.995  71.488  1.00  0.00    -0.127 NA 
HETATM   27  C   UNL     1      -9.389   6.010  70.326  1.00  0.00    -0.159 C  
HETATM   28  C   UNL     1      -8.747   4.788  72.285  1.00  0.00    -0.120 C  
ENDBRANCH  25  26
ENDBRANCH  24  25
ENDBRANCH  23  24
ENDBRANCH  19  23
ENDBRANCH   4  17
TORSDOF 7
ENDMDL
MODEL       74
REMARK 921   NORMALIZED FREE ENERGY PREDICTED BY IDOCK:   -4.36 KCAL/MOL
REMARK 922        TOTAL FREE ENERGY PREDICTED BY IDOCK:   -8.13 KCAL/MOL
REMARK 923 INTER-LIGAND FREE ENERGY PREDICTED BY IDOCK:   -5.99 KCAL/MOL
REMARK 924 INTRA-LIGAND FREE ENERGY PREDICTED BY IDOCK:   -2.13 KCAL/MOL
REMARK 927      BINDING AFFINITY PREDICTED BY RF-SCORE:    0.00 PKD
ROOT
HETATM    1  C   UNL     1      -8.800  14.749  66.446  1.00  0.00    -0.152 C  
HETATM    2  C   UNL     1      -7.973  13.684  67.149  1.00  0.00    -0.060 C  
HETATM    3  C   UNL     1      -8.477  12.255  67.351  1.00  0.00    -0.176 C  
HETATM    4  C   UNL     1      -9.653  11.668  66.987  1.00  0.00    -0.196 C  
ENDROOT
BRANCH   3   5
HETATM    5  C   UNL     1      -7.412  11.467  68.050  1.00  0.00    -0.098 A  
HETATM    6  C   UNL     1      -7.456  11.314  69.443  1.00  0.00     0.014 A  
HETATM    7  C   UNL     1      -6.402  10.819  67.325  1.00  0.00    -0.065 A  
HETATM    8  C   UNL     1      -5.454  10.029  67.984  1.00  0.00    -0.038 A  
HETATM    9  C   UNL     1      -6.512  10.518  70.098  1.00  0.00    -0.144 A  
HETATM   10  C   UNL     1      -5.514   9.874  69.369  1.00  0.00    -0.034 A  
ENDBRANCH   3   5
BRANCH   4  11
HETATM   11  C   UNL     1     -10.731  12.428  66.314  1.00  0.00    -0.287 A  
HETATM   12  C   UNL     1     -11.626  13.213  67.056  1.00  0.00    -0.408 A  
HETATM   13  C   UNL     1     -12.615  13.956  66.407  1.00  0.00    -0.314 A  
HETATM   14  C   UNL     1     -11.875  13.088  64.278  1.00  0.00    -0.456 A  
HETATM   15  C   UNL     1     -10.884  12.346  64.924  1.00  0.00    -0.333 A  
HETATM   16  C   UNL     1     -12.732  13.901  65.018  1.00  0.00    -0.372 A  
ENDBRANCH   4  11
BRANCH   4  17
HETATM   17  C   UNL     1      -9.868  10.220  67.267  1.00  0.00    -0.222 A  
HETATM   18  C   UNL     1     -10.658   8.421  68.698  1.00  0.00    -0.149 A  
HETATM   19  C   UNL     1     -10.373   7.489  67.700  1.00  0.00    -0.229 A  
HETATM   20  C   UNL     1      -9.786   7.931  66.507  1.00  0.00    -0.279 A  
HETATM   21  C   UNL     1      -9.526   9.283  66.292  1.00  0.00    -0.284 A  
HETATM   22  C   UNL     1     -10.408   9.783  68.483  1.00  0.00    -0.228 A  
BRANCH  19  23
HETATM   23  O   UNL     1     -10.715   6.180  67.970  1.00  0.00    -0.239 OA 
BRANCH  23  24
HETATM   24  C   UNL     1     -11.225   5.991  69.294  1.00  0.00    -0.297 C  
BRANCH  24  25
HETATM   25  C   UNL     1     -10.286   5.177  70.192  1.00  0.00    -0.270 C  
BRANCH  25  26
HETATM   26  N   UNL     1     -10.304   5.674  71.588  1.00  0.00    -0.208 NA 
HETATM   27  C   UNL     1     -11.562   6.362  71.875  1.00  0.00    -0.318 C  
HETATM   28  C   UNL     1      -9.175   6.564  71.884  1.00  0.00    -0.148 C  
ENDBRANCH  25  26
ENDBRANCH  24  25
ENDBRANCH  23  24
ENDBRANCH  19  23
ENDBRANCH   4  17
TORSDOF 7
ENDMDL
MODEL       75
REMARK 921   NORMALIZED FREE ENERGY PREDICTED BY IDOCK:   -4.33 KCAL/MOL
REMARK 922        TOTAL FREE ENERGY PREDICTED BY IDOCK:   -8.08 KCAL/MOL
REMARK 923 INTER-LIGAND FREE ENERGY PREDICTED BY IDOCK:   -6.14 KCAL/MOL
REMARK 924 INTRA-LIGAND FREE ENERGY PREDICTED BY IDOCK:   -1.95 KCAL/MOL
REMARK 927      BINDING AFFINITY PREDICTED BY RF-SCORE:    0.00 PKD
ROOT
HETATM    1  C   UNL     1      -9.334  13.979  66.726  1.00  0.00    -0.289 C  
HETATM    2  C   UNL     1      -8.677  12.935  67.615  1.00  0.00    -0.185 C  
HETATM    3  C   UNL     1      -8.903  11.434  67.421  1.00  0.00    -0.150 C  
HETATM    4  C   UNL     1      -9.660  10.760  66.509  1.00  0.00    -0.217 C  
ENDROOT
BRANCH   3   5
HETATM    5  C   UNL     1      -8.093  10.695  68.441  1.00  0.00    -0.123 A  
HETATM    6  C   UNL     1      -8.714  10.176  69.586  1.00  0.00    -0.176 A  
HETATM    7  C   UNL     1      -6.727  10.451  68.238  1.00  0.00    -0.061 A  
HETATM    8  C   UNL     1      -5.997   9.698  69.164  1.00  0.00    -0.034 A  
HETATM    9  C   UNL     1      -7.984   9.419  70.506  1.00  0.00    -0.199 A  
HETATM   10  C   UNL     1      -6.628   9.177  70.294  1.00  0.00    -0.052 A  
ENDBRANCH   3   5
BRANCH   4  11
HETATM   11  C   UNL     1     -10.486  11.466  65.504  1.00  0.00    -0.322 A  
HETATM   12  C   UNL     1     -10.054  11.587  64.175  1.00  0.00    -0.354 A  
HETATM   13  C   UNL     1     -10.860  12.222  63.227  1.00  0.00    -0.359 A  
HETATM   14  C   UNL     1     -12.505  12.686  64.934  1.00  0.00    -0.564 A  
HETATM   15  C   UNL     1     -11.703  12.050  65.882  1.00  0.00    -0.312 A  
HETATM   16  C   UNL     1     -12.089  12.762  63.606  1.00  0.00    -0.624 A  
ENDBRANCH   4  11
BRANCH   4  17
HETATM   17  C   UNL     1      -9.659   9.270  66.514  1.00  0.00    -0.285 A  
HETATM   18  C   UNL     1     -10.645   7.141  67.152  1.00  0.00    -0.417 A  
HETATM   19  C   UNL     1      -9.694   6.462  66.389  1.00  0.00    -0.089 A  
HETATM   20  C   UNL     1      -8.697   7.198  65.735  1.00  0.00    -0.125 A  
HETATM   21  C   UNL     1      -8.672   8.589  65.801  1.00  0.00    -0.210 A  
HETATM   22  C   UNL     1     -10.630   8.541  67.213  1.00  0.00    -0.315 A  
BRANCH  19  23
HETATM   23  O   UNL     1      -9.825   5.090  66.329  1.00  0.00    -0.164 OA 
BRANCH  23  24
HETATM   24  C   UNL     1      -9.795   4.463  67.615  1.00  0.00    -0.113 C  
BRANCH  24  25
HETATM   25  C   UNL     1      -8.373   4.226  68.138  1.00  0.00    -0.093 C  
BRANCH  25  26
HETATM   26  N   UNL     1      -8.083   2.780  68.289  1.00  0.00    -0.060 NA 
HETATM   27  C   UNL     1      -7.142   2.334  67.263  1.00  0.00    -0.048 C  
HETATM   28  C   UNL     1      -9.295   1.955  68.242  1.00  0.00    -0.197 C  
ENDBRANCH  25  26
ENDBRANCH  24  25
ENDBRANCH  23  24
ENDBRANCH  19  23
ENDBRANCH   4  17
TORSDOF 7
ENDMDL
MODEL       76
REMARK 921   NORMALIZED FREE ENERGY PREDICTED BY IDOCK:   -4.32 KCAL/MOL
REMARK 922        TOTAL FREE ENERGY PREDICTED BY IDOCK:   -8.07 KCAL/MOL
REMARK 923 INTER-LIGAND FREE ENERGY PREDICTED BY IDOCK:   -6.51 KCAL/MOL
REMARK 924 INTRA-LIGAND FREE ENERGY PREDICTED BY IDOCK:   -1.56 KCAL/MOL
REMARK 927      BINDING AFFINITY PREDICTED BY RF-SCORE:    0.00 PKD
ROOT
HETATM    1  C   UNL     1      -9.817   6.973  66.107  1.00  0.00     0.109 C  
HETATM    2  C   UNL     1     -10.382   7.909  67.164  1.00  0.00    -0.398 C  
HETATM    3  C   UNL     1     -10.037   9.398  67.209  1.00  0.00    -0.285 C  
HETATM    4  C   UNL     1      -9.234  10.149  66.401  1.00  0.00    -0.190 C  
ENDROOT
BRANCH   3   5
HETATM    5  C   UNL     1     -10.777  10.025  68.350  1.00  0.00    -0.271 A  
HETATM    6  C   UNL     1     -10.510   9.619  69.665  1.00  0.00    -0.246 A  
HETATM    7  C   UNL     1     -11.692  11.065  68.131  1.00  0.00    -0.277 A  
HETATM    8  C   UNL     1     -12.325  11.690  69.211  1.00  0.00    -0.088 A  
HETATM    9  C   UNL     1     -11.138  10.250  70.742  1.00  0.00    -0.303 A  
HETATM   10  C   UNL     1     -12.042  11.286  70.516  1.00  0.00    -0.481 A  
ENDBRANCH   3   5
BRANCH   4  11
HETATM   11  C   UNL     1      -8.475   9.551  65.281  1.00  0.00    -0.159 A  
HETATM   12  C   UNL     1      -9.023   9.493  63.991  1.00  0.00    -0.228 A  
HETATM   13  C   UNL     1      -8.283   8.961  62.933  1.00  0.00    -0.190 A  
HETATM   14  C   UNL     1      -6.465   8.475  64.449  1.00  0.00    -0.067 A  
HETATM   15  C   UNL     1      -7.203   9.008  65.507  1.00  0.00    -0.085 A  
HETATM   16  C   UNL     1      -7.000   8.463  63.161  1.00  0.00    -0.090 A  
ENDBRANCH   4  11
BRANCH   4  17
HETATM   17  C   UNL     1      -9.114  11.614  66.645  1.00  0.00    -0.196 A  
HETATM   18  C   UNL     1      -9.835  13.904  66.260  1.00  0.00    -0.318 A  
HETATM   19  C   UNL     1      -8.941  14.358  67.232  1.00  0.00    -0.212 A  
HETATM   20  C   UNL     1      -8.102  13.433  67.866  1.00  0.00    -0.162 A  
HETATM   21  C   UNL     1      -8.179  12.074  67.572  1.00  0.00    -0.159 A  
HETATM   22  C   UNL     1      -9.923  12.537  65.969  1.00  0.00    -0.269 A  
BRANCH  19  23
HETATM   23  O   UNL     1      -8.970  15.710  67.504  1.00  0.00    -0.187 OA 
BRANCH  23  24
HETATM   24  C   UNL     1     -10.251  16.305  67.277  1.00  0.00    -0.279 C  
BRANCH  24  25
HETATM   25  C   UNL     1     -10.720  17.190  68.438  1.00  0.00    -0.347 C  
BRANCH  25  26
HETATM   26  N   UNL     1     -10.511  18.628  68.144  1.00  0.00    -0.350 NA 
HETATM   27  C   UNL     1     -10.483  18.860  66.701  1.00  0.00    -0.428 C  
HETATM   28  C   UNL     1      -9.285  19.156  68.755  1.00  0.00    -0.359 C  
ENDBRANCH  25  26
ENDBRANCH  24  25
ENDBRANCH  23  24
ENDBRANCH  19  23
ENDBRANCH   4  17
TORSDOF 7
ENDMDL
MODEL       77
REMARK 921   NORMALIZED FREE ENERGY PREDICTED BY IDOCK:   -4.29 KCAL/MOL
REMARK 922        TOTAL FREE ENERGY PREDICTED BY IDOCK:   -8.04 KCAL/MOL
REMARK 923 INTER-LIGAND FREE ENERGY PREDICTED BY IDOCK:   -7.92 KCAL/MOL
REMARK 924 INTRA-LIGAND FREE ENERGY PREDICTED BY IDOCK:   -0.12 KCAL/MOL
REMARK 927      BINDING AFFINITY PREDICTED BY RF-SCORE:    0.00 PKD
ROOT
HETATM    1  C   UNL     1     -10.846   9.181  70.390  1.00  0.00    -0.285 C  
HETATM    2  C   UNL     1     -11.367  10.600  70.555  1.00  0.00    -0.355 C  
HETATM    3  C   UNL     1     -11.257  11.648  69.447  1.00  0.00    -0.311 C  
HETATM    4  C   UNL     1     -10.728  11.562  68.192  1.00  0.00    -0.242 C  
ENDROOT
BRANCH   3   5
HETATM    5  C   UNL     1     -11.886  12.919  69.927  1.00  0.00    -0.373 A  
HETATM    6  C   UNL     1     -13.040  12.871  70.721  1.00  0.00     0.114 A  
HETATM    7  C   UNL     1     -11.301  14.163  69.652  1.00  0.00    -0.289 A  
HETATM    8  C   UNL     1     -11.859  15.338  70.166  1.00  0.00    -0.356 A  
HETATM    9  C   UNL     1     -13.593  14.045  71.240  1.00  0.00    -0.268 A  
HETATM   10  C   UNL     1     -13.001  15.277  70.965  1.00  0.00    -0.526 A  
ENDBRANCH   3   5
BRANCH   4  11
HETATM   11  C   UNL     1     -10.081  10.325  67.700  1.00  0.00    -0.229 A  
HETATM   12  C   UNL     1     -10.824   9.345  67.026  1.00  0.00    -0.096 A  
HETATM   13  C   UNL     1     -10.196   8.200  66.533  1.00  0.00    -0.248 A  
HETATM   14  C   UNL     1      -8.090   8.963  67.437  1.00  0.00    -0.108 A  
HETATM   15  C   UNL     1      -8.715  10.109  67.930  1.00  0.00    -0.122 A  
HETATM   16  C   UNL     1      -8.827   8.015  66.729  1.00  0.00    -0.157 A  
ENDBRANCH   4  11
BRANCH   4  17
HETATM   17  C   UNL     1     -10.800  12.741  67.284  1.00  0.00    -0.277 A  
HETATM   18  C   UNL     1     -12.070  14.332  65.955  1.00  0.00    -0.423 A  
HETATM   19  C   UNL     1     -10.904  15.047  65.679  1.00  0.00    -0.349 A  
HETATM   20  C   UNL     1      -9.683  14.567  66.170  1.00  0.00    -0.340 A  
HETATM   21  C   UNL     1      -9.626  13.420  66.959  1.00  0.00    -0.244 A  
HETATM   22  C   UNL     1     -12.020  13.184  66.757  1.00  0.00    -0.434 A  
BRANCH  19  23
HETATM   23  O   UNL     1     -11.055  16.202  64.941  1.00  0.00    -0.433 OA 
BRANCH  23  24
HETATM   24  C   UNL     1     -10.636  17.379  65.640  1.00  0.00    -0.153 C  
BRANCH  24  25
HETATM   25  C   UNL     1     -10.428  17.147  67.141  1.00  0.00    -0.291 C  
BRANCH  25  26
HETATM   26  N   UNL     1     -10.128  18.415  67.850  1.00  0.00    -0.343 NA 
HETATM   27  C   UNL     1     -10.447  19.565  67.005  1.00  0.00    -0.472 C  
HETATM   28  C   UNL     1      -8.731  18.496  68.291  1.00  0.00    -0.311 C  
ENDBRANCH  25  26
ENDBRANCH  24  25
ENDBRANCH  23  24
ENDBRANCH  19  23
ENDBRANCH   4  17
TORSDOF 7
ENDMDL
MODEL       78
REMARK 921   NORMALIZED FREE ENERGY PREDICTED BY IDOCK:   -4.29 KCAL/MOL
REMARK 922        TOTAL FREE ENERGY PREDICTED BY IDOCK:   -8.04 KCAL/MOL
REMARK 923 INTER-LIGAND FREE ENERGY PREDICTED BY IDOCK:   -5.82 KCAL/MOL
REMARK 924 INTRA-LIGAND FREE ENERGY PREDICTED BY IDOCK:   -2.22 KCAL/MOL
REMARK 927      BINDING AFFINITY PREDICTED BY RF-SCORE:    0.00 PKD
ROOT
HETATM    1  C   UNL     1      -8.010   8.647  63.451  1.00  0.00    -0.160 C  
HETATM    2  C   UNL     1      -8.664   9.797  64.201  1.00  0.00    -0.233 C  
HETATM    3  C   UNL     1      -9.013   9.714  65.688  1.00  0.00    -0.208 C  
HETATM    4  C   UNL     1      -8.836   8.703  66.586  1.00  0.00    -0.155 C  
ENDROOT
BRANCH   3   5
HETATM    5  C   UNL     1      -9.615  11.018  66.110  1.00  0.00    -0.240 A  
HETATM    6  C   UNL     1      -8.786  12.071  66.521  1.00  0.00    -0.172 A  
HETATM    7  C   UNL     1     -10.999  11.230  66.039  1.00  0.00    -0.237 A  
HETATM    8  C   UNL     1     -11.543  12.475  66.369  1.00  0.00    -0.449 A  
HETATM    9  C   UNL     1      -9.331  13.317  66.843  1.00  0.00    -0.244 A  
HETATM   10  C   UNL     1     -10.708  13.520  66.765  1.00  0.00    -0.278 A  
ENDBRANCH   3   5
BRANCH   4  11
HETATM   11  C   UNL     1      -8.263   7.397  66.191  1.00  0.00    -0.130 A  
HETATM   12  C   UNL     1      -9.095   6.326  65.833  1.00  0.00    -0.086 A  
HETATM   13  C   UNL     1      -8.542   5.110  65.426  1.00  0.00    -0.146 A  
HETATM   14  C   UNL     1      -6.324   5.993  65.794  1.00  0.00    -0.042 A  
HETATM   15  C   UNL     1      -6.874   7.209  66.199  1.00  0.00    -0.057 A  
HETATM   16  C   UNL     1      -7.157   4.948  65.396  1.00  0.00    -0.063 A  
ENDBRANCH   4  11
BRANCH   4  17
HETATM   17  C   UNL     1      -9.226   8.911  68.009  1.00  0.00    -0.147 A  
HETATM   18  C   UNL     1     -10.837   8.748  69.823  1.00  0.00    -0.196 A  
HETATM   19  C   UNL     1      -9.877   9.200  70.729  1.00  0.00    -0.270 A  
HETATM   20  C   UNL     1      -8.608   9.556  70.252  1.00  0.00    -0.258 A  
HETATM   21  C   UNL     1      -8.285   9.422  68.903  1.00  0.00    -0.111 A  
HETATM   22  C   UNL     1     -10.513   8.601  68.468  1.00  0.00    -0.209 A  
BRANCH  19  23
HETATM   23  O   UNL     1     -10.260   9.248  72.053  1.00  0.00    -0.191 OA 
BRANCH  23  24
HETATM   24  C   UNL     1     -11.293   8.312  72.376  1.00  0.00    -0.388 C  
BRANCH  24  25
HETATM   25  C   UNL     1     -10.774   7.068  73.107  1.00  0.00    -0.326 C  
BRANCH  25  26
HETATM   26  N   UNL     1     -11.222   5.821  72.442  1.00  0.00    -0.279 NA 
HETATM   27  C   UNL     1     -11.355   4.738  73.416  1.00  0.00    -0.312 C  
HETATM   28  C   UNL     1     -10.323   5.406  71.359  1.00  0.00    -0.228 C  
ENDBRANCH  25  26
ENDBRANCH  24  25
ENDBRANCH  23  24
ENDBRANCH  19  23
ENDBRANCH   4  17
TORSDOF 7
ENDMDL
MODEL       79
REMARK 921   NORMALIZED FREE ENERGY PREDICTED BY IDOCK:   -4.28 KCAL/MOL
REMARK 922        TOTAL FREE ENERGY PREDICTED BY IDOCK:   -8.02 KCAL/MOL
REMARK 923 INTER-LIGAND FREE ENERGY PREDICTED BY IDOCK:   -6.17 KCAL/MOL
REMARK 924 INTRA-LIGAND FREE ENERGY PREDICTED BY IDOCK:   -1.85 KCAL/MOL
REMARK 927      BINDING AFFINITY PREDICTED BY RF-SCORE:    0.00 PKD
ROOT
HETATM    1  C   UNL     1      -7.545   5.858  67.510  1.00  0.00    -0.093 C  
HETATM    2  C   UNL     1      -8.498   6.323  68.600  1.00  0.00    -0.122 C  
HETATM    3  C   UNL     1      -9.123   7.719  68.602  1.00  0.00    -0.136 C  
HETATM    4  C   UNL     1      -8.988   8.754  67.724  1.00  0.00    -0.140 C  
ENDROOT
BRANCH   3   5
HETATM    5  C   UNL     1     -10.024   7.837  69.792  1.00  0.00    -0.189 A  
HETATM    6  C   UNL     1     -11.208   7.089  69.850  1.00  0.00    -0.286 A  
HETATM    7  C   UNL     1      -9.670   8.637  70.888  1.00  0.00    -0.254 A  
HETATM    8  C   UNL     1     -10.486   8.683  72.023  1.00  0.00    -0.422 A  
HETATM    9  C   UNL     1     -12.018   7.131  70.988  1.00  0.00    -0.387 A  
HETATM   10  C   UNL     1     -11.656   7.925  72.074  1.00  0.00    -0.357 A  
ENDBRANCH   3   5
BRANCH   4  11
HETATM   11  C   UNL     1      -8.088   8.672  66.551  1.00  0.00    -0.103 A  
HETATM   12  C   UNL     1      -8.570   8.249  65.304  1.00  0.00    -0.159 A  
HETATM   13  C   UNL     1      -7.721   8.211  64.196  1.00  0.00    -0.136 A  
HETATM   14  C   UNL     1      -5.883   8.952  65.578  1.00  0.00    -0.051 A  
HETATM   15  C   UNL     1      -6.730   8.992  66.686  1.00  0.00    -0.075 A  
HETATM   16  C   UNL     1      -6.381   8.573  64.332  1.00  0.00    -0.067 A  
ENDBRANCH   4  11
BRANCH   4  17
HETATM   17  C   UNL     1      -9.766  10.006  67.942  1.00  0.00    -0.168 A  
HETATM   18  C   UNL     1     -11.870  11.221  68.020  1.00  0.00    -0.244 A  
HETATM   19  C   UNL     1     -11.208  12.356  68.489  1.00  0.00    -0.279 A  
HETATM   20  C   UNL     1      -9.815  12.319  68.630  1.00  0.00    -0.098 A  
HETATM   21  C   UNL     1      -9.095  11.159  68.352  1.00  0.00    -0.168 A  
HETATM   22  C   UNL     1     -11.153  10.049  67.749  1.00  0.00    -0.246 A  
BRANCH  19  23
HETATM   23  O   UNL     1     -12.000  13.443  68.796  1.00  0.00    -0.335 OA 
BRANCH  23  24
HETATM   24  C   UNL     1     -11.838  14.535  67.886  1.00  0.00    -0.336 C  
BRANCH  24  25
HETATM   25  C   UNL     1     -11.433  15.842  68.577  1.00  0.00    -0.377 C  
BRANCH  25  26
HETATM   26  N   UNL     1     -10.781  16.779  67.630  1.00  0.00    -0.331 NA 
HETATM   27  C   UNL     1      -9.785  16.080  66.819  1.00  0.00    -0.239 C  
HETATM   28  C   UNL     1     -10.156  17.920  68.308  1.00  0.00    -0.375 C  
ENDBRANCH  25  26
ENDBRANCH  24  25
ENDBRANCH  23  24
ENDBRANCH  19  23
ENDBRANCH   4  17
TORSDOF 7
ENDMDL
MODEL       80
REMARK 921   NORMALIZED FREE ENERGY PREDICTED BY IDOCK:   -4.26 KCAL/MOL
REMARK 922        TOTAL FREE ENERGY PREDICTED BY IDOCK:   -7.99 KCAL/MOL
REMARK 923 INTER-LIGAND FREE ENERGY PREDICTED BY IDOCK:   -6.65 KCAL/MOL
REMARK 924 INTRA-LIGAND FREE ENERGY PREDICTED BY IDOCK:   -1.34 KCAL/MOL
REMARK 927      BINDING AFFINITY PREDICTED BY RF-SCORE:    0.00 PKD
ROOT
HETATM    1  C   UNL     1     -10.329   7.455  67.902  1.00  0.00    -0.258 C  
HETATM    2  C   UNL     1     -10.248   8.343  66.670  1.00  0.00    -0.335 C  
HETATM    3  C   UNL     1      -9.963   9.843  66.758  1.00  0.00    -0.272 C  
HETATM    4  C   UNL     1      -9.737  10.643  67.840  1.00  0.00    -0.177 C  
ENDROOT
BRANCH   3   5
HETATM    5  C   UNL     1      -9.927  10.405  65.370  1.00  0.00    -0.362 A  
HETATM    6  C   UNL     1      -8.951   9.968  64.464  1.00  0.00    -0.261 A  
HETATM    7  C   UNL     1     -10.901  11.316  64.936  1.00  0.00    -0.299 A  
HETATM    8  C   UNL     1     -10.898  11.778  63.616  1.00  0.00    -0.508 A  
HETATM    9  C   UNL     1      -8.955  10.426  63.144  1.00  0.00    -0.245 A  
HETATM   10  C   UNL     1      -9.929  11.328  62.720  1.00  0.00    -0.197 A  
ENDBRANCH   3   5
BRANCH   4  11
HETATM   11  C   UNL     1      -9.787  10.119  69.224  1.00  0.00    -0.235 A  
HETATM   12  C   UNL     1      -8.748   9.323  69.728  1.00  0.00    -0.168 A  
HETATM   13  C   UNL     1      -8.788   8.865  71.047  1.00  0.00    -0.285 A  
HETATM   14  C   UNL     1     -10.934   9.931  71.354  1.00  0.00    -0.117 A  
HETATM   15  C   UNL     1     -10.895  10.391  70.037  1.00  0.00    -0.348 A  
HETATM   16  C   UNL     1      -9.876   9.179  71.862  1.00  0.00    -0.123 A  
ENDBRANCH   4  11
BRANCH   4  17
HETATM   17  C   UNL     1      -9.428  12.086  67.633  1.00  0.00    -0.185 A  
HETATM   18  C   UNL     1     -10.087  14.426  67.626  1.00  0.00    -0.222 A  
HETATM   19  C   UNL     1      -8.770  14.805  67.360  1.00  0.00    -0.198 A  
HETATM   20  C   UNL     1      -7.801  13.810  67.180  1.00  0.00    -0.030 A  
HETATM   21  C   UNL     1      -8.125  12.461  67.307  1.00  0.00    -0.182 A  
HETATM   22  C   UNL     1     -10.415  13.071  67.765  1.00  0.00    -0.232 A  
BRANCH  19  23
HETATM   23  O   UNL     1      -8.523  16.161  67.309  1.00  0.00    -0.167 OA 
BRANCH  23  24
HETATM   24  C   UNL     1      -8.323  16.748  68.599  1.00  0.00    -0.252 C  
BRANCH  24  25
HETATM   25  C   UNL     1      -6.858  17.098  68.882  1.00  0.00    -0.221 C  
BRANCH  25  26
HETATM   26  N   UNL     1      -6.595  18.543  68.682  1.00  0.00    -0.238 NA 
HETATM   27  C   UNL     1      -6.111  19.155  69.918  1.00  0.00    -0.242 C  
HETATM   28  C   UNL     1      -7.775  19.269  68.199  1.00  0.00    -0.297 C  
ENDBRANCH  25  26
ENDBRANCH  24  25
ENDBRANCH  23  24
ENDBRANCH  19  23
ENDBRANCH   4  17
TORSDOF 7
ENDMDL
MODEL       81
REMARK 921   NORMALIZED FREE ENERGY PREDICTED BY IDOCK:   -4.26 KCAL/MOL
REMARK 922        TOTAL FREE ENERGY PREDICTED BY IDOCK:   -7.99 KCAL/MOL
REMARK 923 INTER-LIGAND FREE ENERGY PREDICTED BY IDOCK:   -6.02 KCAL/MOL
REMARK 924 INTRA-LIGAND FREE ENERGY PREDICTED BY IDOCK:   -1.98 KCAL/MOL
REMARK 927      BINDING AFFINITY PREDICTED BY RF-SCORE:    0.00 PKD
ROOT
HETATM    1  C   UNL     1      -9.312   2.812  69.834  1.00  0.00    -0.202 C  
HETATM    2  C   UNL     1      -9.876   4.065  70.486  1.00  0.00    -0.214 C  
HETATM    3  C   UNL     1      -9.812   5.438  69.816  1.00  0.00    -0.268 C  
HETATM    4  C   UNL     1      -9.294   5.816  68.612  1.00  0.00    -0.136 C  
ENDROOT
BRANCH   3   5
HETATM    5  C   UNL     1     -10.476   6.438  70.711  1.00  0.00    -0.270 A  
HETATM    6  C   UNL     1      -9.703   7.231  71.569  1.00  0.00    -0.168 A  
HETATM    7  C   UNL     1     -11.862   6.644  70.659  1.00  0.00    -0.443 A  
HETATM    8  C   UNL     1     -12.462   7.629  71.449  1.00  0.00    -0.359 A  
HETATM    9  C   UNL     1     -10.303   8.220  72.353  1.00  0.00    -0.402 A  
HETATM   10  C   UNL     1     -11.681   8.421  72.291  1.00  0.00    -0.453 A  
ENDBRANCH   3   5
BRANCH   4  11
HETATM   11  C   UNL     1      -8.613   4.853  67.717  1.00  0.00    -0.103 A  
HETATM   12  C   UNL     1      -9.337   4.122  66.765  1.00  0.00    -0.190 A  
HETATM   13  C   UNL     1      -8.679   3.244  65.900  1.00  0.00    -0.127 A  
HETATM   14  C   UNL     1      -6.577   3.762  66.972  1.00  0.00    -0.045 A  
HETATM   15  C   UNL     1      -7.233   4.641  67.835  1.00  0.00    -0.066 A  
HETATM   16  C   UNL     1      -7.298   3.073  65.998  1.00  0.00    -0.071 A  
ENDBRANCH   4  11
BRANCH   4  17
HETATM   17  C   UNL     1      -9.414   7.235  68.175  1.00  0.00    -0.134 A  
HETATM   18  C   UNL     1     -10.648   9.040  67.113  1.00  0.00    -0.291 A  
HETATM   19  C   UNL     1      -9.657   9.950  67.484  1.00  0.00    -0.157 A  
HETATM   20  C   UNL     1      -8.521   9.478  68.156  1.00  0.00    -0.119 A  
HETATM   21  C   UNL     1      -8.394   8.132  68.493  1.00  0.00    -0.126 A  
HETATM   22  C   UNL     1     -10.529   7.688  67.459  1.00  0.00    -0.336 A  
BRANCH  19  23
HETATM   23  O   UNL     1      -9.888  11.271  67.164  1.00  0.00    -0.187 OA 
BRANCH  23  24
HETATM   24  C   UNL     1      -9.923  12.131  68.307  1.00  0.00    -0.212 C  
BRANCH  24  25
HETATM   25  C   UNL     1     -10.437  13.540  67.987  1.00  0.00    -0.242 C  
BRANCH  25  26
HETATM   26  N   UNL     1      -9.343  14.540  68.026  1.00  0.00    -0.196 NA 
HETATM   27  C   UNL     1      -9.731  15.695  68.834  1.00  0.00    -0.220 C  
HETATM   28  C   UNL     1      -8.939  14.984  66.688  1.00  0.00    -0.281 C  
ENDBRANCH  25  26
ENDBRANCH  24  25
ENDBRANCH  23  24
ENDBRANCH  19  23
ENDBRANCH   4  17
TORSDOF 7
ENDMDL
MODEL       82
REMARK 921   NORMALIZED FREE ENERGY PREDICTED BY IDOCK:   -4.26 KCAL/MOL
REMARK 922        TOTAL FREE ENERGY PREDICTED BY IDOCK:   -7.99 KCAL/MOL
REMARK 923 INTER-LIGAND FREE ENERGY PREDICTED BY IDOCK:   -5.94 KCAL/MOL
REMARK 924 INTRA-LIGAND FREE ENERGY PREDICTED BY IDOCK:   -2.05 KCAL/MOL
REMARK 927      BINDING AFFINITY PREDICTED BY RF-SCORE:    0.00 PKD
ROOT
HETATM    1  C   UNL     1      -8.432   4.223  68.499  1.00  0.00    -0.103 C  
HETATM    2  C   UNL     1      -9.270   5.089  69.427  1.00  0.00    -0.156 C  
HETATM    3  C   UNL     1      -9.519   6.574  69.161  1.00  0.00    -0.136 C  
HETATM    4  C   UNL     1      -9.097   7.377  68.142  1.00  0.00    -0.131 C  
ENDROOT
BRANCH   3   5
HETATM    5  C   UNL     1     -10.397   7.113  70.247  1.00  0.00    -0.214 A  
HETATM    6  C   UNL     1     -11.764   6.804  70.259  1.00  0.00    -0.397 A  
HETATM    7  C   UNL     1      -9.862   7.872  71.297  1.00  0.00    -0.198 A  
HETATM    8  C   UNL     1     -10.681   8.309  72.344  1.00  0.00    -0.411 A  
HETATM    9  C   UNL     1     -12.579   7.236  71.308  1.00  0.00    -0.402 A  
HETATM   10  C   UNL     1     -12.038   7.985  72.351  1.00  0.00    -0.374 A  
ENDBRANCH   3   5
BRANCH   4  11
HETATM   11  C   UNL     1      -8.211   6.876  67.067  1.00  0.00    -0.120 A  
HETATM   12  C   UNL     1      -6.816   6.965  67.186  1.00  0.00    -0.072 A  
HETATM   13  C   UNL     1      -5.989   6.454  66.183  1.00  0.00    -0.025 A  
HETATM   14  C   UNL     1      -7.935   5.822  64.899  1.00  0.00    -0.123 A  
HETATM   15  C   UNL     1      -8.763   6.330  65.901  1.00  0.00    -0.154 A  
HETATM   16  C   UNL     1      -6.549   5.874  65.045  1.00  0.00    -0.043 A  
ENDBRANCH   4  11
BRANCH   4  17
HETATM   17  C   UNL     1      -9.537   8.800  68.100  1.00  0.00    -0.162 A  
HETATM   18  C   UNL     1      -9.141  11.165  68.499  1.00  0.00    -0.175 A  
HETATM   19  C   UNL     1     -10.352  11.481  67.883  1.00  0.00    -0.183 A  
HETATM   20  C   UNL     1     -11.172  10.442  67.425  1.00  0.00    -0.205 A  
HETATM   21  C   UNL     1     -10.775   9.111  67.538  1.00  0.00    -0.255 A  
HETATM   22  C   UNL     1      -8.732   9.829  68.606  1.00  0.00    -0.122 A  
BRANCH  19  23
HETATM   23  O   UNL     1     -10.642  12.824  67.759  1.00  0.00    -0.215 OA 
BRANCH  23  24
HETATM   24  C   UNL     1     -10.606  13.528  69.004  1.00  0.00    -0.098 C  
BRANCH  24  25
HETATM   25  C   UNL     1     -11.998  13.803  69.583  1.00  0.00    -0.342 C  
BRANCH  25  26
HETATM   26  N   UNL     1     -12.192  15.245  69.869  1.00  0.00    -0.334 NA 
HETATM   27  C   UNL     1     -10.935  15.975  69.714  1.00  0.00    -0.334 C  
HETATM   28  C   UNL     1     -12.741  15.485  71.208  1.00  0.00    -0.462 C  
ENDBRANCH  25  26
ENDBRANCH  24  25
ENDBRANCH  23  24
ENDBRANCH  19  23
ENDBRANCH   4  17
TORSDOF 7
ENDMDL
MODEL       83
REMARK 921   NORMALIZED FREE ENERGY PREDICTED BY IDOCK:   -4.22 KCAL/MOL
REMARK 922        TOTAL FREE ENERGY PREDICTED BY IDOCK:   -7.94 KCAL/MOL
REMARK 923 INTER-LIGAND FREE ENERGY PREDICTED BY IDOCK:   -6.15 KCAL/MOL
REMARK 924 INTRA-LIGAND FREE ENERGY PREDICTED BY IDOCK:   -1.78 KCAL/MOL
REMARK 927      BINDING AFFINITY PREDICTED BY RF-SCORE:    0.00 PKD
ROOT
HETATM    1  C   UNL     1     -10.769  15.241  66.078  1.00  0.00    -0.324 C  
HETATM    2  C   UNL     1     -10.200  13.933  65.551  1.00  0.00    -0.348 C  
HETATM    3  C   UNL     1      -9.980  12.714  66.448  1.00  0.00    -0.262 C  
HETATM    4  C   UNL     1     -10.219  12.536  67.779  1.00  0.00    -0.217 C  
ENDROOT
BRANCH   3   5
HETATM    5  C   UNL     1      -9.437  11.597  65.611  1.00  0.00    -0.228 A  
HETATM    6  C   UNL     1     -10.164  11.132  64.507  1.00  0.00    -0.383 A  
HETATM    7  C   UNL     1      -8.173  11.049  65.873  1.00  0.00    -0.100 A  
HETATM    8  C   UNL     1      -7.647  10.055  65.041  1.00  0.00    -0.139 A  
HETATM    9  C   UNL     1      -9.633  10.145  63.673  1.00  0.00    -0.268 A  
HETATM   10  C   UNL     1      -8.375   9.609  63.938  1.00  0.00    -0.172 A  
ENDBRANCH   3   5
BRANCH   4  11
HETATM   11  C   UNL     1     -10.735  13.628  68.634  1.00  0.00    -0.272 A  
HETATM   12  C   UNL     1     -12.084  13.665  69.015  1.00  0.00    -0.348 A  
HETATM   13  C   UNL     1     -12.553  14.680  69.853  1.00  0.00    -0.223 A  
HETATM   14  C   UNL     1     -10.350  15.673  69.883  1.00  0.00    -0.322 A  
HETATM   15  C   UNL     1      -9.880  14.658  69.048  1.00  0.00    -0.178 A  
HETATM   16  C   UNL     1     -11.683  15.677  70.294  1.00  0.00    -0.375 A  
ENDBRANCH   4  11
BRANCH   4  17
HETATM   17  C   UNL     1      -9.957  11.206  68.399  1.00  0.00    -0.193 A  
HETATM   18  C   UNL     1     -10.595   8.905  68.856  1.00  0.00    -0.188 A  
HETATM   19  C   UNL     1      -9.364   8.677  69.473  1.00  0.00    -0.153 A  
HETATM   20  C   UNL     1      -8.459   9.739  69.593  1.00  0.00    -0.194 A  
HETATM   21  C   UNL     1      -8.752  10.996  69.069  1.00  0.00    -0.072 A  
HETATM   22  C   UNL     1     -10.890  10.165  68.318  1.00  0.00    -0.297 A  
BRANCH  19  23
HETATM   23  O   UNL     1      -9.130   7.390  69.911  1.00  0.00    -0.142 OA 
BRANCH  23  24
HETATM   24  C   UNL     1      -8.416   6.591  68.962  1.00  0.00    -0.125 C  
BRANCH  24  25
HETATM   25  C   UNL     1      -9.228   5.398  68.445  1.00  0.00    -0.111 C  
BRANCH  25  26
HETATM   26  N   UNL     1      -9.804   5.672  67.106  1.00  0.00    -0.137 NA 
HETATM   27  C   UNL     1      -9.958   4.431  66.349  1.00  0.00    -0.232 C  
HETATM   28  C   UNL     1      -9.003   6.628  66.333  1.00  0.00    -0.148 C  
ENDBRANCH  25  26
ENDBRANCH  24  25
ENDBRANCH  23  24
ENDBRANCH  19  23
ENDBRANCH   4  17
TORSDOF 7
ENDMDL
MODEL       84
REMARK 921   NORMALIZED FREE ENERGY PREDICTED BY IDOCK:   -4.21 KCAL/MOL
REMARK 922        TOTAL FREE ENERGY PREDICTED BY IDOCK:   -7.91 KCAL/MOL
REMARK 923 INTER-LIGAND FREE ENERGY PREDICTED BY IDOCK:   -5.89 KCAL/MOL
REMARK 924 INTRA-LIGAND FREE ENERGY PREDICTED BY IDOCK:   -2.03 KCAL/MOL
REMARK 927      BINDING AFFINITY PREDICTED BY RF-SCORE:    0.00 PKD
ROOT
HETATM    1  C   UNL     1     -10.855   6.343  73.250  1.00  0.00    -0.270 C  
HETATM    2  C   UNL     1      -9.671   6.262  72.299  1.00  0.00    -0.165 C  
HETATM    3  C   UNL     1      -9.662   6.963  70.939  1.00  0.00    -0.183 C  
HETATM    4  C   UNL     1     -10.607   7.738  70.333  1.00  0.00    -0.227 C  
ENDROOT
BRANCH   3   5
HETATM    5  C   UNL     1      -8.345   6.701  70.276  1.00  0.00    -0.134 A  
HETATM    6  C   UNL     1      -7.250   7.534  70.542  1.00  0.00    -0.064 A  
HETATM    7  C   UNL     1      -8.168   5.590  69.439  1.00  0.00    -0.098 A  
HETATM    8  C   UNL     1      -6.914   5.316  68.882  1.00  0.00    -0.056 A  
HETATM    9  C   UNL     1      -5.997   7.255  69.990  1.00  0.00    -0.024 A  
HETATM   10  C   UNL     1      -5.829   6.145  69.163  1.00  0.00    -0.020 A  
ENDBRANCH   3   5
BRANCH   4  11
HETATM   11  C   UNL     1     -11.924   7.995  70.957  1.00  0.00    -0.260 A  
HETATM   12  C   UNL     1     -12.947   7.037  70.895  1.00  0.00    -0.115 A  
HETATM   13  C   UNL     1     -14.174   7.276  71.520  1.00  0.00    -0.540 A  
HETATM   14  C   UNL     1     -13.399   9.456  72.214  1.00  0.00    -0.539 A  
HETATM   15  C   UNL     1     -12.172   9.219  71.593  1.00  0.00    -0.445 A  
HETATM   16  C   UNL     1     -14.394   8.480  72.188  1.00  0.00    -0.529 A  
ENDBRANCH   4  11
BRANCH   4  17
HETATM   17  C   UNL     1     -10.312   8.348  69.006  1.00  0.00    -0.231 A  
HETATM   18  C   UNL     1     -10.194   8.221  66.581  1.00  0.00    -0.333 A  
HETATM   19  C   UNL     1      -9.872   9.577  66.516  1.00  0.00    -0.240 A  
HETATM   20  C   UNL     1      -9.721  10.296  67.709  1.00  0.00    -0.178 A  
HETATM   21  C   UNL     1      -9.931   9.688  68.946  1.00  0.00    -0.186 A  
HETATM   22  C   UNL     1     -10.416   7.608  67.821  1.00  0.00    -0.282 A  
BRANCH  19  23
HETATM   23  O   UNL     1      -9.739  10.114  65.253  1.00  0.00    -0.256 OA 
BRANCH  23  24
HETATM   24  C   UNL     1      -8.792   9.415  64.439  1.00  0.00    -0.188 C  
BRANCH  24  25
HETATM   25  C   UNL     1      -7.354   9.916  64.620  1.00  0.00    -0.140 C  
BRANCH  25  26
HETATM   26  N   UNL     1      -6.422   8.798  64.905  1.00  0.00    -0.065 NA 
HETATM   27  C   UNL     1      -5.344   8.763  63.918  1.00  0.00    -0.061 C  
HETATM   28  C   UNL     1      -7.098   7.497  64.946  1.00  0.00    -0.060 C  
ENDBRANCH  25  26
ENDBRANCH  24  25
ENDBRANCH  23  24
ENDBRANCH  19  23
ENDBRANCH   4  17
TORSDOF 7
ENDMDL
MODEL       85
REMARK 921   NORMALIZED FREE ENERGY PREDICTED BY IDOCK:   -4.20 KCAL/MOL
REMARK 922        TOTAL FREE ENERGY PREDICTED BY IDOCK:   -7.91 KCAL/MOL
REMARK 923 INTER-LIGAND FREE ENERGY PREDICTED BY IDOCK:   -5.64 KCAL/MOL
REMARK 924 INTRA-LIGAND FREE ENERGY PREDICTED BY IDOCK:   -2.26 KCAL/MOL
REMARK 927      BINDING AFFINITY PREDICTED BY RF-SCORE:    0.00 PKD
ROOT
HETATM    1  C   UNL     1     -12.214  10.336  71.653  1.00  0.00    -0.384 C  
HETATM    2  C   UNL     1     -11.667  10.848  70.330  1.00  0.00    -0.437 C  
HETATM    3  C   UNL     1     -10.823   9.977  69.398  1.00  0.00    -0.270 C  
HETATM    4  C   UNL     1     -10.413   8.682  69.523  1.00  0.00    -0.222 C  
ENDROOT
BRANCH   3   5
HETATM    5  C   UNL     1     -10.475  10.778  68.182  1.00  0.00    -0.214 A  
HETATM    6  C   UNL     1      -9.211  11.372  68.074  1.00  0.00    -0.171 A  
HETATM    7  C   UNL     1     -11.373  10.889  67.110  1.00  0.00    -0.168 A  
HETATM    8  C   UNL     1     -11.008  11.580  65.950  1.00  0.00    -0.301 A  
HETATM    9  C   UNL     1      -8.846  12.057  66.912  1.00  0.00    -0.197 A  
HETATM   10  C   UNL     1      -9.743  12.158  65.850  1.00  0.00    -0.253 A  
ENDBRANCH   3   5
BRANCH   4  11
HETATM   11  C   UNL     1     -10.725   7.875  70.724  1.00  0.00    -0.230 A  
HETATM   12  C   UNL     1      -9.936   7.972  71.879  1.00  0.00    -0.255 A  
HETATM   13  C   UNL     1     -10.262   7.234  73.019  1.00  0.00    -0.313 A  
HETATM   14  C   UNL     1     -12.126   6.242  71.845  1.00  0.00    -0.311 A  
HETATM   15  C   UNL     1     -11.803   6.980  70.706  1.00  0.00    -0.401 A  
HETATM   16  C   UNL     1     -11.363   6.378  73.005  1.00  0.00    -0.100 A  
ENDBRANCH   4  11
BRANCH   4  17
HETATM   17  C   UNL     1      -9.630   8.053  68.422  1.00  0.00    -0.157 A  
HETATM   18  C   UNL     1      -9.502   6.940  66.265  1.00  0.00    -0.122 A  
HETATM   19  C   UNL     1      -8.107   6.992  66.310  1.00  0.00    -0.115 A  
HETATM   20  C   UNL     1      -7.486   7.531  67.444  1.00  0.00    -0.104 A  
HETATM   21  C   UNL     1      -8.237   8.050  68.497  1.00  0.00    -0.126 A  
HETATM   22  C   UNL     1     -10.261   7.470  67.316  1.00  0.00    -0.337 A  
BRANCH  19  23
HETATM   23  O   UNL     1      -7.441   6.511  65.203  1.00  0.00    -0.074 OA 
BRANCH  23  24
HETATM   24  C   UNL     1      -6.300   7.296  64.844  1.00  0.00    -0.037 C  
BRANCH  24  25
HETATM   25  C   UNL     1      -6.549   8.206  63.635  1.00  0.00    -0.072 C  
BRANCH  25  26
HETATM   26  N   UNL     1      -7.105   9.518  64.048  1.00  0.00    -0.104 NA 
HETATM   27  C   UNL     1      -8.043  10.017  63.044  1.00  0.00    -0.150 C  
HETATM   28  C   UNL     1      -6.061  10.520  64.292  1.00  0.00    -0.018 C  
ENDBRANCH  25  26
ENDBRANCH  24  25
ENDBRANCH  23  24
ENDBRANCH  19  23
ENDBRANCH   4  17
TORSDOF 7
ENDMDL
MODEL       86
REMARK 921   NORMALIZED FREE ENERGY PREDICTED BY IDOCK:   -4.19 KCAL/MOL
REMARK 922        TOTAL FREE ENERGY PREDICTED BY IDOCK:   -7.90 KCAL/MOL
REMARK 923 INTER-LIGAND FREE ENERGY PREDICTED BY IDOCK:   -5.74 KCAL/MOL
REMARK 924 INTRA-LIGAND FREE ENERGY PREDICTED BY IDOCK:   -2.15 KCAL/MOL
REMARK 927      BINDING AFFINITY PREDICTED BY RF-SCORE:    0.00 PKD
ROOT
HETATM    1  C   UNL     1      -7.729   9.847  63.249  1.00  0.00    -0.143 C  
HETATM    2  C   UNL     1      -7.527   8.384  63.610  1.00  0.00    -0.117 C  
HETATM    3  C   UNL     1      -8.081   7.774  64.899  1.00  0.00    -0.136 C  
HETATM    4  C   UNL     1      -8.806   8.336  65.908  1.00  0.00    -0.197 C  
ENDROOT
BRANCH   3   5
HETATM    5  C   UNL     1      -7.725   6.319  64.929  1.00  0.00    -0.099 A  
HETATM    6  C   UNL     1      -8.624   5.369  64.427  1.00  0.00    -0.060 A  
HETATM    7  C   UNL     1      -6.472   5.893  65.392  1.00  0.00    -0.042 A  
HETATM    8  C   UNL     1      -6.126   4.538  65.349  1.00  0.00    -0.023 A  
HETATM    9  C   UNL     1      -8.273   4.017  64.378  1.00  0.00    -0.094 A  
HETATM   10  C   UNL     1      -7.024   3.603  64.836  1.00  0.00    -0.057 A  
ENDBRANCH   3   5
BRANCH   4  11
HETATM   11  C   UNL     1      -9.152   9.775  65.914  1.00  0.00    -0.209 A  
HETATM   12  C   UNL     1      -8.389  10.694  66.648  1.00  0.00    -0.136 A  
HETATM   13  C   UNL     1      -8.703  12.055  66.616  1.00  0.00    -0.171 A  
HETATM   14  C   UNL     1     -10.584  11.589  65.175  1.00  0.00    -0.350 A  
HETATM   15  C   UNL     1     -10.272  10.229  65.204  1.00  0.00    -0.295 A  
HETATM   16  C   UNL     1      -9.794  12.502  65.871  1.00  0.00    -0.257 A  
ENDBRANCH   4  11
BRANCH   4  17
HETATM   17  C   UNL     1      -9.268   7.485  67.040  1.00  0.00    -0.167 A  
HETATM   18  C   UNL     1      -8.940   6.504  69.240  1.00  0.00    -0.131 A  
HETATM   19  C   UNL     1     -10.233   5.977  69.208  1.00  0.00    -0.207 A  
HETATM   20  C   UNL     1     -11.014   6.168  68.061  1.00  0.00    -0.399 A  
HETATM   21  C   UNL     1     -10.536   6.908  66.981  1.00  0.00    -0.403 A  
HETATM   22  C   UNL     1      -8.460   7.257  68.162  1.00  0.00    -0.123 A  
BRANCH  19  23
HETATM   23  O   UNL     1     -10.649   5.309  70.341  1.00  0.00    -0.268 OA 
BRANCH  23  24
HETATM   24  C   UNL     1     -10.633   6.125  71.516  1.00  0.00    -0.239 C  
BRANCH  24  25
HETATM   25  C   UNL     1     -11.990   6.770  71.822  1.00  0.00    -0.339 C  
BRANCH  25  26
HETATM   26  N   UNL     1     -11.832   8.144  72.355  1.00  0.00    -0.375 NA 
HETATM   27  C   UNL     1     -12.781   9.056  71.718  1.00  0.00    -0.366 C  
HETATM   28  C   UNL     1     -10.467   8.657  72.193  1.00  0.00    -0.340 C  
ENDBRANCH  25  26
ENDBRANCH  24  25
ENDBRANCH  23  24
ENDBRANCH  19  23
ENDBRANCH   4  17
TORSDOF 7
ENDMDL
MODEL       87
REMARK 921   NORMALIZED FREE ENERGY PREDICTED BY IDOCK:   -4.17 KCAL/MOL
REMARK 922        TOTAL FREE ENERGY PREDICTED BY IDOCK:   -7.87 KCAL/MOL
REMARK 923 INTER-LIGAND FREE ENERGY PREDICTED BY IDOCK:   -5.79 KCAL/MOL
REMARK 924 INTRA-LIGAND FREE ENERGY PREDICTED BY IDOCK:   -2.07 KCAL/MOL
REMARK 927      BINDING AFFINITY PREDICTED BY RF-SCORE:    0.00 PKD
ROOT
HETATM    1  C   UNL     1      -9.335   3.015  68.824  1.00  0.00    -0.235 C  
HETATM    2  C   UNL     1      -9.571   4.082  69.882  1.00  0.00    -0.281 C  
HETATM    3  C   UNL     1      -9.458   5.577  69.578  1.00  0.00    -0.185 C  
HETATM    4  C   UNL     1      -9.155   6.227  68.417  1.00  0.00    -0.114 C  
ENDROOT
BRANCH   3   5
HETATM    5  C   UNL     1      -9.776   6.343  70.825  1.00  0.00    -0.197 A  
HETATM    6  C   UNL     1     -11.099   6.714  71.099  1.00  0.00    -0.326 A  
HETATM    7  C   UNL     1      -8.777   6.640  71.763  1.00  0.00    -0.129 A  
HETATM    8  C   UNL     1      -9.099   7.294  72.957  1.00  0.00    -0.180 A  
HETATM    9  C   UNL     1     -11.420   7.361  72.296  1.00  0.00    -0.329 A  
HETATM   10  C   UNL     1     -10.421   7.648  73.225  1.00  0.00    -0.414 A  
ENDBRANCH   3   5
BRANCH   4  11
HETATM   11  C   UNL     1      -8.816   5.495  67.177  1.00  0.00    -0.106 A  
HETATM   12  C   UNL     1      -9.816   5.127  66.264  1.00  0.00    -0.209 A  
HETATM   13  C   UNL     1      -9.480   4.470  65.078  1.00  0.00    -0.156 A  
HETATM   14  C   UNL     1      -7.154   4.476  65.731  1.00  0.00    -0.067 A  
HETATM   15  C   UNL     1      -7.487   5.134  66.916  1.00  0.00    -0.087 A  
HETATM   16  C   UNL     1      -8.148   4.154  64.808  1.00  0.00    -0.094 A  
ENDBRANCH   4  11
BRANCH   4  17
HETATM   17  C   UNL     1      -9.165   7.717  68.388  1.00  0.00    -0.140 A  
HETATM   18  C   UNL     1      -8.037   9.859  68.604  1.00  0.00    -0.099 A  
HETATM   19  C   UNL     1      -9.196  10.521  68.195  1.00  0.00    -0.148 A  
HETATM   20  C   UNL     1     -10.350   9.770  67.936  1.00  0.00    -0.258 A  
HETATM   21  C   UNL     1     -10.341   8.381  68.039  1.00  0.00    -0.270 A  
HETATM   22  C   UNL     1      -8.020   8.462  68.698  1.00  0.00    -0.121 A  
BRANCH  19  23
HETATM   23  O   UNL     1      -9.103  11.890  68.062  1.00  0.00    -0.175 OA 
BRANCH  23  24
HETATM   24  C   UNL     1     -10.372  12.527  67.875  1.00  0.00    -0.216 C  
BRANCH  24  25
HETATM   25  C   UNL     1     -10.322  13.691  66.879  1.00  0.00    -0.262 C  
BRANCH  25  26
HETATM   26  N   UNL     1     -11.247  13.473  65.741  1.00  0.00    -0.297 NA 
HETATM   27  C   UNL     1     -10.996  12.175  65.115  1.00  0.00    -0.310 C  
HETATM   28  C   UNL     1     -11.160  14.535  64.732  1.00  0.00    -0.391 C  
ENDBRANCH  25  26
ENDBRANCH  24  25
ENDBRANCH  23  24
ENDBRANCH  19  23
ENDBRANCH   4  17
TORSDOF 7
ENDMDL
MODEL       88
REMARK 921   NORMALIZED FREE ENERGY PREDICTED BY IDOCK:   -4.16 KCAL/MOL
REMARK 922        TOTAL FREE ENERGY PREDICTED BY IDOCK:   -7.85 KCAL/MOL
REMARK 923 INTER-LIGAND FREE ENERGY PREDICTED BY IDOCK:   -6.01 KCAL/MOL
REMARK 924 INTRA-LIGAND FREE ENERGY PREDICTED BY IDOCK:   -1.84 KCAL/MOL
REMARK 927      BINDING AFFINITY PREDICTED BY RF-SCORE:    0.00 PKD
ROOT
HETATM    1  C   UNL     1      -9.117   8.697  65.830  1.00  0.00    -0.259 C  
HETATM    2  C   UNL     1      -9.907   9.966  65.551  1.00  0.00    -0.381 C  
HETATM    3  C   UNL     1      -9.596  11.294  66.243  1.00  0.00    -0.235 C  
HETATM    4  C   UNL     1      -8.643  11.614  67.165  1.00  0.00    -0.164 C  
ENDROOT
BRANCH   3   5
HETATM    5  C   UNL     1     -10.539  12.335  65.723  1.00  0.00    -0.289 A  
HETATM    6  C   UNL     1     -10.164  13.140  64.639  1.00  0.00    -0.327 A  
HETATM    7  C   UNL     1     -11.826  12.475  66.262  1.00  0.00    -0.453 A  
HETATM    8  C   UNL     1     -12.722  13.403  65.722  1.00  0.00    -0.383 A  
HETATM    9  C   UNL     1     -11.063  14.061  64.095  1.00  0.00    -0.062 A  
HETATM   10  C   UNL     1     -12.342  14.190  64.634  1.00  0.00    -0.432 A  
ENDBRANCH   3   5
BRANCH   4  11
HETATM   11  C   UNL     1      -7.712  10.601  67.711  1.00  0.00    -0.100 A  
HETATM   12  C   UNL     1      -8.016   9.910  68.893  1.00  0.00    -0.096 A  
HETATM   13  C   UNL     1      -7.148   8.929  69.379  1.00  0.00    -0.057 A  
HETATM   14  C   UNL     1      -5.631   9.364  67.550  1.00  0.00    -0.037 A  
HETATM   15  C   UNL     1      -6.497  10.343  67.062  1.00  0.00    -0.074 A  
HETATM   16  C   UNL     1      -5.962   8.649  68.701  1.00  0.00    -0.045 A  
ENDBRANCH   4  11
BRANCH   4  17
HETATM   17  C   UNL     1      -8.527  13.021  67.641  1.00  0.00    -0.187 A  
HETATM   18  C   UNL     1      -9.307  14.884  68.994  1.00  0.00    -0.179 A  
HETATM   19  C   UNL     1      -8.196  15.638  68.612  1.00  0.00    -0.168 A  
HETATM   20  C   UNL     1      -7.285  15.090  67.701  1.00  0.00    -0.208 A  
HETATM   21  C   UNL     1      -7.449  13.796  67.211  1.00  0.00    -0.048 A  
HETATM   22  C   UNL     1      -9.471  13.579  68.512  1.00  0.00    -0.131 A  
BRANCH  19  23
HETATM   23  O   UNL     1      -8.078  16.886  69.188  1.00  0.00    -0.202 OA 
BRANCH  23  24
HETATM   24  C   UNL     1      -7.544  17.871  68.298  1.00  0.00    -0.266 C  
BRANCH  24  25
HETATM   25  C   UNL     1      -7.942  19.303  68.673  1.00  0.00    -0.370 C  
BRANCH  25  26
HETATM   26  N   UNL     1      -7.248  20.301  67.824  1.00  0.00    -0.295 NA 
HETATM   27  C   UNL     1      -7.060  19.782  66.469  1.00  0.00    -0.233 C  
HETATM   28  C   UNL     1      -5.954  20.711  68.380  1.00  0.00    -0.333 C  
ENDBRANCH  25  26
ENDBRANCH  24  25
ENDBRANCH  23  24
ENDBRANCH  19  23
ENDBRANCH   4  17
TORSDOF 7
ENDMDL
MODEL       89
REMARK 921   NORMALIZED FREE ENERGY PREDICTED BY IDOCK:   -4.16 KCAL/MOL
REMARK 922        TOTAL FREE ENERGY PREDICTED BY IDOCK:   -7.85 KCAL/MOL
REMARK 923 INTER-LIGAND FREE ENERGY PREDICTED BY IDOCK:   -5.59 KCAL/MOL
REMARK 924 INTRA-LIGAND FREE ENERGY PREDICTED BY IDOCK:   -2.26 KCAL/MOL
REMARK 927      BINDING AFFINITY PREDICTED BY RF-SCORE:    0.00 PKD
ROOT
HETATM    1  C   UNL     1      -8.450   9.694  64.888  1.00  0.00    -0.161 C  
HETATM    2  C   UNL     1      -8.531   8.396  65.677  1.00  0.00    -0.179 C  
HETATM    3  C   UNL     1      -8.970   8.352  67.141  1.00  0.00    -0.153 C  
HETATM    4  C   UNL     1      -9.351   9.354  67.984  1.00  0.00    -0.140 C  
ENDROOT
BRANCH   3   5
HETATM    5  C   UNL     1      -8.962   6.927  67.599  1.00  0.00    -0.116 A  
HETATM    6  C   UNL     1     -10.062   6.100  67.331  1.00  0.00    -0.190 A  
HETATM    7  C   UNL     1      -7.840   6.381  68.238  1.00  0.00    -0.105 A  
HETATM    8  C   UNL     1      -7.818   5.029  68.598  1.00  0.00    -0.078 A  
HETATM    9  C   UNL     1     -10.035   4.748  67.685  1.00  0.00    -0.178 A  
HETATM   10  C   UNL     1      -8.913   4.213  68.315  1.00  0.00    -0.154 A  
ENDBRANCH   3   5
BRANCH   4  11
HETATM   11  C   UNL     1      -9.348  10.774  67.564  1.00  0.00    -0.158 A  
HETATM   12  C   UNL     1     -10.449  11.327  66.895  1.00  0.00    -0.286 A  
HETATM   13  C   UNL     1     -10.450  12.677  66.536  1.00  0.00    -0.264 A  
HETATM   14  C   UNL     1      -8.226  12.922  67.447  1.00  0.00    -0.187 A  
HETATM   15  C   UNL     1      -8.224  11.574  67.808  1.00  0.00    -0.135 A  
HETATM   16  C   UNL     1      -9.343  13.476  66.823  1.00  0.00    -0.262 A  
ENDBRANCH   4  11
BRANCH   4  17
HETATM   17  C   UNL     1      -9.788   9.020  69.369  1.00  0.00    -0.183 A  
HETATM   18  C   UNL     1     -11.493   8.328  70.957  1.00  0.00    -0.303 A  
HETATM   19  C   UNL     1     -10.538   8.272  71.973  1.00  0.00    -0.296 A  
HETATM   20  C   UNL     1      -9.219   8.644  71.684  1.00  0.00    -0.326 A  
HETATM   21  C   UNL     1      -8.844   9.024  70.397  1.00  0.00    -0.228 A  
HETATM   22  C   UNL     1     -11.120   8.698  69.659  1.00  0.00    -0.023 A  
BRANCH  19  23
HETATM   23  O   UNL     1     -10.978   7.830  73.203  1.00  0.00    -0.396 OA 
BRANCH  23  24
HETATM   24  C   UNL     1      -9.991   7.084  73.923  1.00  0.00    -0.332 C  
BRANCH  24  25
HETATM   25  C   UNL     1     -10.440   5.658  74.261  1.00  0.00    -0.232 C  
BRANCH  25  26
HETATM   26  N   UNL     1     -10.454   4.793  73.056  1.00  0.00    -0.189 NA 
HETATM   27  C   UNL     1     -10.728   3.404  73.423  1.00  0.00    -0.207 C  
HETATM   28  C   UNL     1      -9.201   4.866  72.296  1.00  0.00    -0.130 C  
ENDBRANCH  25  26
ENDBRANCH  24  25
ENDBRANCH  23  24
ENDBRANCH  19  23
ENDBRANCH   4  17
TORSDOF 7
ENDMDL
MODEL       90
REMARK 921   NORMALIZED FREE ENERGY PREDICTED BY IDOCK:   -4.16 KCAL/MOL
REMARK 922        TOTAL FREE ENERGY PREDICTED BY IDOCK:   -7.84 KCAL/MOL
REMARK 923 INTER-LIGAND FREE ENERGY PREDICTED BY IDOCK:   -5.95 KCAL/MOL
REMARK 924 INTRA-LIGAND FREE ENERGY PREDICTED BY IDOCK:   -1.90 KCAL/MOL
REMARK 927      BINDING AFFINITY PREDICTED BY RF-SCORE:    0.00 PKD
ROOT
HETATM    1  C   UNL     1     -11.966   9.648  71.221  1.00  0.00    -0.462 C  
HETATM    2  C   UNL     1     -11.617  10.780  70.268  1.00  0.00    -0.427 C  
HETATM    3  C   UNL     1     -10.728  10.574  69.041  1.00  0.00    -0.259 C  
HETATM    4  C   UNL     1     -10.113   9.453  68.567  1.00  0.00    -0.208 C  
ENDROOT
BRANCH   3   5
HETATM    5  C   UNL     1     -10.609  11.878  68.313  1.00  0.00    -0.236 A  
HETATM    6  C   UNL     1     -11.743  12.457  67.726  1.00  0.00    -0.413 A  
HETATM    7  C   UNL     1      -9.390  12.569  68.266  1.00  0.00    -0.193 A  
HETATM    8  C   UNL     1      -9.309  13.819  67.644  1.00  0.00    -0.213 A  
HETATM    9  C   UNL     1     -11.661  13.709  67.112  1.00  0.00    -0.392 A  
HETATM   10  C   UNL     1     -10.446  14.391  67.074  1.00  0.00    -0.268 A  
ENDBRANCH   3   5
BRANCH   4  11
HETATM   11  C   UNL     1     -10.196   8.157  69.277  1.00  0.00    -0.216 A  
HETATM   12  C   UNL     1     -11.046   7.139  68.818  1.00  0.00    -0.019 A  
HETATM   13  C   UNL     1     -11.088   5.907  69.475  1.00  0.00    -0.403 A  
HETATM   14  C   UNL     1      -9.488   6.713  71.095  1.00  0.00    -0.167 A  
HETATM   15  C   UNL     1      -9.443   7.944  70.440  1.00  0.00    -0.163 A  
HETATM   16  C   UNL     1     -10.301   5.691  70.606  1.00  0.00    -0.320 A  
ENDBRANCH   4  11
BRANCH   4  17
HETATM   17  C   UNL     1      -9.335   9.524  67.298  1.00  0.00    -0.161 A  
HETATM   18  C   UNL     1      -7.233   9.433  66.080  1.00  0.00    -0.092 A  
HETATM   19  C   UNL     1      -7.920   9.534  64.869  1.00  0.00    -0.121 A  
HETATM   20  C   UNL     1      -9.313   9.684  64.890  1.00  0.00    -0.306 A  
HETATM   21  C   UNL     1     -10.017   9.687  66.092  1.00  0.00    -0.346 A  
HETATM   22  C   UNL     1      -7.938   9.425  67.291  1.00  0.00    -0.106 A  
BRANCH  19  23
HETATM   23  O   UNL     1      -7.154   9.464  63.724  1.00  0.00    -0.094 OA 
BRANCH  23  24
HETATM   24  C   UNL     1      -6.469   8.216  63.579  1.00  0.00    -0.072 C  
BRANCH  24  25
HETATM   25  C   UNL     1      -7.368   7.090  63.056  1.00  0.00    -0.083 C  
BRANCH  25  26
HETATM   26  N   UNL     1      -7.225   5.858  63.868  1.00  0.00    -0.053 NA 
HETATM   27  C   UNL     1      -8.039   5.943  65.080  1.00  0.00    -0.132 C  
HETATM   28  C   UNL     1      -5.830   5.578  64.227  1.00  0.00    -0.021 C  
ENDBRANCH  25  26
ENDBRANCH  24  25
ENDBRANCH  23  24
ENDBRANCH  19  23
ENDBRANCH   4  17
TORSDOF 7
ENDMDL
MODEL       91
REMARK 921   NORMALIZED FREE ENERGY PREDICTED BY IDOCK:   -4.16 KCAL/MOL
REMARK 922        TOTAL FREE ENERGY PREDICTED BY IDOCK:   -7.84 KCAL/MOL
REMARK 923 INTER-LIGAND FREE ENERGY PREDICTED BY IDOCK:   -8.00 KCAL/MOL
REMARK 924 INTRA-LIGAND FREE ENERGY PREDICTED BY IDOCK:    0.16 KCAL/MOL
REMARK 927      BINDING AFFINITY PREDICTED BY RF-SCORE:    0.00 PKD
ROOT
HETATM    1  C   UNL     1     -11.463   7.747  71.941  1.00  0.00    -0.320 C  
HETATM    2  C   UNL     1     -11.850   9.216  71.872  1.00  0.00    -0.439 C  
HETATM    3  C   UNL     1     -11.498  10.101  70.676  1.00  0.00    -0.432 C  
HETATM    4  C   UNL     1     -10.832   9.811  69.521  1.00  0.00    -0.264 C  
ENDROOT
BRANCH   3   5
HETATM    5  C   UNL     1     -12.046  11.473  70.920  1.00  0.00    -0.352 A  
HETATM    6  C   UNL     1     -11.551  12.564  70.192  1.00  0.00    -0.150 A  
HETATM    7  C   UNL     1     -13.100  11.679  71.822  1.00  0.00    -0.487 A  
HETATM    8  C   UNL     1     -13.650  12.954  71.989  1.00  0.00    -0.499 A  
HETATM    9  C   UNL     1     -12.106  13.836  70.356  1.00  0.00    -0.421 A  
HETATM   10  C   UNL     1     -13.157  14.030  71.251  1.00  0.00    -0.399 A  
ENDBRANCH   3   5
BRANCH   4  11
HETATM   11  C   UNL     1     -10.262   8.469  69.263  1.00  0.00    -0.211 A  
HETATM   12  C   UNL     1     -11.000   7.496  68.574  1.00  0.00     0.062 A  
HETATM   13  C   UNL     1     -10.437   6.246  68.304  1.00  0.00    -0.277 A  
HETATM   14  C   UNL     1      -8.423   6.900  69.466  1.00  0.00    -0.133 A  
HETATM   15  C   UNL     1      -8.982   8.149  69.735  1.00  0.00    -0.144 A  
HETATM   16  C   UNL     1      -9.145   5.953  68.740  1.00  0.00    -0.116 A  
ENDBRANCH   4  11
BRANCH   4  17
HETATM   17  C   UNL     1     -10.671  10.867  68.483  1.00  0.00    -0.239 A  
HETATM   18  C   UNL     1     -11.557  12.232  66.676  1.00  0.00    -0.438 A  
HETATM   19  C   UNL     1     -10.365  12.955  66.625  1.00  0.00    -0.251 A  
HETATM   20  C   UNL     1      -9.313  12.589  67.475  1.00  0.00    -0.187 A  
HETATM   21  C   UNL     1      -9.458  11.549  68.391  1.00  0.00    -0.195 A  
HETATM   22  C   UNL     1     -11.712  11.192  67.603  1.00  0.00    -0.168 A  
BRANCH  19  23
HETATM   23  O   UNL     1     -10.324  14.005  65.732  1.00  0.00    -0.296 OA 
BRANCH  23  24
HETATM   24  C   UNL     1     -11.247  15.053  66.049  1.00  0.00    -0.310 C  
BRANCH  24  25
HETATM   25  C   UNL     1     -10.747  16.442  65.637  1.00  0.00    -0.270 C  
BRANCH  25  26
HETATM   26  N   UNL     1     -10.162  17.173  66.787  1.00  0.00    -0.304 NA 
HETATM   27  C   UNL     1     -10.707  16.670  68.047  1.00  0.00    -0.350 C  
HETATM   28  C   UNL     1     -10.373  18.622  66.699  1.00  0.00    -0.415 C  
ENDBRANCH  25  26
ENDBRANCH  24  25
ENDBRANCH  23  24
ENDBRANCH  19  23
ENDBRANCH   4  17
TORSDOF 7
ENDMDL
MODEL       92
REMARK 921   NORMALIZED FREE ENERGY PREDICTED BY IDOCK:   -4.14 KCAL/MOL
REMARK 922        TOTAL FREE ENERGY PREDICTED BY IDOCK:   -7.82 KCAL/MOL
REMARK 923 INTER-LIGAND FREE ENERGY PREDICTED BY IDOCK:   -5.89 KCAL/MOL
REMARK 924 INTRA-LIGAND FREE ENERGY PREDICTED BY IDOCK:   -1.93 KCAL/MOL
REMARK 927      BINDING AFFINITY PREDICTED BY RF-SCORE:    0.00 PKD
ROOT
HETATM    1  C   UNL     1     -11.494   5.277  73.254  1.00  0.00    -0.250 C  
HETATM    2  C   UNL     1     -10.491   4.713  72.259  1.00  0.00    -0.238 C  
HETATM    3  C   UNL     1     -10.185   5.397  70.926  1.00  0.00    -0.303 C  
HETATM    4  C   UNL     1     -10.682   6.545  70.381  1.00  0.00    -0.306 C  
ENDROOT
BRANCH   3   5
HETATM    5  C   UNL     1      -9.142   4.597  70.208  1.00  0.00    -0.164 A  
HETATM    6  C   UNL     1      -9.525   3.533  69.380  1.00  0.00    -0.234 A  
HETATM    7  C   UNL     1      -7.785   4.936  70.296  1.00  0.00    -0.062 A  
HETATM    8  C   UNL     1      -6.828   4.225  69.565  1.00  0.00    -0.045 A  
HETATM    9  C   UNL     1      -8.569   2.828  68.644  1.00  0.00    -0.110 A  
HETATM   10  C   UNL     1      -7.222   3.175  68.734  1.00  0.00    -0.049 A  
ENDBRANCH   3   5
BRANCH   4  11
HETATM   11  C   UNL     1     -11.727   7.343  71.060  1.00  0.00    -0.326 A  
HETATM   12  C   UNL     1     -13.076   6.963  70.994  1.00  0.00    -0.110 A  
HETATM   13  C   UNL     1     -14.050   7.703  71.670  1.00  0.00    -0.547 A  
HETATM   14  C   UNL     1     -12.354   9.248  72.426  1.00  0.00    -0.260 A  
HETATM   15  C   UNL     1     -11.379   8.509  71.754  1.00  0.00    -0.377 A  
HETATM   16  C   UNL     1     -13.686   8.838  72.394  1.00  0.00    -0.471 A  
ENDBRANCH   4  11
BRANCH   4  17
HETATM   17  C   UNL     1     -10.161   7.017  69.068  1.00  0.00    -0.191 A  
HETATM   18  C   UNL     1      -8.499   8.179  67.728  1.00  0.00    -0.132 A  
HETATM   19  C   UNL     1      -9.146   7.778  66.559  1.00  0.00    -0.170 A  
HETATM   20  C   UNL     1     -10.332   7.039  66.660  1.00  0.00    -0.215 A  
HETATM   21  C   UNL     1     -10.843   6.667  67.902  1.00  0.00    -0.353 A  
HETATM   22  C   UNL     1      -9.002   7.799  68.978  1.00  0.00    -0.145 A  
BRANCH  19  23
HETATM   23  O   UNL     1      -8.544   8.137  65.372  1.00  0.00    -0.160 OA 
BRANCH  23  24
HETATM   24  C   UNL     1      -7.926   9.428  65.419  1.00  0.00    -0.105 C  
BRANCH  24  25
HETATM   25  C   UNL     1      -8.841  10.553  64.922  1.00  0.00    -0.192 C  
BRANCH  25  26
HETATM   26  N   UNL     1      -8.594  10.862  63.492  1.00  0.00    -0.056 NA 
HETATM   27  C   UNL     1      -9.767  10.531  62.685  1.00  0.00    -0.174 C  
HETATM   28  C   UNL     1      -7.416  10.168  62.961  1.00  0.00    -0.144 C  
ENDBRANCH  25  26
ENDBRANCH  24  25
ENDBRANCH  23  24
ENDBRANCH  19  23
ENDBRANCH   4  17
TORSDOF 7
ENDMDL
MODEL       93
REMARK 921   NORMALIZED FREE ENERGY PREDICTED BY IDOCK:   -4.09 KCAL/MOL
REMARK 922        TOTAL FREE ENERGY PREDICTED BY IDOCK:   -7.75 KCAL/MOL
REMARK 923 INTER-LIGAND FREE ENERGY PREDICTED BY IDOCK:   -5.63 KCAL/MOL
REMARK 924 INTRA-LIGAND FREE ENERGY PREDICTED BY IDOCK:   -2.13 KCAL/MOL
REMARK 927      BINDING AFFINITY PREDICTED BY RF-SCORE:    0.00 PKD
ROOT
HETATM    1  C   UNL     1      -8.293  14.475  67.168  1.00  0.00    -0.226 C  
HETATM    2  C   UNL     1      -7.642  13.263  67.817  1.00  0.00    -0.161 C  
HETATM    3  C   UNL     1      -8.304  11.885  67.831  1.00  0.00    -0.152 C  
HETATM    4  C   UNL     1      -9.498  11.468  67.321  1.00  0.00    -0.176 C  
ENDROOT
BRANCH   3   5
HETATM    5  C   UNL     1      -7.388  10.922  68.522  1.00  0.00    -0.098 A  
HETATM    6  C   UNL     1      -7.501  10.719  69.904  1.00  0.00     0.060 A  
HETATM    7  C   UNL     1      -6.457  10.166  67.797  1.00  0.00    -0.062 A  
HETATM    8  C   UNL     1      -5.656   9.219  68.444  1.00  0.00    -0.037 A  
HETATM    9  C   UNL     1      -6.705   9.768  70.548  1.00  0.00    -0.125 A  
HETATM   10  C   UNL     1      -5.785   9.017  69.818  1.00  0.00    -0.032 A  
ENDBRANCH   3   5
BRANCH   4  11
HETATM   11  C   UNL     1     -10.432  12.402  66.652  1.00  0.00    -0.251 A  
HETATM   12  C   UNL     1     -10.371  12.608  65.267  1.00  0.00    -0.309 A  
HETATM   13  C   UNL     1     -11.282  13.463  64.641  1.00  0.00    -0.377 A  
HETATM   14  C   UNL     1     -12.279  13.970  66.782  1.00  0.00    -0.439 A  
HETATM   15  C   UNL     1     -11.372  13.115  67.409  1.00  0.00    -0.344 A  
HETATM   16  C   UNL     1     -12.242  14.135  65.399  1.00  0.00    -0.441 A  
ENDBRANCH   4  11
BRANCH   4  17
HETATM   17  C   UNL     1      -9.881  10.032  67.432  1.00  0.00    -0.226 A  
HETATM   18  C   UNL     1     -10.006   7.783  66.517  1.00  0.00    -0.244 A  
HETATM   19  C   UNL     1     -10.500   7.306  67.733  1.00  0.00    -0.228 A  
HETATM   20  C   UNL     1     -10.730   8.214  68.774  1.00  0.00    -0.074 A  
HETATM   21  C   UNL     1     -10.432   9.567  68.627  1.00  0.00    -0.237 A  
HETATM   22  C   UNL     1      -9.696   9.141  66.367  1.00  0.00    -0.330 A  
BRANCH  19  23
HETATM   23  O   UNL     1     -10.712   5.946  67.815  1.00  0.00    -0.255 OA 
BRANCH  23  24
HETATM   24  C   UNL     1     -10.535   5.270  66.565  1.00  0.00    -0.298 C  
BRANCH  24  25
HETATM   25  C   UNL     1      -9.568   4.084  66.653  1.00  0.00    -0.209 C  
BRANCH  25  26
HETATM   26  N   UNL     1      -8.615   4.075  65.516  1.00  0.00    -0.112 NA 
HETATM   27  C   UNL     1      -7.633   5.150  65.659  1.00  0.00    -0.086 C  
HETATM   28  C   UNL     1      -9.287   4.188  64.217  1.00  0.00    -0.159 C  
ENDBRANCH  25  26
ENDBRANCH  24  25
ENDBRANCH  23  24
ENDBRANCH  19  23
ENDBRANCH   4  17
TORSDOF 7
ENDMDL
MODEL       94
REMARK 921   NORMALIZED FREE ENERGY PREDICTED BY IDOCK:   -4.06 KCAL/MOL
REMARK 922        TOTAL FREE ENERGY PREDICTED BY IDOCK:   -7.71 KCAL/MOL
REMARK 923 INTER-LIGAND FREE ENERGY PREDICTED BY IDOCK:   -5.34 KCAL/MOL
REMARK 924 INTRA-LIGAND FREE ENERGY PREDICTED BY IDOCK:   -2.37 KCAL/MOL
REMARK 927      BINDING AFFINITY PREDICTED BY RF-SCORE:    0.00 PKD
ROOT
HETATM    1  C   UNL     1     -10.524   7.062  73.839  1.00  0.00    -0.332 C  
HETATM    2  C   UNL     1      -9.438   6.318  73.078  1.00  0.00    -0.145 C  
HETATM    3  C   UNL     1      -9.406   6.251  71.551  1.00  0.00    -0.155 C  
HETATM    4  C   UNL     1     -10.249   6.784  70.620  1.00  0.00    -0.216 C  
ENDROOT
BRANCH   3   5
HETATM    5  C   UNL     1      -8.199   5.469  71.133  1.00  0.00    -0.120 A  
HETATM    6  C   UNL     1      -6.936   6.075  71.140  1.00  0.00    -0.068 A  
HETATM    7  C   UNL     1      -8.301   4.111  70.796  1.00  0.00    -0.086 A  
HETATM    8  C   UNL     1      -7.156   3.374  70.475  1.00  0.00    -0.034 A  
HETATM    9  C   UNL     1      -5.793   5.335  70.826  1.00  0.00    -0.021 A  
HETATM   10  C   UNL     1      -5.902   3.985  70.497  1.00  0.00    -0.014 A  
ENDBRANCH   3   5
BRANCH   4  11
HETATM   11  C   UNL     1     -11.460   7.542  71.006  1.00  0.00    -0.299 A  
HETATM   12  C   UNL     1     -11.422   8.938  71.135  1.00  0.00    -0.364 A  
HETATM   13  C   UNL     1     -12.580   9.647  71.463  1.00  0.00    -0.483 A  
HETATM   14  C   UNL     1     -13.811   7.574  71.604  1.00  0.00    -0.486 A  
HETATM   15  C   UNL     1     -12.656   6.864  71.275  1.00  0.00    -0.394 A  
HETATM   16  C   UNL     1     -13.776   8.965  71.686  1.00  0.00    -0.444 A  
ENDBRANCH   4  11
BRANCH   4  17
HETATM   17  C   UNL     1      -9.949   6.605  69.172  1.00  0.00    -0.168 A  
HETATM   18  C   UNL     1      -8.686   7.168  67.172  1.00  0.00    -0.121 A  
HETATM   19  C   UNL     1      -9.324   6.144  66.470  1.00  0.00    -0.153 A  
HETATM   20  C   UNL     1     -10.313   5.392  67.117  1.00  0.00    -0.288 A  
HETATM   21  C   UNL     1     -10.631   5.622  68.454  1.00  0.00    -0.249 A  
HETATM   22  C   UNL     1      -8.995   7.396  68.519  1.00  0.00    -0.128 A  
BRANCH  19  23
HETATM   23  O   UNL     1      -8.910   5.944  65.170  1.00  0.00    -0.097 OA 
BRANCH  23  24
HETATM   24  C   UNL     1      -9.094   4.598  64.718  1.00  0.00    -0.149 C  
BRANCH  24  25
HETATM   25  C   UNL     1      -7.775   3.846  64.508  1.00  0.00    -0.081 C  
BRANCH  25  26
HETATM   26  N   UNL     1      -7.555   2.829  65.565  1.00  0.00    -0.075 NA 
HETATM   27  C   UNL     1      -8.818   2.198  65.944  1.00  0.00    -0.120 C  
HETATM   28  C   UNL     1      -6.904   3.388  66.755  1.00  0.00    -0.053 C  
ENDBRANCH  25  26
ENDBRANCH  24  25
ENDBRANCH  23  24
ENDBRANCH  19  23
ENDBRANCH   4  17
TORSDOF 7
ENDMDL
MODEL       95
REMARK 921   NORMALIZED FREE ENERGY PREDICTED BY IDOCK:   -4.02 KCAL/MOL
REMARK 922        TOTAL FREE ENERGY PREDICTED BY IDOCK:   -7.65 KCAL/MOL
REMARK 923 INTER-LIGAND FREE ENERGY PREDICTED BY IDOCK:   -5.44 KCAL/MOL
REMARK 924 INTRA-LIGAND FREE ENERGY PREDICTED BY IDOCK:   -2.21 KCAL/MOL
REMARK 927      BINDING AFFINITY PREDICTED BY RF-SCORE:    0.00 PKD
ROOT
HETATM    1  C   UNL     1      -9.413   2.369  71.356  1.00  0.00    -0.213 C  
HETATM    2  C   UNL     1      -9.901   3.769  71.694  1.00  0.00    -0.240 C  
HETATM    3  C   UNL     1      -9.822   4.928  70.699  1.00  0.00    -0.289 C  
HETATM    4  C   UNL     1      -9.351   4.969  69.419  1.00  0.00    -0.179 C  
ENDROOT
BRANCH   3   5
HETATM    5  C   UNL     1     -10.406   6.148  71.340  1.00  0.00    -0.260 A  
HETATM    6  C   UNL     1      -9.566   7.083  71.960  1.00  0.00    -0.149 A  
HETATM    7  C   UNL     1     -11.783   6.408  71.274  1.00  0.00    -0.359 A  
HETATM    8  C   UNL     1     -12.307   7.587  71.816  1.00  0.00    -0.357 A  
HETATM    9  C   UNL     1     -10.091   8.263  72.494  1.00  0.00    -0.376 A  
HETATM   10  C   UNL     1     -11.460   8.516  72.419  1.00  0.00    -0.419 A  
ENDBRANCH   3   5
BRANCH   4  11
HETATM   11  C   UNL     1      -8.749   3.784  68.769  1.00  0.00    -0.138 A  
HETATM   12  C   UNL     1      -7.373   3.532  68.867  1.00  0.00    -0.050 A  
HETATM   13  C   UNL     1      -6.821   2.391  68.281  1.00  0.00    -0.043 A  
HETATM   14  C   UNL     1      -8.998   1.773  67.434  1.00  0.00    -0.161 A  
HETATM   15  C   UNL     1      -9.551   2.912  68.020  1.00  0.00    -0.113 A  
HETATM   16  C   UNL     1      -7.636   1.506  67.574  1.00  0.00    -0.058 A  
ENDBRANCH   4  11
BRANCH   4  17
HETATM   17  C   UNL     1      -9.443   6.239  68.646  1.00  0.00    -0.121 A  
HETATM   18  C   UNL     1      -8.493   8.343  67.883  1.00  0.00    -0.131 A  
HETATM   19  C   UNL     1      -9.605   8.561  67.069  1.00  0.00    -0.188 A  
HETATM   20  C   UNL     1     -10.655   7.634  67.094  1.00  0.00    -0.410 A  
HETATM   21  C   UNL     1     -10.582   6.486  67.880  1.00  0.00    -0.313 A  
HETATM   22  C   UNL     1      -8.410   7.185  68.667  1.00  0.00    -0.125 A  
BRANCH  19  23
HETATM   23  O   UNL     1      -9.573   9.691  66.279  1.00  0.00    -0.186 OA 
BRANCH  23  24
HETATM   24  C   UNL     1      -8.387   9.789  65.483  1.00  0.00    -0.136 C  
BRANCH  24  25
HETATM   25  C   UNL     1      -8.546   9.180  64.085  1.00  0.00    -0.170 C  
BRANCH  25  26
HETATM   26  N   UNL     1      -7.244   8.725  63.540  1.00  0.00    -0.093 NA 
HETATM   27  C   UNL     1      -7.425   7.545  62.695  1.00  0.00    -0.101 C  
HETATM   28  C   UNL     1      -6.263   8.436  64.591  1.00  0.00    -0.065 C  
ENDBRANCH  25  26
ENDBRANCH  24  25
ENDBRANCH  23  24
ENDBRANCH  19  23
ENDBRANCH   4  17
TORSDOF 7
ENDMDL
MODEL       96
REMARK 921   NORMALIZED FREE ENERGY PREDICTED BY IDOCK:   -3.95 KCAL/MOL
REMARK 922        TOTAL FREE ENERGY PREDICTED BY IDOCK:   -7.55 KCAL/MOL
REMARK 923 INTER-LIGAND FREE ENERGY PREDICTED BY IDOCK:   -5.63 KCAL/MOL
REMARK 924 INTRA-LIGAND FREE ENERGY PREDICTED BY IDOCK:   -1.92 KCAL/MOL
REMARK 927      BINDING AFFINITY PREDICTED BY RF-SCORE:    0.00 PKD
ROOT
HETATM    1  C   UNL     1      -8.024  10.089  62.613  1.00  0.00    -0.141 C  
HETATM    2  C   UNL     1      -8.979  11.078  63.264  1.00  0.00    -0.173 C  
HETATM    3  C   UNL     1      -9.428  10.946  64.720  1.00  0.00    -0.279 C  
HETATM    4  C   UNL     1      -9.111  10.017  65.667  1.00  0.00    -0.222 C  
ENDROOT
BRANCH   3   5
HETATM    5  C   UNL     1     -10.338  12.090  65.044  1.00  0.00    -0.318 A  
HETATM    6  C   UNL     1     -11.710  11.991  64.771  1.00  0.00    -0.342 A  
HETATM    7  C   UNL     1      -9.852  13.240  65.681  1.00  0.00    -0.177 A  
HETATM    8  C   UNL     1     -10.725  14.272  66.042  1.00  0.00    -0.304 A  
HETATM    9  C   UNL     1     -12.581  13.020  65.139  1.00  0.00    -0.530 A  
HETATM   10  C   UNL     1     -12.089  14.158  65.776  1.00  0.00    -0.433 A  
ENDBRANCH   3   5
BRANCH   4  11
HETATM   11  C   UNL     1      -8.231   8.865  65.368  1.00  0.00    -0.131 A  
HETATM   12  C   UNL     1      -6.844   8.953  65.553  1.00  0.00    -0.076 A  
HETATM   13  C   UNL     1      -6.027   7.848  65.304  1.00  0.00    -0.038 A  
HETATM   14  C   UNL     1      -7.961   6.573  64.616  1.00  0.00    -0.116 A  
HETATM   15  C   UNL     1      -8.778   7.676  64.866  1.00  0.00     0.198 A  
HETATM   16  C   UNL     1      -6.588   6.656  64.845  1.00  0.00    -0.042 A  
ENDBRANCH   4  11
BRANCH   4  17
HETATM   17  C   UNL     1      -9.659  10.158  67.045  1.00  0.00    -0.209 A  
HETATM   18  C   UNL     1     -11.439   9.848  68.672  1.00  0.00     0.046 A  
HETATM   19  C   UNL     1     -10.607  10.326  69.687  1.00  0.00    -0.256 A  
HETATM   20  C   UNL     1      -9.319  10.766  69.356  1.00  0.00    -0.021 A  
HETATM   21  C   UNL     1      -8.849  10.693  68.047  1.00  0.00    -0.130 A  
HETATM   22  C   UNL     1     -10.967   9.762  67.356  1.00  0.00    -0.176 A  
BRANCH  19  23
HETATM   23  O   UNL     1     -11.129  10.311  70.963  1.00  0.00    -0.276 OA 
BRANCH  23  24
HETATM   24  C   UNL     1     -10.694   9.189  71.738  1.00  0.00    -0.335 C  
BRANCH  24  25
HETATM   25  C   UNL     1     -11.829   8.220  72.088  1.00  0.00    -0.369 C  
BRANCH  25  26
HETATM   26  N   UNL     1     -11.363   7.140  72.991  1.00  0.00    -0.224 NA 
HETATM   27  C   UNL     1      -9.954   7.328  73.334  1.00  0.00    -0.296 C  
HETATM   28  C   UNL     1     -11.559   5.803  72.418  1.00  0.00    -0.264 C  
ENDBRANCH  25  26
ENDBRANCH  24  25
ENDBRANCH  23  24
ENDBRANCH  19  23
ENDBRANCH   4  17
TORSDOF 7
ENDMDL
MODEL       97
REMARK 921   NORMALIZED FREE ENERGY PREDICTED BY IDOCK:   -3.94 KCAL/MOL
REMARK 922        TOTAL FREE ENERGY PREDICTED BY IDOCK:   -7.54 KCAL/MOL
REMARK 923 INTER-LIGAND FREE ENERGY PREDICTED BY IDOCK:   -5.49 KCAL/MOL
REMARK 924 INTRA-LIGAND FREE ENERGY PREDICTED BY IDOCK:   -2.05 KCAL/MOL
REMARK 927      BINDING AFFINITY PREDICTED BY RF-SCORE:    0.00 PKD
ROOT
HETATM    1  C   UNL     1      -8.579   4.575  69.886  1.00  0.00    -0.096 C  
HETATM    2  C   UNL     1      -8.082   5.203  68.593  1.00  0.00    -0.086 C  
HETATM    3  C   UNL     1      -8.473   6.618  68.165  1.00  0.00    -0.116 C  
HETATM    4  C   UNL     1      -9.268   7.543  68.775  1.00  0.00    -0.145 C  
ENDROOT
BRANCH   3   5
HETATM    5  C   UNL     1      -7.793   6.928  66.867  1.00  0.00    -0.107 A  
HETATM    6  C   UNL     1      -6.485   7.432  66.865  1.00  0.00    -0.056 A  
HETATM    7  C   UNL     1      -8.421   6.660  65.642  1.00  0.00    -0.147 A  
HETATM    8  C   UNL     1      -7.748   6.889  64.437  1.00  0.00    -0.113 A  
HETATM    9  C   UNL     1      -5.813   7.653  65.660  1.00  0.00    -0.038 A  
HETATM   10  C   UNL     1      -6.442   7.379  64.448  1.00  0.00    -0.040 A  
ENDBRANCH   3   5
BRANCH   4  11
HETATM   11  C   UNL     1      -9.968   7.255  70.047  1.00  0.00    -0.184 A  
HETATM   12  C   UNL     1     -11.251   6.689  70.048  1.00  0.00    -0.425 A  
HETATM   13  C   UNL     1     -11.887   6.386  71.254  1.00  0.00    -0.333 A  
HETATM   14  C   UNL     1      -9.999   7.273  72.473  1.00  0.00    -0.213 A  
HETATM   15  C   UNL     1      -9.362   7.574  71.269  1.00  0.00    -0.157 A  
HETATM   16  C   UNL     1     -11.256   6.669  72.465  1.00  0.00    -0.302 A  
ENDBRANCH   4  11
BRANCH   4  17
HETATM   17  C   UNL     1      -9.440   8.886  68.153  1.00  0.00    -0.155 A  
HETATM   18  C   UNL     1      -8.732  11.188  67.822  1.00  0.00    -0.132 A  
HETATM   19  C   UNL     1      -9.725  11.365  66.857  1.00  0.00    -0.192 A  
HETATM   20  C   UNL     1     -10.604  10.308  66.588  1.00  0.00    -0.232 A  
HETATM   21  C   UNL     1     -10.471   9.080  67.233  1.00  0.00    -0.343 A  
HETATM   22  C   UNL     1      -8.588   9.952  68.466  1.00  0.00    -0.117 A  
BRANCH  19  23
HETATM   23  O   UNL     1      -9.750  12.589  66.224  1.00  0.00    -0.247 OA 
BRANCH  23  24
HETATM   24  C   UNL     1     -10.636  13.528  66.843  1.00  0.00    -0.270 C  
BRANCH  24  25
HETATM   25  C   UNL     1      -9.912  14.747  67.425  1.00  0.00    -0.223 C  
BRANCH  25  26
HETATM   26  N   UNL     1     -10.665  15.999  67.170  1.00  0.00    -0.308 NA 
HETATM   27  C   UNL     1     -10.163  16.668  65.971  1.00  0.00    -0.351 C  
HETATM   28  C   UNL     1     -10.621  16.924  68.308  1.00  0.00    -0.363 C  
ENDBRANCH  25  26
ENDBRANCH  24  25
ENDBRANCH  23  24
ENDBRANCH  19  23
ENDBRANCH   4  17
TORSDOF 7
ENDMDL
MODEL       98
REMARK 921   NORMALIZED FREE ENERGY PREDICTED BY IDOCK:   -3.92 KCAL/MOL
REMARK 922        TOTAL FREE ENERGY PREDICTED BY IDOCK:   -7.51 KCAL/MOL
REMARK 923 INTER-LIGAND FREE ENERGY PREDICTED BY IDOCK:   -6.05 KCAL/MOL
REMARK 924 INTRA-LIGAND FREE ENERGY PREDICTED BY IDOCK:   -1.46 KCAL/MOL
REMARK 927      BINDING AFFINITY PREDICTED BY RF-SCORE:    0.00 PKD
ROOT
HETATM    1  C   UNL     1      -7.967   5.489  65.527  1.00  0.00    -0.111 C  
HETATM    2  C   UNL     1      -8.238   6.855  64.916  1.00  0.00    -0.074 C  
HETATM    3  C   UNL     1      -8.737   8.040  65.744  1.00  0.00    -0.175 C  
HETATM    4  C   UNL     1      -9.021   8.137  67.075  1.00  0.00    -0.160 C  
ENDROOT
BRANCH   3   5
HETATM    5  C   UNL     1      -8.874   9.228  64.843  1.00  0.00    -0.233 A  
HETATM    6  C   UNL     1      -7.831   9.567  63.969  1.00  0.00    -0.130 A  
HETATM    7  C   UNL     1     -10.060   9.974  64.808  1.00  0.00    -0.129 A  
HETATM    8  C   UNL     1     -10.202  11.038  63.912  1.00  0.00    -0.425 A  
HETATM    9  C   UNL     1      -7.977  10.626  63.069  1.00  0.00    -0.051 A  
HETATM   10  C   UNL     1      -9.162  11.359  63.039  1.00  0.00    -0.281 A  
ENDBRANCH   3   5
BRANCH   4  11
HETATM   11  C   UNL     1      -8.915   6.973  67.983  1.00  0.00    -0.126 A  
HETATM   12  C   UNL     1      -7.692   6.640  68.583  1.00  0.00    -0.109 A  
HETATM   13  C   UNL     1      -7.612   5.562  69.469  1.00  0.00    -0.071 A  
HETATM   14  C   UNL     1      -9.956   5.095  69.114  1.00  0.00    -0.273 A  
HETATM   15  C   UNL     1     -10.038   6.172  68.231  1.00  0.00    -0.182 A  
HETATM   16  C   UNL     1      -8.747   4.798  69.742  1.00  0.00    -0.109 A  
ENDBRANCH   4  11
BRANCH   4  17
HETATM   17  C   UNL     1      -9.448   9.448  67.639  1.00  0.00    -0.154 A  
HETATM   18  C   UNL     1      -8.961  11.718  68.358  1.00  0.00    -0.168 A  
HETATM   19  C   UNL     1     -10.319  11.949  68.583  1.00  0.00    -0.203 A  
HETATM   20  C   UNL     1     -11.227  10.901  68.382  1.00  0.00    -0.347 A  
HETATM   21  C   UNL     1     -10.798   9.657  67.922  1.00  0.00    -0.272 A  
HETATM   22  C   UNL     1      -8.526  10.474  67.885  1.00  0.00    -0.119 A  
BRANCH  19  23
HETATM   23  O   UNL     1     -10.666  13.223  68.981  1.00  0.00    -0.214 OA 
BRANCH  23  24
HETATM   24  C   UNL     1     -11.846  13.715  68.338  1.00  0.00    -0.372 C  
BRANCH  24  25
HETATM   25  C   UNL     1     -11.564  14.843  67.340  1.00  0.00    -0.332 C  
BRANCH  25  26
HETATM   26  N   UNL     1     -11.384  14.320  65.964  1.00  0.00    -0.328 NA 
HETATM   27  C   UNL     1     -11.081  15.408  65.035  1.00  0.00    -0.418 C  
HETATM   28  C   UNL     1     -12.555  13.575  65.488  1.00  0.00    -0.481 C  
ENDBRANCH  25  26
ENDBRANCH  24  25
ENDBRANCH  23  24
ENDBRANCH  19  23
ENDBRANCH   4  17
TORSDOF 7
ENDMDL
MODEL       99
REMARK 921   NORMALIZED FREE ENERGY PREDICTED BY IDOCK:   -3.88 KCAL/MOL
REMARK 922        TOTAL FREE ENERGY PREDICTED BY IDOCK:   -7.45 KCAL/MOL
REMARK 923 INTER-LIGAND FREE ENERGY PREDICTED BY IDOCK:   -5.23 KCAL/MOL
REMARK 924 INTRA-LIGAND FREE ENERGY PREDICTED BY IDOCK:   -2.22 KCAL/MOL
REMARK 927      BINDING AFFINITY PREDICTED BY RF-SCORE:    0.00 PKD
ROOT
HETATM    1  C   UNL     1      -6.368  10.922  65.496  1.00  0.00     0.048 C  
HETATM    2  C   UNL     1      -6.180  10.264  66.854  1.00  0.00    -0.068 C  
HETATM    3  C   UNL     1      -7.359   9.821  67.722  1.00  0.00    -0.089 C  
HETATM    4  C   UNL     1      -8.703   9.902  67.502  1.00  0.00    -0.121 C  
ENDROOT
BRANCH   3   5
HETATM    5  C   UNL     1      -6.824   9.194  68.971  1.00  0.00    -0.055 A  
HETATM    6  C   UNL     1      -6.636   9.974  70.120  1.00  0.00    -0.117 A  
HETATM    7  C   UNL     1      -6.567   7.817  69.034  1.00  0.00    -0.048 A  
HETATM    8  C   UNL     1      -6.134   7.232  70.229  1.00  0.00    -0.024 A  
HETATM    9  C   UNL     1      -6.210   9.386  71.314  1.00  0.00    -0.066 A  
HETATM   10  C   UNL     1      -5.962   8.016  71.369  1.00  0.00    -0.035 A  
ENDBRANCH   3   5
BRANCH   4  11
HETATM   11  C   UNL     1      -9.260  10.535  66.285  1.00  0.00    -0.192 A  
HETATM   12  C   UNL     1      -9.599  11.896  66.276  1.00  0.00    -0.243 A  
HETATM   13  C   UNL     1     -10.088  12.492  65.111  1.00  0.00    -0.266 A  
HETATM   14  C   UNL     1      -9.972  10.365  63.972  1.00  0.00    -0.305 A  
HETATM   15  C   UNL     1      -9.481   9.768  65.134  1.00  0.00    -0.338 A  
HETATM   16  C   UNL     1     -10.264  11.729  63.957  1.00  0.00    -0.387 A  
ENDBRANCH   4  11
BRANCH   4  17
HETATM   17  C   UNL     1      -9.645   9.336  68.508  1.00  0.00    -0.155 A  
HETATM   18  C   UNL     1     -10.843   7.460  69.487  1.00  0.00    -0.201 A  
HETATM   19  C   UNL     1     -11.325   8.287  70.503  1.00  0.00    -0.219 A  
HETATM   20  C   UNL     1     -11.001   9.649  70.479  1.00  0.00    -0.374 A  
HETATM   21  C   UNL     1     -10.176  10.175  69.488  1.00  0.00    -0.258 A  
HETATM   22  C   UNL     1     -10.004   7.982  68.493  1.00  0.00    -0.206 A  
BRANCH  19  23
HETATM   23  O   UNL     1     -12.086   7.677  71.478  1.00  0.00    -0.288 OA 
BRANCH  23  24
HETATM   24  C   UNL     1     -11.490   7.731  72.778  1.00  0.00    -0.359 C  
BRANCH  24  25
HETATM   25  C   UNL     1     -10.275   6.808  72.924  1.00  0.00    -0.201 C  
BRANCH  25  26
HETATM   26  N   UNL     1     -10.595   5.419  72.513  1.00  0.00    -0.217 NA 
HETATM   27  C   UNL     1     -11.103   4.651  73.649  1.00  0.00    -0.300 C  
HETATM   28  C   UNL     1      -9.444   4.728  71.922  1.00  0.00    -0.143 C  
ENDBRANCH  25  26
ENDBRANCH  24  25
ENDBRANCH  23  24
ENDBRANCH  19  23
ENDBRANCH   4  17
TORSDOF 7
ENDMDL
MODEL      100
REMARK 921   NORMALIZED FREE ENERGY PREDICTED BY IDOCK:   -3.78 KCAL/MOL
REMARK 922        TOTAL FREE ENERGY PREDICTED BY IDOCK:   -7.32 KCAL/MOL
REMARK 923 INTER-LIGAND FREE ENERGY PREDICTED BY IDOCK:   -7.53 KCAL/MOL
REMARK 924 INTRA-LIGAND FREE ENERGY PREDICTED BY IDOCK:    0.21 KCAL/MOL
REMARK 927      BINDING AFFINITY PREDICTED BY RF-SCORE:    0.00 PKD
ROOT
HETATM    1  C   UNL     1     -10.811   5.580  73.058  1.00  0.00    -0.316 C  
HETATM    2  C   UNL     1     -11.255   6.976  72.649  1.00  0.00    -0.310 C  
HETATM    3  C   UNL     1     -10.795   7.635  71.347  1.00  0.00    -0.250 C  
HETATM    4  C   UNL     1      -9.974   7.174  70.360  1.00  0.00    -0.191 C  
ENDROOT
BRANCH   3   5
HETATM    5  C   UNL     1     -11.434   8.985  71.244  1.00  0.00    -0.390 A  
HETATM    6  C   UNL     1     -10.902   9.946  70.373  1.00  0.00    -0.380 A  
HETATM    7  C   UNL     1     -12.603   9.286  71.958  1.00  0.00    -0.465 A  
HETATM    8  C   UNL     1     -13.230  10.526  71.799  1.00  0.00    -0.522 A  
HETATM    9  C   UNL     1     -11.534  11.181  70.210  1.00  0.00    -0.329 A  
HETATM   10  C   UNL     1     -12.698  11.470  70.920  1.00  0.00    -0.372 A  
ENDBRANCH   3   5
BRANCH   4  11
HETATM   11  C   UNL     1      -9.312   5.852  70.447  1.00  0.00    -0.181 A  
HETATM   12  C   UNL     1      -9.929   4.705  69.928  1.00  0.00    -0.296 A  
HETATM   13  C   UNL     1      -9.279   3.470  69.982  1.00  0.00    -0.226 A  
HETATM   14  C   UNL     1      -7.421   4.496  71.134  1.00  0.00    -0.060 A  
HETATM   15  C   UNL     1      -8.067   5.732  71.079  1.00  0.00    -0.120 A  
HETATM   16  C   UNL     1      -8.021   3.369  70.575  1.00  0.00    -0.050 A  
ENDBRANCH   4  11
BRANCH   4  17
HETATM   17  C   UNL     1      -9.731   8.017  69.156  1.00  0.00    -0.163 A  
HETATM   18  C   UNL     1     -10.420   8.894  66.996  1.00  0.00    -0.326 A  
HETATM   19  C   UNL     1      -9.295   9.720  66.962  1.00  0.00    -0.147 A  
HETATM   20  C   UNL     1      -8.368   9.645  68.009  1.00  0.00    -0.117 A  
HETATM   21  C   UNL     1      -8.576   8.796  69.094  1.00  0.00    -0.128 A  
HETATM   22  C   UNL     1     -10.639   8.047  68.089  1.00  0.00    -0.174 A  
BRANCH  19  23
HETATM   23  O   UNL     1      -9.194  10.571  65.882  1.00  0.00    -0.166 OA 
BRANCH  23  24
HETATM   24  C   UNL     1     -10.084  10.236  64.812  1.00  0.00    -0.266 C  
BRANCH  24  25
HETATM   25  C   UNL     1     -10.320  11.395  63.838  1.00  0.00    -0.379 C  
BRANCH  25  26
HETATM   26  N   UNL     1     -11.267  12.391  64.396  1.00  0.00    -0.313 NA 
HETATM   27  C   UNL     1     -12.448  12.514  63.541  1.00  0.00    -0.459 C  
HETATM   28  C   UNL     1     -10.652  13.709  64.583  1.00  0.00    -0.430 C  
ENDBRANCH  25  26
ENDBRANCH  24  25
ENDBRANCH  23  24
ENDBRANCH  19  23
ENDBRANCH   4  17
TORSDOF 7
ENDMDL
MODEL      101
REMARK 921   NORMALIZED FREE ENERGY PREDICTED BY IDOCK:   -3.78 KCAL/MOL
REMARK 922        TOTAL FREE ENERGY PREDICTED BY IDOCK:   -7.32 KCAL/MOL
REMARK 923 INTER-LIGAND FREE ENERGY PREDICTED BY IDOCK:   -5.42 KCAL/MOL
REMARK 924 INTRA-LIGAND FREE ENERGY PREDICTED BY IDOCK:   -1.89 KCAL/MOL
REMARK 927      BINDING AFFINITY PREDICTED BY RF-SCORE:    0.00 PKD
ROOT
HETATM    1  C   UNL     1      -9.089   9.363  64.567  1.00  0.00    -0.205 C  
HETATM    2  C   UNL     1      -9.672  10.294  65.619  1.00  0.00    -0.308 C  
HETATM    3  C   UNL     1      -9.813   9.886  67.087  1.00  0.00    -0.235 C  
HETATM    4  C   UNL     1      -9.483   8.725  67.722  1.00  0.00    -0.164 C  
ENDROOT
BRANCH   3   5
HETATM    5  C   UNL     1     -10.395  11.037  67.848  1.00  0.00    -0.213 A  
HETATM    6  C   UNL     1     -11.633  10.898  68.489  1.00  0.00    -0.360 A  
HETATM    7  C   UNL     1      -9.688  12.240  67.988  1.00  0.00    -0.205 A  
HETATM    8  C   UNL     1     -10.211  13.283  68.760  1.00  0.00    -0.119 A  
HETATM    9  C   UNL     1     -12.150  11.938  69.266  1.00  0.00    -0.270 A  
HETATM   10  C   UNL     1     -11.438  13.128  69.403  1.00  0.00    -0.321 A  
ENDBRANCH   3   5
BRANCH   4  11
HETATM   11  C   UNL     1      -8.927   7.565  66.991  1.00  0.00    -0.143 A  
HETATM   12  C   UNL     1      -9.768   6.563  66.487  1.00  0.00    -0.177 A  
HETATM   13  C   UNL     1      -9.236   5.492  65.765  1.00  0.00    -0.132 A  
HETATM   14  C   UNL     1      -7.011   6.371  66.101  1.00  0.00    -0.066 A  
HETATM   15  C   UNL     1      -7.541   7.442  66.820  1.00  0.00    -0.101 A  
HETATM   16  C   UNL     1      -7.858   5.402  65.564  1.00  0.00    -0.098 A  
ENDBRANCH   4  11
BRANCH   4  17
HETATM   17  C   UNL     1      -9.683   8.613  69.194  1.00  0.00    -0.173 A  
HETATM   18  C   UNL     1     -10.934   7.816  71.120  1.00  0.00    -0.259 A  
HETATM   19  C   UNL     1      -9.951   8.315  71.977  1.00  0.00    -0.257 A  
HETATM   20  C   UNL     1      -8.864   9.009  71.430  1.00  0.00    -0.220 A  
HETATM   21  C   UNL     1      -8.731   9.166  70.052  1.00  0.00    -0.186 A  
HETATM   22  C   UNL     1     -10.800   7.962  69.734  1.00  0.00    -0.202 A  
BRANCH  19  23
HETATM   23  O   UNL     1     -10.129   8.066  73.321  1.00  0.00    -0.310 OA 
BRANCH  23  24
HETATM   24  C   UNL     1     -10.103   6.672  73.646  1.00  0.00    -0.276 C  
BRANCH  24  25
HETATM   25  C   UNL     1      -8.693   6.146  73.936  1.00  0.00    -0.123 C  
BRANCH  25  26
HETATM   26  N   UNL     1      -8.132   5.423  72.769  1.00  0.00    -0.109 NA 
HETATM   27  C   UNL     1      -9.026   4.344  72.353  1.00  0.00    -0.119 C  
HETATM   28  C   UNL     1      -6.793   4.884  73.032  1.00  0.00    -0.072 C  
ENDBRANCH  25  26
ENDBRANCH  24  25
ENDBRANCH  23  24
ENDBRANCH  19  23
ENDBRANCH   4  17
TORSDOF 7
ENDMDL
MODEL      102
REMARK 921   NORMALIZED FREE ENERGY PREDICTED BY IDOCK:   -3.78 KCAL/MOL
REMARK 922        TOTAL FREE ENERGY PREDICTED BY IDOCK:   -7.31 KCAL/MOL
REMARK 923 INTER-LIGAND FREE ENERGY PREDICTED BY IDOCK:   -5.45 KCAL/MOL
REMARK 924 INTRA-LIGAND FREE ENERGY PREDICTED BY IDOCK:   -1.86 KCAL/MOL
REMARK 927      BINDING AFFINITY PREDICTED BY RF-SCORE:    0.00 PKD
ROOT
HETATM    1  C   UNL     1      -7.750  10.319  63.334  1.00  0.00    -0.126 C  
HETATM    2  C   UNL     1      -7.475   8.949  63.935  1.00  0.00    -0.112 C  
HETATM    3  C   UNL     1      -8.203   8.439  65.179  1.00  0.00    -0.158 C  
HETATM    4  C   UNL     1      -9.162   9.026  65.951  1.00  0.00    -0.290 C  
ENDROOT
BRANCH   3   5
HETATM    5  C   UNL     1      -7.715   7.056  65.483  1.00  0.00    -0.105 A  
HETATM    6  C   UNL     1      -8.082   5.987  64.654  1.00  0.00    -0.132 A  
HETATM    7  C   UNL     1      -6.838   6.819  66.551  1.00  0.00    -0.061 A  
HETATM    8  C   UNL     1      -6.334   5.534  66.781  1.00  0.00    -0.036 A  
HETATM    9  C   UNL     1      -7.572   4.706  64.882  1.00  0.00    -0.077 A  
HETATM   10  C   UNL     1      -6.696   4.481  65.942  1.00  0.00    -0.053 A  
ENDBRANCH   3   5
BRANCH   4  11
HETATM   11  C   UNL     1      -9.646  10.399  65.686  1.00  0.00    -0.281 A  
HETATM   12  C   UNL     1      -9.123  11.493  66.390  1.00  0.00    -0.206 A  
HETATM   13  C   UNL     1      -9.560  12.789  66.105  1.00  0.00    -0.214 A  
HETATM   14  C   UNL     1     -11.097  11.910  64.461  1.00  0.00    -0.381 A  
HETATM   15  C   UNL     1     -10.660  10.615  64.743  1.00  0.00    -0.184 A  
HETATM   16  C   UNL     1     -10.539  12.997  65.133  1.00  0.00    -0.327 A  
ENDBRANCH   4  11
BRANCH   4  17
HETATM   17  C   UNL     1      -9.746   8.270  67.095  1.00  0.00    -0.255 A  
HETATM   18  C   UNL     1     -10.060   7.922  69.480  1.00  0.00    -0.195 A  
HETATM   19  C   UNL     1     -10.972   6.898  69.220  1.00  0.00    -0.221 A  
HETATM   20  C   UNL     1     -11.222   6.535  67.891  1.00  0.00    -0.257 A  
HETATM   21  C   UNL     1     -10.610   7.207  66.835  1.00  0.00    -0.371 A  
HETATM   22  C   UNL     1      -9.450   8.608  68.422  1.00  0.00    -0.144 A  
BRANCH  19  23
HETATM   23  O   UNL     1     -11.576   6.325  70.319  1.00  0.00    -0.395 OA 
BRANCH  23  24
HETATM   24  C   UNL     1     -10.643   5.804  71.271  1.00  0.00    -0.257 C  
BRANCH  24  25
HETATM   25  C   UNL     1      -9.975   4.503  70.812  1.00  0.00    -0.199 C  
BRANCH  25  26
HETATM   26  N   UNL     1      -9.441   3.731  71.960  1.00  0.00    -0.128 NA 
HETATM   27  C   UNL     1      -9.870   2.335  71.886  1.00  0.00    -0.155 C  
HETATM   28  C   UNL     1      -9.834   4.302  73.253  1.00  0.00    -0.131 C  
ENDBRANCH  25  26
ENDBRANCH  24  25
ENDBRANCH  23  24
ENDBRANCH  19  23
ENDBRANCH   4  17
TORSDOF 7
ENDMDL
MODEL      103
REMARK 921   NORMALIZED FREE ENERGY PREDICTED BY IDOCK:   -3.76 KCAL/MOL
REMARK 922        TOTAL FREE ENERGY PREDICTED BY IDOCK:   -7.28 KCAL/MOL
REMARK 923 INTER-LIGAND FREE ENERGY PREDICTED BY IDOCK:   -7.18 KCAL/MOL
REMARK 924 INTRA-LIGAND FREE ENERGY PREDICTED BY IDOCK:   -0.11 KCAL/MOL
REMARK 927      BINDING AFFINITY PREDICTED BY RF-SCORE:    0.00 PKD
ROOT
HETATM    1  C   UNL     1     -10.781   9.175  67.346  1.00  0.00    -0.247 C  
HETATM    2  C   UNL     1     -11.250  10.383  68.141  1.00  0.00    -0.333 C  
HETATM    3  C   UNL     1     -10.808  11.808  67.805  1.00  0.00    -0.258 C  
HETATM    4  C   UNL     1      -9.985  12.274  66.823  1.00  0.00    -0.217 C  
ENDROOT
BRANCH   3   5
HETATM    5  C   UNL     1     -11.470  12.751  68.761  1.00  0.00    -0.347 A  
HETATM    6  C   UNL     1     -11.742  12.340  70.074  1.00  0.00    -0.319 A  
HETATM    7  C   UNL     1     -11.765  14.070  68.386  1.00  0.00    -0.389 A  
HETATM    8  C   UNL     1     -12.319  14.962  69.311  1.00  0.00    -0.138 A  
HETATM    9  C   UNL     1     -12.289  13.235  70.997  1.00  0.00    -0.379 A  
HETATM   10  C   UNL     1     -12.574  14.545  70.617  1.00  0.00    -0.416 A  
ENDBRANCH   3   5
BRANCH   4  11
HETATM   11  C   UNL     1      -9.301  11.363  65.878  1.00  0.00    -0.247 A  
HETATM   12  C   UNL     1      -9.914  10.984  64.674  1.00  0.00    -0.357 A  
HETATM   13  C   UNL     1      -9.244  10.154  63.773  1.00  0.00    -0.321 A  
HETATM   14  C   UNL     1      -7.371  10.013  65.293  1.00  0.00    -0.137 A  
HETATM   15  C   UNL     1      -8.038  10.844  66.194  1.00  0.00    -0.160 A  
HETATM   16  C   UNL     1      -7.969   9.678  64.078  1.00  0.00    -0.140 A  
ENDBRANCH   4  11
BRANCH   4  17
HETATM   17  C   UNL     1      -9.763  13.741  66.687  1.00  0.00    -0.293 A  
HETATM   18  C   UNL     1      -8.603  15.787  67.306  1.00  0.00    -0.209 A  
HETATM   19  C   UNL     1      -9.285  16.486  66.309  1.00  0.00    -0.310 A  
HETATM   20  C   UNL     1     -10.244  15.811  65.542  1.00  0.00    -0.407 A  
HETATM   21  C   UNL     1     -10.489  14.453  65.732  1.00  0.00    -0.329 A  
HETATM   22  C   UNL     1      -8.839  14.419  67.494  1.00  0.00    -0.197 A  
BRANCH  19  23
HETATM   23  O   UNL     1      -8.941  17.811  66.148  1.00  0.00    -0.455 OA 
BRANCH  23  24
HETATM   24  C   UNL     1      -7.586  18.092  66.512  1.00  0.00    -0.241 C  
BRANCH  24  25
HETATM   25  C   UNL     1      -6.588  17.820  65.380  1.00  0.00     0.203 C  
BRANCH  25  26
HETATM   26  N   UNL     1      -5.423  18.734  65.451  1.00  0.00    -0.172 NA 
HETATM   27  C   UNL     1      -5.538  19.626  66.604  1.00  0.00    -0.169 C  
HETATM   28  C   UNL     1      -5.253  19.526  64.228  1.00  0.00    -0.190 C  
ENDBRANCH  25  26
ENDBRANCH  24  25
ENDBRANCH  23  24
ENDBRANCH  19  23
ENDBRANCH   4  17
TORSDOF 7
ENDMDL
MODEL      104
REMARK 921   NORMALIZED FREE ENERGY PREDICTED BY IDOCK:   -3.74 KCAL/MOL
REMARK 922        TOTAL FREE ENERGY PREDICTED BY IDOCK:   -7.26 KCAL/MOL
REMARK 923 INTER-LIGAND FREE ENERGY PREDICTED BY IDOCK:   -5.18 KCAL/MOL
REMARK 924 INTRA-LIGAND FREE ENERGY PREDICTED BY IDOCK:   -2.08 KCAL/MOL
REMARK 927      BINDING AFFINITY PREDICTED BY RF-SCORE:    0.00 PKD
ROOT
HETATM    1  C   UNL     1     -10.306   9.834  70.980  1.00  0.00    -0.174 C  
HETATM    2  C   UNL     1      -9.810   9.850  69.542  1.00  0.00    -0.241 C  
HETATM    3  C   UNL     1      -9.691   8.577  68.702  1.00  0.00    -0.171 C  
HETATM    4  C   UNL     1      -9.972   7.279  69.011  1.00  0.00    -0.177 C  
ENDROOT
BRANCH   3   5
HETATM    5  C   UNL     1      -9.200   8.951  67.338  1.00  0.00    -0.157 A  
HETATM    6  C   UNL     1      -7.861   8.726  66.990  1.00  0.00    -0.095 A  
HETATM    7  C   UNL     1     -10.077   9.465  66.372  1.00  0.00    -0.332 A  
HETATM    8  C   UNL     1      -9.621   9.744  65.079  1.00  0.00    -0.333 A  
HETATM    9  C   UNL     1      -7.410   8.998  65.696  1.00  0.00    -0.086 A  
HETATM   10  C   UNL     1      -8.290   9.504  64.740  1.00  0.00    -0.155 A  
ENDBRANCH   3   5
BRANCH   4  11
HETATM   11  C   UNL     1     -10.437   6.879  70.358  1.00  0.00    -0.229 A  
HETATM   12  C   UNL     1      -9.520   6.541  71.364  1.00  0.00    -0.164 A  
HETATM   13  C   UNL     1      -9.970   6.202  72.642  1.00  0.00    -0.189 A  
HETATM   14  C   UNL     1     -12.257   6.467  71.910  1.00  0.00    -0.373 A  
HETATM   15  C   UNL     1     -11.810   6.808  70.633  1.00  0.00    -0.442 A  
HETATM   16  C   UNL     1     -11.337   6.176  72.917  1.00  0.00    -0.204 A  
ENDBRANCH   4  11
BRANCH   4  17
HETATM   17  C   UNL     1      -9.811   6.226  67.969  1.00  0.00    -0.128 A  
HETATM   18  C   UNL     1     -10.637   4.985  66.050  1.00  0.00    -0.286 A  
HETATM   19  C   UNL     1      -9.414   4.322  65.940  1.00  0.00    -0.176 A  
HETATM   20  C   UNL     1      -8.414   4.583  66.886  1.00  0.00    -0.105 A  
HETATM   21  C   UNL     1      -8.610   5.520  67.898  1.00  0.00    -0.104 A  
HETATM   22  C   UNL     1     -10.835   5.936  67.059  1.00  0.00    -0.379 A  
BRANCH  19  23
HETATM   23  O   UNL     1      -9.282   3.454  64.876  1.00  0.00    -0.133 OA 
BRANCH  23  24
HETATM   24  C   UNL     1      -8.928   4.109  63.653  1.00  0.00    -0.130 C  
BRANCH  24  25
HETATM   25  C   UNL     1      -7.420   4.336  63.505  1.00  0.00    -0.055 C  
BRANCH  25  26
HETATM   26  N   UNL     1      -7.123   5.362  62.476  1.00  0.00    -0.042 NA 
HETATM   27  C   UNL     1      -5.689   5.644  62.429  1.00  0.00    -0.014 C  
HETATM   28  C   UNL     1      -7.866   6.608  62.693  1.00  0.00    -0.104 C  
ENDBRANCH  25  26
ENDBRANCH  24  25
ENDBRANCH  23  24
ENDBRANCH  19  23
ENDBRANCH   4  17
TORSDOF 7
ENDMDL
MODEL      105
REMARK 921   NORMALIZED FREE ENERGY PREDICTED BY IDOCK:   -3.72 KCAL/MOL
REMARK 922        TOTAL FREE ENERGY PREDICTED BY IDOCK:   -7.23 KCAL/MOL
REMARK 923 INTER-LIGAND FREE ENERGY PREDICTED BY IDOCK:   -5.19 KCAL/MOL
REMARK 924 INTRA-LIGAND FREE ENERGY PREDICTED BY IDOCK:   -2.04 KCAL/MOL
REMARK 927      BINDING AFFINITY PREDICTED BY RF-SCORE:    0.00 PKD
ROOT
HETATM    1  C   UNL     1     -10.014   7.507  73.739  1.00  0.00    -0.275 C  
HETATM    2  C   UNL     1      -9.098   6.561  72.979  1.00  0.00    -0.136 C  
HETATM    3  C   UNL     1      -9.210   6.349  71.468  1.00  0.00    -0.145 C  
HETATM    4  C   UNL     1     -10.060   6.898  70.554  1.00  0.00    -0.201 C  
ENDROOT
BRANCH   3   5
HETATM    5  C   UNL     1      -8.149   5.382  71.042  1.00  0.00    -0.113 A  
HETATM    6  C   UNL     1      -6.857   5.843  70.752  1.00  0.00    -0.058 A  
HETATM    7  C   UNL     1      -8.407   4.004  70.992  1.00  0.00    -0.090 A  
HETATM    8  C   UNL     1      -7.388   3.105  70.661  1.00  0.00    -0.037 A  
HETATM    9  C   UNL     1      -5.839   4.942  70.429  1.00  0.00    -0.017 A  
HETATM   10  C   UNL     1      -6.103   3.574  70.386  1.00  0.00    -0.019 A  
ENDBRANCH   3   5
BRANCH   4  11
HETATM   11  C   UNL     1     -11.131   7.840  70.951  1.00  0.00    -0.270 A  
HETATM   12  C   UNL     1     -12.396   7.370  71.333  1.00  0.00    -0.394 A  
HETATM   13  C   UNL     1     -13.387   8.265  71.742  1.00  0.00    -0.375 A  
HETATM   14  C   UNL     1     -11.890  10.115  71.326  1.00  0.00    -0.448 A  
HETATM   15  C   UNL     1     -10.898   9.221  70.919  1.00  0.00    -0.365 A  
HETATM   16  C   UNL     1     -13.129   9.636  71.748  1.00  0.00    -0.514 A  
ENDBRANCH   4  11
BRANCH   4  17
HETATM   17  C   UNL     1      -9.914   6.549  69.113  1.00  0.00    -0.163 A  
HETATM   18  C   UNL     1      -9.002   6.973  66.900  1.00  0.00    -0.135 A  
HETATM   19  C   UNL     1      -9.558   5.781  66.433  1.00  0.00    -0.153 A  
HETATM   20  C   UNL     1     -10.334   5.007  67.305  1.00  0.00    -0.193 A  
HETATM   21  C   UNL     1     -10.520   5.388  68.632  1.00  0.00    -0.199 A  
HETATM   22  C   UNL     1      -9.178   7.355  68.236  1.00  0.00    -0.137 A  
BRANCH  19  23
HETATM   23  O   UNL     1      -9.277   5.448  65.124  1.00  0.00    -0.086 OA 
BRANCH  23  24
HETATM   24  C   UNL     1      -9.910   4.236  64.701  1.00  0.00    -0.139 C  
BRANCH  24  25
HETATM   25  C   UNL     1      -8.921   3.087  64.472  1.00  0.00    -0.116 C  
BRANCH  25  26
HETATM   26  N   UNL     1      -9.463   2.085  63.523  1.00  0.00    -0.098 NA 
HETATM   27  C   UNL     1      -8.589   1.954  62.358  1.00  0.00    -0.072 C  
HETATM   28  C   UNL     1     -10.827   2.403  63.085  1.00  0.00    -0.237 C  
ENDBRANCH  25  26
ENDBRANCH  24  25
ENDBRANCH  23  24
ENDBRANCH  19  23
ENDBRANCH   4  17
TORSDOF 7
ENDMDL
MODEL      106
REMARK 921   NORMALIZED FREE ENERGY PREDICTED BY IDOCK:   -3.70 KCAL/MOL
REMARK 922        TOTAL FREE ENERGY PREDICTED BY IDOCK:   -7.21 KCAL/MOL
REMARK 923 INTER-LIGAND FREE ENERGY PREDICTED BY IDOCK:   -6.01 KCAL/MOL
REMARK 924 INTRA-LIGAND FREE ENERGY PREDICTED BY IDOCK:   -1.20 KCAL/MOL
REMARK 927      BINDING AFFINITY PREDICTED BY RF-SCORE:    0.00 PKD
ROOT
HETATM    1  C   UNL     1     -12.516  12.696  65.145  1.00  0.00    -0.531 C  
HETATM    2  C   UNL     1     -12.144  14.144  65.424  1.00  0.00    -0.415 C  
HETATM    3  C   UNL     1     -10.938  14.530  66.282  1.00  0.00    -0.323 C  
HETATM    4  C   UNL     1     -10.018  13.753  66.923  1.00  0.00    -0.264 C  
ENDROOT
BRANCH   3   5
HETATM    5  C   UNL     1     -10.846  16.024  66.330  1.00  0.00    -0.159 A  
HETATM    6  C   UNL     1     -10.841  16.685  67.566  1.00  0.00    -0.221 A  
HETATM    7  C   UNL     1     -10.697  16.776  65.156  1.00  0.00    -0.159 A  
HETATM    8  C   UNL     1     -10.541  18.164  65.219  1.00  0.00     0.391 A  
HETATM    9  C   UNL     1     -10.678  18.071  67.628  1.00  0.00    -0.360 A  
HETATM   10  C   UNL     1     -10.525  18.810  66.456  1.00  0.00    -0.484 A  
ENDBRANCH   3   5
BRANCH   4  11
HETATM   11  C   UNL     1     -10.098  12.275  66.909  1.00  0.00    -0.224 A  
HETATM   12  C   UNL     1      -9.552  11.536  65.850  1.00  0.00    -0.254 A  
HETATM   13  C   UNL     1      -9.599  10.140  65.866  1.00  0.00    -0.274 A  
HETATM   14  C   UNL     1     -10.799  10.204  67.962  1.00  0.00    -0.320 A  
HETATM   15  C   UNL     1     -10.750  11.598  67.948  1.00  0.00    -0.241 A  
HETATM   16  C   UNL     1     -10.213   9.475  66.927  1.00  0.00    -0.317 A  
ENDBRANCH   4  11
BRANCH   4  17
HETATM   17  C   UNL     1      -8.897  14.402  67.659  1.00  0.00    -0.193 A  
HETATM   18  C   UNL     1      -7.895  15.234  69.711  1.00  0.00    -0.057 A  
HETATM   19  C   UNL     1      -6.707  15.509  69.031  1.00  0.00    -0.131 A  
HETATM   20  C   UNL     1      -6.646  15.273  67.651  1.00  0.00    -0.196 A  
HETATM   21  C   UNL     1      -7.732  14.732  66.966  1.00  0.00    -0.038 A  
HETATM   22  C   UNL     1      -8.985  14.681  69.029  1.00  0.00    -0.093 A  
BRANCH  19  23
HETATM   23  O   UNL     1      -5.662  15.987  69.793  1.00  0.00    -0.131 OA 
BRANCH  23  24
HETATM   24  C   UNL     1      -5.132  17.226  69.312  1.00  0.00    -0.149 C  
BRANCH  24  25
HETATM   25  C   UNL     1      -6.217  18.231  68.908  1.00  0.00    -0.223 C  
BRANCH  25  26
HETATM   26  N   UNL     1      -5.758  19.114  67.809  1.00  0.00    -0.192 NA 
HETATM   27  C   UNL     1      -6.204  20.489  68.033  1.00  0.00    -0.283 C  
HETATM   28  C   UNL     1      -6.212  18.655  66.492  1.00  0.00    -0.169 C  
ENDBRANCH  25  26
ENDBRANCH  24  25
ENDBRANCH  23  24
ENDBRANCH  19  23
ENDBRANCH   4  17
TORSDOF 7
ENDMDL
MODEL      107
REMARK 921   NORMALIZED FREE ENERGY PREDICTED BY IDOCK:   -3.66 KCAL/MOL
REMARK 922        TOTAL FREE ENERGY PREDICTED BY IDOCK:   -7.15 KCAL/MOL
REMARK 923 INTER-LIGAND FREE ENERGY PREDICTED BY IDOCK:   -7.48 KCAL/MOL
REMARK 924 INTRA-LIGAND FREE ENERGY PREDICTED BY IDOCK:    0.33 KCAL/MOL
REMARK 927      BINDING AFFINITY PREDICTED BY RF-SCORE:    0.00 PKD
ROOT
HETATM    1  C   UNL     1     -12.030  15.597  69.240  1.00  0.00    -0.338 C  
HETATM    2  C   UNL     1     -12.232  14.249  69.913  1.00  0.00    -0.407 C  
HETATM    3  C   UNL     1     -11.561  12.971  69.406  1.00  0.00    -0.360 C  
HETATM    4  C   UNL     1     -10.720  12.767  68.352  1.00  0.00    -0.269 C  
ENDROOT
BRANCH   3   5
HETATM    5  C   UNL     1     -11.949  11.839  70.306  1.00  0.00    -0.429 A  
HETATM    6  C   UNL     1     -12.837  12.062  71.368  1.00  0.00    -0.391 A  
HETATM    7  C   UNL     1     -11.490  10.536  70.066  1.00  0.00    -0.393 A  
HETATM    8  C   UNL     1     -11.916   9.475  70.872  1.00  0.00    -0.372 A  
HETATM    9  C   UNL     1     -13.267  11.000  72.168  1.00  0.00    -0.316 A  
HETATM   10  C   UNL     1     -12.809   9.707  71.918  1.00  0.00    -0.515 A  
ENDBRANCH   3   5
BRANCH   4  11
HETATM   11  C   UNL     1     -10.337  13.864  67.434  1.00  0.00    -0.252 A  
HETATM   12  C   UNL     1     -11.120  14.165  66.310  1.00  0.00    -0.318 A  
HETATM   13  C   UNL     1     -10.770  15.226  65.472  1.00  0.00    -0.385 A  
HETATM   14  C   UNL     1      -8.816  15.654  66.827  1.00  0.00    -0.304 A  
HETATM   15  C   UNL     1      -9.165  14.596  67.667  1.00  0.00    -0.193 A  
HETATM   16  C   UNL     1      -9.624  15.977  65.737  1.00  0.00    -0.311 A  
ENDBRANCH   4  11
BRANCH   4  17
HETATM   17  C   UNL     1     -10.163  11.406  68.111  1.00  0.00    -0.200 A  
HETATM   18  C   UNL     1     -10.242   9.234  67.023  1.00  0.00    -0.331 A  
HETATM   19  C   UNL     1      -9.010   8.897  67.584  1.00  0.00    -0.134 A  
HETATM   20  C   UNL     1      -8.389   9.806  68.452  1.00  0.00    -0.110 A  
HETATM   21  C   UNL     1      -8.961  11.047  68.722  1.00  0.00    -0.153 A  
HETATM   22  C   UNL     1     -10.817  10.485  67.283  1.00  0.00    -0.338 A  
BRANCH  19  23
HETATM   23  O   UNL     1      -8.485   7.675  67.220  1.00  0.00    -0.120 OA 
BRANCH  23  24
HETATM   24  C   UNL     1      -7.260   7.362  67.891  1.00  0.00    -0.091 C  
BRANCH  24  25
HETATM   25  C   UNL     1      -7.432   6.326  69.008  1.00  0.00    -0.091 C  
BRANCH  25  26
HETATM   26  N   UNL     1      -8.780   5.710  68.976  1.00  0.00    -0.104 NA 
HETATM   27  C   UNL     1      -9.547   6.086  70.162  1.00  0.00    -0.162 C  
HETATM   28  C   UNL     1      -8.728   4.248  68.863  1.00  0.00    -0.091 C  
ENDBRANCH  25  26
ENDBRANCH  24  25
ENDBRANCH  23  24
ENDBRANCH  19  23
ENDBRANCH   4  17
TORSDOF 7
ENDMDL
MODEL      108
REMARK 921   NORMALIZED FREE ENERGY PREDICTED BY IDOCK:   -3.58 KCAL/MOL
REMARK 922        TOTAL FREE ENERGY PREDICTED BY IDOCK:   -7.03 KCAL/MOL
REMARK 923 INTER-LIGAND FREE ENERGY PREDICTED BY IDOCK:   -5.80 KCAL/MOL
REMARK 924 INTRA-LIGAND FREE ENERGY PREDICTED BY IDOCK:   -1.23 KCAL/MOL
REMARK 927      BINDING AFFINITY PREDICTED BY RF-SCORE:    0.00 PKD
ROOT
HETATM    1  C   UNL     1      -9.945  19.864  66.319  1.00  0.00    -0.596 C  
HETATM    2  C   UNL     1     -10.466  18.449  66.123  1.00  0.00    -0.422 C  
HETATM    3  C   UNL     1      -9.726  17.222  66.658  1.00  0.00    -0.295 C  
HETATM    4  C   UNL     1      -8.560  17.122  67.359  1.00  0.00    -0.212 C  
ENDROOT
BRANCH   3   5
HETATM    5  C   UNL     1     -10.521  15.999  66.315  1.00  0.00    -0.326 A  
HETATM    6  C   UNL     1     -10.268  15.313  65.119  1.00  0.00    -0.374 A  
HETATM    7  C   UNL     1     -11.474  15.486  67.206  1.00  0.00    -0.102 A  
HETATM    8  C   UNL     1     -12.159  14.304  66.905  1.00  0.00    -0.440 A  
HETATM    9  C   UNL     1     -10.948  14.129  64.824  1.00  0.00    -0.409 A  
HETATM   10  C   UNL     1     -11.891  13.623  65.718  1.00  0.00    -0.397 A  
ENDBRANCH   3   5
BRANCH   4  11
HETATM   11  C   UNL     1      -7.745  18.312  67.692  1.00  0.00    -0.230 A  
HETATM   12  C   UNL     1      -6.814  18.824  66.777  1.00  0.00    -0.210 A  
HETATM   13  C   UNL     1      -6.077  19.969  67.087  1.00  0.00    -0.200 A  
HETATM   14  C   UNL     1      -7.138  20.066  69.255  1.00  0.00    -0.209 A  
HETATM   15  C   UNL     1      -7.877  18.923  68.946  1.00  0.00    -0.314 A  
HETATM   16  C   UNL     1      -6.248  20.595  68.322  1.00  0.00    -0.363 A  
ENDBRANCH   4  11
BRANCH   4  17
HETATM   17  C   UNL     1      -8.087  15.783  67.807  1.00  0.00    -0.156 A  
HETATM   18  C   UNL     1      -8.318  13.793  69.185  1.00  0.00     0.363 A  
HETATM   19  C   UNL     1      -7.234  13.203  68.531  1.00  0.00    -0.110 A  
HETATM   20  C   UNL     1      -6.553  13.937  67.552  1.00  0.00    -0.104 A  
HETATM   21  C   UNL     1      -6.967  15.219  67.196  1.00  0.00    -0.037 A  
HETATM   22  C   UNL     1      -8.745  15.077  68.824  1.00  0.00    -0.186 A  
BRANCH  19  23
HETATM   23  O   UNL     1      -6.926  11.911  68.902  1.00  0.00    -0.098 OA 
BRANCH  23  24
HETATM   24  C   UNL     1      -8.079  11.078  69.059  1.00  0.00    -0.104 C  
BRANCH  24  25
HETATM   25  C   UNL     1      -8.054   9.837  68.161  1.00  0.00    -0.108 C  
BRANCH  25  26
HETATM   26  N   UNL     1      -7.155   8.790  68.704  1.00  0.00    -0.071 NA 
HETATM   27  C   UNL     1      -6.323   9.333  69.777  1.00  0.00    -0.039 C  
HETATM   28  C   UNL     1      -6.302   8.190  67.672  1.00  0.00    -0.053 C  
ENDBRANCH  25  26
ENDBRANCH  24  25
ENDBRANCH  23  24
ENDBRANCH  19  23
ENDBRANCH   4  17
TORSDOF 7
ENDMDL
MODEL      109
REMARK 921   NORMALIZED FREE ENERGY PREDICTED BY IDOCK:   -3.54 KCAL/MOL
REMARK 922        TOTAL FREE ENERGY PREDICTED BY IDOCK:   -6.98 KCAL/MOL
REMARK 923 INTER-LIGAND FREE ENERGY PREDICTED BY IDOCK:   -4.86 KCAL/MOL
REMARK 924 INTRA-LIGAND FREE ENERGY PREDICTED BY IDOCK:   -2.11 KCAL/MOL
REMARK 927      BINDING AFFINITY PREDICTED BY RF-SCORE:    0.00 PKD
ROOT
HETATM    1  C   UNL     1      -6.717   8.489  69.085  1.00  0.00    -0.047 C  
HETATM    2  C   UNL     1      -6.351   9.964  69.044  1.00  0.00    -0.040 C  
HETATM    3  C   UNL     1      -7.345  11.044  68.612  1.00  0.00    -0.104 C  
HETATM    4  C   UNL     1      -8.645  10.946  68.211  1.00  0.00    -0.139 C  
ENDROOT
BRANCH   3   5
HETATM    5  C   UNL     1      -6.672  12.378  68.712  1.00  0.00    -0.092 A  
HETATM    6  C   UNL     1      -5.857  12.831  67.664  1.00  0.00    -0.141 A  
HETATM    7  C   UNL     1      -6.896  13.219  69.811  1.00  0.00     0.226 A  
HETATM    8  C   UNL     1      -6.318  14.492  69.859  1.00  0.00    -0.157 A  
HETATM    9  C   UNL     1      -5.286  14.105  67.711  1.00  0.00    -0.013 A  
HETATM   10  C   UNL     1      -5.519  14.936  68.805  1.00  0.00    -0.088 A  
ENDBRANCH   3   5
BRANCH   4  11
HETATM   11  C   UNL     1      -9.327   9.639  68.084  1.00  0.00    -0.140 A  
HETATM   12  C   UNL     1      -9.924   9.029  69.196  1.00  0.00    -0.187 A  
HETATM   13  C   UNL     1     -10.598   7.814  69.057  1.00  0.00    -0.179 A  
HETATM   14  C   UNL     1     -10.030   7.767  66.709  1.00  0.00    -0.331 A  
HETATM   15  C   UNL     1      -9.357   8.982  66.846  1.00  0.00    -0.203 A  
HETATM   16  C   UNL     1     -10.659   7.189  67.811  1.00  0.00    -0.293 A  
ENDBRANCH   4  11
BRANCH   4  17
HETATM   17  C   UNL     1      -9.408  12.186  67.892  1.00  0.00    -0.192 A  
HETATM   18  C   UNL     1     -10.955  13.955  68.515  1.00  0.00    -0.277 A  
HETATM   19  C   UNL     1     -10.729  14.594  67.294  1.00  0.00    -0.290 A  
HETATM   20  C   UNL     1      -9.880  13.989  66.359  1.00  0.00    -0.306 A  
HETATM   21  C   UNL     1      -9.229  12.791  66.648  1.00  0.00    -0.212 A  
HETATM   22  C   UNL     1     -10.295  12.756  68.814  1.00  0.00    -0.136 A  
BRANCH  19  23
HETATM   23  O   UNL     1     -11.365  15.804  67.111  1.00  0.00    -0.190 OA 
BRANCH  23  24
HETATM   24  C   UNL     1     -10.476  16.857  66.725  1.00  0.00    -0.260 C  
BRANCH  24  25
HETATM   25  C   UNL     1      -9.638  17.397  67.889  1.00  0.00    -0.267 C  
BRANCH  25  26
HETATM   26  N   UNL     1      -8.279  17.789  67.444  1.00  0.00    -0.212 NA 
HETATM   27  C   UNL     1      -7.454  18.175  68.589  1.00  0.00    -0.290 C  
HETATM   28  C   UNL     1      -8.300  18.876  66.459  1.00  0.00    -0.302 C  
ENDBRANCH  25  26
ENDBRANCH  24  25
ENDBRANCH  23  24
ENDBRANCH  19  23
ENDBRANCH   4  17
TORSDOF 7
ENDMDL
MODEL      110
REMARK 921   NORMALIZED FREE ENERGY PREDICTED BY IDOCK:   -3.53 KCAL/MOL
REMARK 922        TOTAL FREE ENERGY PREDICTED BY IDOCK:   -6.97 KCAL/MOL
REMARK 923 INTER-LIGAND FREE ENERGY PREDICTED BY IDOCK:   -5.47 KCAL/MOL
REMARK 924 INTRA-LIGAND FREE ENERGY PREDICTED BY IDOCK:   -1.49 KCAL/MOL
REMARK 927      BINDING AFFINITY PREDICTED BY RF-SCORE:    0.00 PKD
ROOT
HETATM    1  C   UNL     1     -10.563   6.874  73.822  1.00  0.00    -0.333 C  
HETATM    2  C   UNL     1      -9.652   5.932  73.050  1.00  0.00    -0.158 C  
HETATM    3  C   UNL     1      -9.579   5.929  71.522  1.00  0.00    -0.175 C  
HETATM    4  C   UNL     1     -10.239   6.688  70.600  1.00  0.00    -0.215 C  
ENDROOT
BRANCH   3   5
HETATM    5  C   UNL     1      -8.573   4.906  71.094  1.00  0.00    -0.131 A  
HETATM    6  C   UNL     1      -9.002   3.659  70.621  1.00  0.00    -0.163 A  
HETATM    7  C   UNL     1      -7.202   5.199  71.096  1.00  0.00    -0.068 A  
HETATM    8  C   UNL     1      -6.277   4.260  70.627  1.00  0.00    -0.018 A  
HETATM    9  C   UNL     1      -8.077   2.725  70.147  1.00  0.00    -0.056 A  
HETATM   10  C   UNL     1      -6.716   3.026  70.147  1.00  0.00    -0.033 A  
ENDBRANCH   3   5
BRANCH   4  11
HETATM   11  C   UNL     1     -11.253   7.691  70.995  1.00  0.00    -0.283 A  
HETATM   12  C   UNL     1     -12.555   7.298  71.340  1.00  0.00    -0.423 A  
HETATM   13  C   UNL     1     -13.493   8.250  71.747  1.00  0.00    -0.377 A  
HETATM   14  C   UNL     1     -11.867  10.003  71.404  1.00  0.00    -0.447 A  
HETATM   15  C   UNL     1     -10.927   9.054  70.999  1.00  0.00    -0.352 A  
HETATM   16  C   UNL     1     -13.145   9.600  71.789  1.00  0.00    -0.514 A  
ENDBRANCH   4  11
BRANCH   4  17
HETATM   17  C   UNL     1      -9.934   6.510  69.153  1.00  0.00    -0.163 A  
HETATM   18  C   UNL     1      -8.436   6.720  67.250  1.00  0.00    -0.120 A  
HETATM   19  C   UNL     1      -9.350   6.039  66.444  1.00  0.00    -0.154 A  
HETATM   20  C   UNL     1     -10.577   5.645  66.993  1.00  0.00    -0.358 A  
HETATM   21  C   UNL     1     -10.873   5.884  68.333  1.00  0.00    -0.322 A  
HETATM   22  C   UNL     1      -8.725   6.953  68.600  1.00  0.00    -0.122 A  
BRANCH  19  23
HETATM   23  O   UNL     1      -8.955   5.791  65.146  1.00  0.00    -0.080 OA 
BRANCH  23  24
HETATM   24  C   UNL     1      -7.928   6.678  64.689  1.00  0.00    -0.113 C  
BRANCH  24  25
HETATM   25  C   UNL     1      -7.872   6.800  63.162  1.00  0.00    -0.105 C  
BRANCH  25  26
HETATM   26  N   UNL     1      -7.502   5.512  62.527  1.00  0.00    -0.047 NA 
HETATM   27  C   UNL     1      -8.676   4.652  62.386  1.00  0.00    -0.118 C  
HETATM   28  C   UNL     1      -6.453   4.801  63.265  1.00  0.00    -0.026 C  
ENDBRANCH  25  26
ENDBRANCH  24  25
ENDBRANCH  23  24
ENDBRANCH  19  23
ENDBRANCH   4  17
TORSDOF 7
ENDMDL
MODEL      111
REMARK 921   NORMALIZED FREE ENERGY PREDICTED BY IDOCK:   -3.49 KCAL/MOL
REMARK 922        TOTAL FREE ENERGY PREDICTED BY IDOCK:   -6.90 KCAL/MOL
REMARK 923 INTER-LIGAND FREE ENERGY PREDICTED BY IDOCK:   -4.89 KCAL/MOL
REMARK 924 INTRA-LIGAND FREE ENERGY PREDICTED BY IDOCK:   -2.01 KCAL/MOL
REMARK 927      BINDING AFFINITY PREDICTED BY RF-SCORE:    0.00 PKD
ROOT
HETATM    1  C   UNL     1      -8.986  10.906  62.578  1.00  0.00    -0.360 C  
HETATM    2  C   UNL     1      -9.565  11.406  63.893  1.00  0.00    -0.238 C  
HETATM    3  C   UNL     1      -9.334  10.679  65.219  1.00  0.00    -0.256 C  
HETATM    4  C   UNL     1      -8.634   9.543  65.500  1.00  0.00    -0.163 C  
ENDROOT
BRANCH   3   5
HETATM    5  C   UNL     1     -10.016  11.447  66.309  1.00  0.00    -0.259 A  
HETATM    6  C   UNL     1      -9.553  12.722  66.661  1.00  0.00    -0.255 A  
HETATM    7  C   UNL     1     -11.159  10.940  66.943  1.00  0.00    -0.236 A  
HETATM    8  C   UNL     1     -11.828  11.697  67.909  1.00  0.00    -0.273 A  
HETATM    9  C   UNL     1     -10.226  13.480  67.622  1.00  0.00    -0.239 A  
HETATM   10  C   UNL     1     -11.365  12.970  68.243  1.00  0.00    -0.323 A  
ENDBRANCH   3   5
BRANCH   4  11
HETATM   11  C   UNL     1      -7.969   8.753  64.439  1.00  0.00    -0.144 A  
HETATM   12  C   UNL     1      -6.656   9.045  64.042  1.00  0.00    -0.087 A  
HETATM   13  C   UNL     1      -6.025   8.269  63.067  1.00  0.00    -0.077 A  
HETATM   14  C   UNL     1      -8.029   6.944  62.823  1.00  0.00    -0.093 A  
HETATM   15  C   UNL     1      -8.661   7.717  63.798  1.00  0.00     0.425 A  
HETATM   16  C   UNL     1      -6.709   7.212  62.466  1.00  0.00    -0.053 A  
ENDBRANCH   4  11
BRANCH   4  17
HETATM   17  C   UNL     1      -8.528   9.077  66.911  1.00  0.00    -0.120 A  
HETATM   18  C   UNL     1      -7.686   9.324  69.178  1.00  0.00    -0.078 A  
HETATM   19  C   UNL     1      -8.459   8.238  69.593  1.00  0.00    -0.125 A  
HETATM   20  C   UNL     1      -9.222   7.547  68.644  1.00  0.00    -0.144 A  
HETATM   21  C   UNL     1      -9.253   7.955  67.312  1.00  0.00    -0.167 A  
HETATM   22  C   UNL     1      -7.721   9.744  67.842  1.00  0.00    -0.087 A  
BRANCH  19  23
HETATM   23  O   UNL     1      -8.417   7.937  70.938  1.00  0.00    -0.121 OA 
BRANCH  23  24
HETATM   24  C   UNL     1      -9.111   8.888  71.752  1.00  0.00    -0.171 C  
BRANCH  24  25
HETATM   25  C   UNL     1     -10.256   8.269  72.562  1.00  0.00    -0.316 C  
BRANCH  25  26
HETATM   26  N   UNL     1     -11.441   8.002  71.712  1.00  0.00    -0.264 NA 
HETATM   27  C   UNL     1     -12.661   8.475  72.367  1.00  0.00    -0.348 C  
HETATM   28  C   UNL     1     -11.582   6.583  71.370  1.00  0.00    -0.318 C  
ENDBRANCH  25  26
ENDBRANCH  24  25
ENDBRANCH  23  24
ENDBRANCH  19  23
ENDBRANCH   4  17
TORSDOF 7
ENDMDL
MODEL      112
REMARK 921   NORMALIZED FREE ENERGY PREDICTED BY IDOCK:   -3.46 KCAL/MOL
REMARK 922        TOTAL FREE ENERGY PREDICTED BY IDOCK:   -6.87 KCAL/MOL
REMARK 923 INTER-LIGAND FREE ENERGY PREDICTED BY IDOCK:   -4.92 KCAL/MOL
REMARK 924 INTRA-LIGAND FREE ENERGY PREDICTED BY IDOCK:   -1.94 KCAL/MOL
REMARK 927      BINDING AFFINITY PREDICTED BY RF-SCORE:    0.00 PKD
ROOT
HETATM    1  C   UNL     1      -7.066  10.388  65.657  1.00  0.00    -0.142 C  
HETATM    2  C   UNL     1      -6.828   9.124  66.468  1.00  0.00    -0.080 C  
HETATM    3  C   UNL     1      -7.827   8.618  67.510  1.00  0.00    -0.102 C  
HETATM    4  C   UNL     1      -9.029   9.124  67.907  1.00  0.00    -0.131 C  
ENDROOT
BRANCH   3   5
HETATM    5  C   UNL     1      -7.299   7.346  68.099  1.00  0.00    -0.100 A  
HETATM    6  C   UNL     1      -6.721   7.354  69.376  1.00  0.00    -0.041 A  
HETATM    7  C   UNL     1      -7.432   6.127  67.419  1.00  0.00    -0.082 A  
HETATM    8  C   UNL     1      -6.999   4.936  68.011  1.00  0.00    -0.061 A  
HETATM    9  C   UNL     1      -6.295   6.162  69.968  1.00  0.00    -0.035 A  
HETATM   10  C   UNL     1      -6.436   4.954  69.287  1.00  0.00    -0.036 A  
ENDBRANCH   3   5
BRANCH   4  11
HETATM   11  C   UNL     1      -9.564  10.390  67.357  1.00  0.00    -0.178 A  
HETATM   12  C   UNL     1      -9.406  11.598  68.052  1.00  0.00    -0.178 A  
HETATM   13  C   UNL     1      -9.882  12.793  67.505  1.00  0.00    -0.211 A  
HETATM   14  C   UNL     1     -10.741  11.580  65.600  1.00  0.00    -0.323 A  
HETATM   15  C   UNL     1     -10.264  10.387  66.144  1.00  0.00    -0.288 A  
HETATM   16  C   UNL     1     -10.539  12.784  66.275  1.00  0.00    -0.275 A  
ENDBRANCH   4  11
BRANCH   4  17
HETATM   17  C   UNL     1      -9.835   8.389  68.922  1.00  0.00    -0.184 A  
HETATM   18  C   UNL     1     -11.274   6.539  69.567  1.00  0.00    -0.434 A  
HETATM   19  C   UNL     1     -11.236   6.960  70.897  1.00  0.00    -0.289 A  
HETATM   20  C   UNL     1     -10.535   8.130  71.217  1.00  0.00    -0.254 A  
HETATM   21  C   UNL     1      -9.846   8.845  70.240  1.00  0.00    -0.211 A  
HETATM   22  C   UNL     1     -10.574   7.249  68.583  1.00  0.00    -0.194 A  
BRANCH  19  23
HETATM   23  O   UNL     1     -11.895   6.164  71.810  1.00  0.00    -0.299 OA 
BRANCH  23  24
HETATM   24  C   UNL     1     -11.100   5.839  72.954  1.00  0.00    -0.281 C  
BRANCH  24  25
HETATM   25  C   UNL     1      -9.830   5.054  72.605  1.00  0.00    -0.159 C  
BRANCH  25  26
HETATM   26  N   UNL     1      -9.934   3.636  73.026  1.00  0.00    -0.135 NA 
HETATM   27  C   UNL     1     -10.061   2.762  71.861  1.00  0.00    -0.081 C  
HETATM   28  C   UNL     1     -11.054   3.402  73.945  1.00  0.00    -0.140 C  
ENDBRANCH  25  26
ENDBRANCH  24  25
ENDBRANCH  23  24
ENDBRANCH  19  23
ENDBRANCH   4  17
TORSDOF 7
ENDMDL
MODEL      113
REMARK 921   NORMALIZED FREE ENERGY PREDICTED BY IDOCK:   -3.40 KCAL/MOL
REMARK 922        TOTAL FREE ENERGY PREDICTED BY IDOCK:   -6.79 KCAL/MOL
REMARK 923 INTER-LIGAND FREE ENERGY PREDICTED BY IDOCK:   -4.49 KCAL/MOL
REMARK 924 INTRA-LIGAND FREE ENERGY PREDICTED BY IDOCK:   -2.30 KCAL/MOL
REMARK 927      BINDING AFFINITY PREDICTED BY RF-SCORE:    0.00 PKD
ROOT
HETATM    1  C   UNL     1      -8.891  11.377  68.768  1.00  0.00    -0.076 C  
HETATM    2  C   UNL     1      -8.543  10.733  67.435  1.00  0.00    -0.126 C  
HETATM    3  C   UNL     1      -8.710   9.235  67.179  1.00  0.00    -0.134 C  
HETATM    4  C   UNL     1      -9.163   8.239  67.994  1.00  0.00    -0.142 C  
ENDROOT
BRANCH   3   5
HETATM    5  C   UNL     1      -8.303   8.943  65.768  1.00  0.00    -0.139 A  
HETATM    6  C   UNL     1      -9.118   9.355  64.705  1.00  0.00    -0.228 A  
HETATM    7  C   UNL     1      -7.078   8.320  65.485  1.00  0.00    -0.067 A  
HETATM    8  C   UNL     1      -6.677   8.117  64.161  1.00  0.00    -0.066 A  
HETATM    9  C   UNL     1      -8.711   9.157  63.383  1.00  0.00    -0.147 A  
HETATM   10  C   UNL     1      -7.491   8.542  63.111  1.00  0.00    -0.108 A  
ENDBRANCH   3   5
BRANCH   4  11
HETATM   11  C   UNL     1      -9.553   8.496  69.399  1.00  0.00    -0.170 A  
HETATM   12  C   UNL     1     -10.864   8.874  69.724  1.00  0.00    -0.207 A  
HETATM   13  C   UNL     1     -11.229   9.076  71.056  1.00  0.00    -0.361 A  
HETATM   14  C   UNL     1      -8.967   8.596  71.752  1.00  0.00    -0.307 A  
HETATM   15  C   UNL     1      -8.600   8.391  70.421  1.00  0.00    -0.136 A  
HETATM   16  C   UNL     1     -10.283   8.927  72.070  1.00  0.00    -0.363 A  
ENDBRANCH   4  11
BRANCH   4  17
HETATM   17  C   UNL     1      -9.275   6.851  67.464  1.00  0.00    -0.124 A  
HETATM   18  C   UNL     1     -10.475   5.130  66.237  1.00  0.00    -0.341 A  
HETATM   19  C   UNL     1      -9.388   4.264  66.369  1.00  0.00    -0.164 A  
HETATM   20  C   UNL     1      -8.269   4.688  67.099  1.00  0.00    -0.105 A  
HETATM   21  C   UNL     1      -8.213   5.966  67.650  1.00  0.00    -0.105 A  
HETATM   22  C   UNL     1     -10.419   6.420  66.780  1.00  0.00    -0.304 A  
BRANCH  19  23
HETATM   23  O   UNL     1      -9.501   3.040  65.745  1.00  0.00    -0.120 OA 
BRANCH  23  24
HETATM   24  C   UNL     1      -9.762   3.144  64.341  1.00  0.00    -0.154 C  
BRANCH  24  25
HETATM   25  C   UNL     1      -8.601   2.647  63.473  1.00  0.00    -0.086 C  
BRANCH  25  26
HETATM   26  N   UNL     1      -7.869   3.775  62.846  1.00  0.00    -0.069 NA 
HETATM   27  C   UNL     1      -6.643   4.068  63.588  1.00  0.00    -0.038 C  
HETATM   28  C   UNL     1      -8.687   4.988  62.742  1.00  0.00    -0.102 C  
ENDBRANCH  25  26
ENDBRANCH  24  25
ENDBRANCH  23  24
ENDBRANCH  19  23
ENDBRANCH   4  17
TORSDOF 7
ENDMDL
MODEL      114
REMARK 921   NORMALIZED FREE ENERGY PREDICTED BY IDOCK:   -3.40 KCAL/MOL
REMARK 922        TOTAL FREE ENERGY PREDICTED BY IDOCK:   -6.78 KCAL/MOL
REMARK 923 INTER-LIGAND FREE ENERGY PREDICTED BY IDOCK:   -4.95 KCAL/MOL
REMARK 924 INTRA-LIGAND FREE ENERGY PREDICTED BY IDOCK:   -1.83 KCAL/MOL
REMARK 927      BINDING AFFINITY PREDICTED BY RF-SCORE:    0.00 PKD
ROOT
HETATM    1  C   UNL     1     -11.613  12.751  65.966  1.00  0.00    -0.432 C  
HETATM    2  C   UNL     1     -10.715  11.530  65.842  1.00  0.00    -0.325 C  
HETATM    3  C   UNL     1      -9.891  10.996  67.014  1.00  0.00    -0.211 C  
HETATM    4  C   UNL     1      -9.784  11.439  68.299  1.00  0.00    -0.202 C  
ENDROOT
BRANCH   3   5
HETATM    5  C   UNL     1      -9.147   9.779  66.558  1.00  0.00    -0.182 A  
HETATM    6  C   UNL     1      -7.901   9.915  65.930  1.00  0.00    -0.116 A  
HETATM    7  C   UNL     1      -9.646   8.493  66.808  1.00  0.00    -0.273 A  
HETATM    8  C   UNL     1      -8.907   7.363  66.440  1.00  0.00    -0.176 A  
HETATM    9  C   UNL     1      -7.162   8.786  65.570  1.00  0.00    -0.084 A  
HETATM   10  C   UNL     1      -7.663   7.511  65.827  1.00  0.00    -0.098 A  
ENDBRANCH   3   5
BRANCH   4  11
HETATM   11  C   UNL     1     -10.491  12.650  68.771  1.00  0.00    -0.167 A  
HETATM   12  C   UNL     1     -10.071  13.928  68.373  1.00  0.00    -0.237 A  
HETATM   13  C   UNL     1     -10.769  15.062  68.793  1.00  0.00    -0.241 A  
HETATM   14  C   UNL     1     -12.273  13.666  70.068  1.00  0.00    -0.395 A  
HETATM   15  C   UNL     1     -11.578  12.531  69.648  1.00  0.00    -0.323 A  
HETATM   16  C   UNL     1     -11.876  14.929  69.632  1.00  0.00    -0.356 A  
ENDBRANCH   4  11
BRANCH   4  17
HETATM   17  C   UNL     1      -8.934  10.686  69.265  1.00  0.00    -0.098 A  
HETATM   18  C   UNL     1      -8.604   8.871  70.847  1.00  0.00    -0.242 A  
HETATM   19  C   UNL     1      -7.258   9.217  70.979  1.00  0.00    -0.072 A  
HETATM   20  C   UNL     1      -6.776  10.335  70.287  1.00  0.00    -0.143 A  
HETATM   21  C   UNL     1      -7.605  11.071  69.442  1.00  0.00    -0.058 A  
HETATM   22  C   UNL     1      -9.439   9.600  69.992  1.00  0.00    -0.277 A  
BRANCH  19  23
HETATM   23  O   UNL     1      -6.494   8.403  71.787  1.00  0.00    -0.053 OA 
BRANCH  23  24
HETATM   24  C   UNL     1      -5.792   7.387  71.064  1.00  0.00    -0.035 C  
BRANCH  24  25
HETATM   25  C   UNL     1      -6.718   6.320  70.469  1.00  0.00    -0.053 C  
BRANCH  25  26
HETATM   26  N   UNL     1      -6.528   6.191  69.004  1.00  0.00    -0.041 NA 
HETATM   27  C   UNL     1      -6.543   4.784  68.606  1.00  0.00    -0.045 C  
HETATM   28  C   UNL     1      -5.289   6.824  68.539  1.00  0.00    -0.016 C  
ENDBRANCH  25  26
ENDBRANCH  24  25
ENDBRANCH  23  24
ENDBRANCH  19  23
ENDBRANCH   4  17
TORSDOF 7
ENDMDL
MODEL      115
REMARK 921   NORMALIZED FREE ENERGY PREDICTED BY IDOCK:   -3.40 KCAL/MOL
REMARK 922        TOTAL FREE ENERGY PREDICTED BY IDOCK:   -6.77 KCAL/MOL
REMARK 923 INTER-LIGAND FREE ENERGY PREDICTED BY IDOCK:   -4.72 KCAL/MOL
REMARK 924 INTRA-LIGAND FREE ENERGY PREDICTED BY IDOCK:   -2.05 KCAL/MOL
REMARK 927      BINDING AFFINITY PREDICTED BY RF-SCORE:    0.00 PKD
ROOT
HETATM    1  C   UNL     1     -11.196   8.483  72.258  1.00  0.00    -0.432 C  
HETATM    2  C   UNL     1     -11.046   9.488  71.127  1.00  0.00    -0.450 C  
HETATM    3  C   UNL     1     -10.265   9.176  69.850  1.00  0.00    -0.222 C  
HETATM    4  C   UNL     1      -9.597   8.048  69.470  1.00  0.00    -0.164 C  
ENDROOT
BRANCH   3   5
HETATM    5  C   UNL     1     -10.338  10.365  68.943  1.00  0.00    -0.227 A  
HETATM    6  C   UNL     1      -9.301  11.309  68.942  1.00  0.00    -0.084 A  
HETATM    7  C   UNL     1     -11.399  10.519  68.040  1.00  0.00    -0.319 A  
HETATM    8  C   UNL     1     -11.420  11.597  67.148  1.00  0.00    -0.344 A  
HETATM    9  C   UNL     1      -9.320  12.381  68.046  1.00  0.00    -0.204 A  
HETATM   10  C   UNL     1     -10.377  12.523  67.148  1.00  0.00    -0.230 A  
ENDBRANCH   3   5
BRANCH   4  11
HETATM   11  C   UNL     1      -9.492   6.867  70.355  1.00  0.00    -0.169 A  
HETATM   12  C   UNL     1      -8.458   6.766  71.298  1.00  0.00    -0.124 A  
HETATM   13  C   UNL     1      -8.390   5.664  72.154  1.00  0.00    -0.115 A  
HETATM   14  C   UNL     1     -10.343   4.717  71.093  1.00  0.00    -0.188 A  
HETATM   15  C   UNL     1     -10.414   5.818  70.238  1.00  0.00    -0.349 A  
HETATM   16  C   UNL     1      -9.339   4.646  72.058  1.00  0.00    -0.180 A  
ENDBRANCH   4  11
BRANCH   4  17
HETATM   17  C   UNL     1      -8.956   7.994  68.126  1.00  0.00    -0.135 A  
HETATM   18  C   UNL     1      -7.023   8.261  66.676  1.00  0.00    -0.069 A  
HETATM   19  C   UNL     1      -7.750   7.753  65.598  1.00  0.00    -0.101 A  
HETATM   20  C   UNL     1      -9.097   7.419  65.787  1.00  0.00    -0.006 A  
HETATM   21  C   UNL     1      -9.701   7.545  67.036  1.00  0.00    -0.257 A  
HETATM   22  C   UNL     1      -7.622   8.379  67.937  1.00  0.00    -0.099 A  
BRANCH  19  23
HETATM   23  O   UNL     1      -7.062   7.606  64.412  1.00  0.00    -0.061 OA 
BRANCH  23  24
HETATM   24  C   UNL     1      -5.868   6.827  64.544  1.00  0.00    -0.031 C  
BRANCH  24  25
HETATM   25  C   UNL     1      -6.126   5.413  65.077  1.00  0.00    -0.026 C  
BRANCH  25  26
HETATM   26  N   UNL     1      -6.436   4.466  63.978  1.00  0.00    -0.037 NA 
HETATM   27  C   UNL     1      -5.825   4.912  62.727  1.00  0.00    -0.014 C  
HETATM   28  C   UNL     1      -7.879   4.280  63.786  1.00  0.00    -0.087 C  
ENDBRANCH  25  26
ENDBRANCH  24  25
ENDBRANCH  23  24
ENDBRANCH  19  23
ENDBRANCH   4  17
TORSDOF 7
ENDMDL
MODEL      116
REMARK 921   NORMALIZED FREE ENERGY PREDICTED BY IDOCK:   -3.35 KCAL/MOL
REMARK 922        TOTAL FREE ENERGY PREDICTED BY IDOCK:   -6.71 KCAL/MOL
REMARK 923 INTER-LIGAND FREE ENERGY PREDICTED BY IDOCK:   -5.02 KCAL/MOL
REMARK 924 INTRA-LIGAND FREE ENERGY PREDICTED BY IDOCK:   -1.69 KCAL/MOL
REMARK 927      BINDING AFFINITY PREDICTED BY RF-SCORE:    0.00 PKD
ROOT
HETATM    1  C   UNL     1      -8.658  14.577  68.460  1.00  0.00    -0.175 C  
HETATM    2  C   UNL     1      -9.515  14.071  67.310  1.00  0.00    -0.231 C  
HETATM    3  C   UNL     1      -9.277  12.715  66.644  1.00  0.00    -0.218 C  
HETATM    4  C   UNL     1      -8.346  11.751  66.900  1.00  0.00    -0.170 C  
ENDROOT
BRANCH   3   5
HETATM    5  C   UNL     1     -10.307  12.521  65.575  1.00  0.00    -0.303 A  
HETATM    6  C   UNL     1      -9.912  12.418  64.234  1.00  0.00    -0.232 A  
HETATM    7  C   UNL     1     -11.663  12.373  65.898  1.00  0.00    -0.476 A  
HETATM    8  C   UNL     1     -12.606  12.122  64.896  1.00  0.00    -0.084 A  
HETATM    9  C   UNL     1     -10.855  12.160  63.235  1.00  0.00    -0.381 A  
HETATM   10  C   UNL     1     -12.200  12.009  63.567  1.00  0.00    -0.653 A  
ENDBRANCH   3   5
BRANCH   4  11
HETATM   11  C   UNL     1      -7.304  11.926  67.936  1.00  0.00    -0.104 A  
HETATM   12  C   UNL     1      -7.444  11.337  69.201  1.00  0.00    -0.084 A  
HETATM   13  C   UNL     1      -6.436  11.478  70.159  1.00  0.00    -0.004 A  
HETATM   14  C   UNL     1      -5.170  12.851  68.628  1.00  0.00    -0.058 A  
HETATM   15  C   UNL     1      -6.174  12.711  67.669  1.00  0.00    -0.148 A  
HETATM   16  C   UNL     1      -5.296  12.225  69.867  1.00  0.00    -0.091 A  
ENDBRANCH   4  11
BRANCH   4  17
HETATM   17  C   UNL     1      -8.373  10.482  66.120  1.00  0.00    -0.155 A  
HETATM   18  C   UNL     1      -7.474   9.020  64.398  1.00  0.00    -0.105 A  
HETATM   19  C   UNL     1      -8.378   8.020  64.762  1.00  0.00    -0.077 A  
HETATM   20  C   UNL     1      -9.310   8.285  65.773  1.00  0.00    -0.101 A  
HETATM   21  C   UNL     1      -9.316   9.506  66.443  1.00  0.00    -0.231 A  
HETATM   22  C   UNL     1      -7.469  10.246  65.076  1.00  0.00    -0.120 A  
BRANCH  19  23
HETATM   23  O   UNL     1      -8.266   6.821  64.090  1.00  0.00    -0.071 OA 
BRANCH  23  24
HETATM   24  C   UNL     1      -7.937   5.722  64.946  1.00  0.00    -0.123 C  
BRANCH  24  25
HETATM   25  C   UNL     1      -8.244   4.357  64.320  1.00  0.00    -0.101 C  
BRANCH  25  26
HETATM   26  N   UNL     1      -9.515   3.795  64.836  1.00  0.00    -0.157 NA 
HETATM   27  C   UNL     1     -10.611   4.062  63.906  1.00  0.00    -0.144 C  
HETATM   28  C   UNL     1      -9.858   4.309  66.167  1.00  0.00    -0.221 C  
ENDBRANCH  25  26
ENDBRANCH  24  25
ENDBRANCH  23  24
ENDBRANCH  19  23
ENDBRANCH   4  17
TORSDOF 7
ENDMDL
MODEL      117
REMARK 921   NORMALIZED FREE ENERGY PREDICTED BY IDOCK:   -3.28 KCAL/MOL
REMARK 922        TOTAL FREE ENERGY PREDICTED BY IDOCK:   -6.60 KCAL/MOL
REMARK 923 INTER-LIGAND FREE ENERGY PREDICTED BY IDOCK:   -5.02 KCAL/MOL
REMARK 924 INTRA-LIGAND FREE ENERGY PREDICTED BY IDOCK:   -1.58 KCAL/MOL
REMARK 927      BINDING AFFINITY PREDICTED BY RF-SCORE:    0.00 PKD
ROOT
HETATM    1  C   UNL     1      -9.171  10.678  62.620  1.00  0.00    -0.331 C  
HETATM    2  C   UNL     1      -9.769  11.498  63.753  1.00  0.00    -0.298 C  
HETATM    3  C   UNL     1      -9.550  11.145  65.225  1.00  0.00    -0.268 C  
HETATM    4  C   UNL     1      -8.844  10.129  65.799  1.00  0.00    -0.177 C  
ENDROOT
BRANCH   3   5
HETATM    5  C   UNL     1     -10.250  12.164  66.069  1.00  0.00    -0.265 A  
HETATM    6  C   UNL     1      -9.568  13.315  66.487  1.00  0.00    -0.267 A  
HETATM    7  C   UNL     1     -11.606  12.020  66.396  1.00  0.00    -0.381 A  
HETATM    8  C   UNL     1     -12.267  13.014  67.126  1.00  0.00    -0.200 A  
HETATM    9  C   UNL     1     -10.232  14.309  67.210  1.00  0.00    -0.252 A  
HETATM   10  C   UNL     1     -11.581  14.160  67.526  1.00  0.00    -0.396 A  
ENDBRANCH   3   5
BRANCH   4  11
HETATM   11  C   UNL     1      -8.160   9.096  64.988  1.00  0.00    -0.130 A  
HETATM   12  C   UNL     1      -7.056   9.425  64.189  1.00  0.00    -0.102 A  
HETATM   13  C   UNL     1      -6.395   8.436  63.458  1.00  0.00    -0.080 A  
HETATM   14  C   UNL     1      -7.972   6.790  64.257  1.00  0.00    -0.087 A  
HETATM   15  C   UNL     1      -8.633   7.777  64.990  1.00  0.00     0.015 A  
HETATM   16  C   UNL     1      -6.848   7.117  63.501  1.00  0.00    -0.052 A  
ENDBRANCH   4  11
BRANCH   4  17
HETATM   17  C   UNL     1      -8.752  10.049  67.284  1.00  0.00    -0.127 A  
HETATM   18  C   UNL     1      -9.670   9.419  69.445  1.00  0.00    -0.181 A  
HETATM   19  C   UNL     1      -8.482   9.798  70.071  1.00  0.00    -0.206 A  
HETATM   20  C   UNL     1      -7.454  10.351  69.296  1.00  0.00    -0.120 A  
HETATM   21  C   UNL     1      -7.587  10.484  67.916  1.00  0.00    -0.092 A  
HETATM   22  C   UNL     1      -9.805   9.541  68.056  1.00  0.00    -0.181 A  
BRANCH  19  23
HETATM   23  O   UNL     1      -8.410   9.578  71.430  1.00  0.00    -0.225 OA 
BRANCH  23  24
HETATM   24  C   UNL     1      -7.827   8.316  71.769  1.00  0.00    -0.118 C  
BRANCH  24  25
HETATM   25  C   UNL     1      -8.854   7.181  71.858  1.00  0.00    -0.123 C  
BRANCH  25  26
HETATM   26  N   UNL     1      -8.465   6.029  71.010  1.00  0.00    -0.123 NA 
HETATM   27  C   UNL     1      -7.296   6.359  70.196  1.00  0.00    -0.086 C  
HETATM   28  C   UNL     1      -9.559   5.573  70.143  1.00  0.00    -0.170 C  
ENDBRANCH  25  26
ENDBRANCH  24  25
ENDBRANCH  23  24
ENDBRANCH  19  23
ENDBRANCH   4  17
TORSDOF 7
ENDMDL
MODEL      118
REMARK 921   NORMALIZED FREE ENERGY PREDICTED BY IDOCK:   -3.18 KCAL/MOL
REMARK 922        TOTAL FREE ENERGY PREDICTED BY IDOCK:   -6.46 KCAL/MOL
REMARK 923 INTER-LIGAND FREE ENERGY PREDICTED BY IDOCK:   -4.21 KCAL/MOL
REMARK 924 INTRA-LIGAND FREE ENERGY PREDICTED BY IDOCK:   -2.26 KCAL/MOL
REMARK 927      BINDING AFFINITY PREDICTED BY RF-SCORE:    0.00 PKD
ROOT
HETATM    1  C   UNL     1     -10.251   4.524  66.668  1.00  0.00    -0.200 C  
HETATM    2  C   UNL     1     -10.012   5.927  66.130  1.00  0.00    -0.039 C  
HETATM    3  C   UNL     1      -9.205   6.973  66.900  1.00  0.00    -0.174 C  
HETATM    4  C   UNL     1      -8.580   6.900  68.110  1.00  0.00    -0.123 C  
ENDROOT
BRANCH   3   5
HETATM    5  C   UNL     1      -9.142   8.225  66.081  1.00  0.00    -0.238 A  
HETATM    6  C   UNL     1      -8.113   8.398  65.145  1.00  0.00    -0.147 A  
HETATM    7  C   UNL     1     -10.139   9.205  66.185  1.00  0.00    -0.278 A  
HETATM    8  C   UNL     1     -10.108  10.337  65.363  1.00  0.00    -0.354 A  
HETATM    9  C   UNL     1      -8.088   9.526  64.320  1.00  0.00    -0.142 A  
HETATM   10  C   UNL     1      -9.085  10.493  64.427  1.00  0.00    -0.254 A  
ENDBRANCH   3   5
BRANCH   4  11
HETATM   11  C   UNL     1      -8.643   5.682  68.950  1.00  0.00    -0.101 A  
HETATM   12  C   UNL     1      -7.661   4.687  68.847  1.00  0.00    -0.064 A  
HETATM   13  C   UNL     1      -7.710   3.560  69.671  1.00  0.00    -0.051 A  
HETATM   14  C   UNL     1      -9.758   4.373  70.662  1.00  0.00    -0.283 A  
HETATM   15  C   UNL     1      -9.710   5.500  69.841  1.00  0.00    -0.233 A  
HETATM   16  C   UNL     1      -8.753   3.410  70.586  1.00  0.00    -0.128 A  
ENDBRANCH   4  11
BRANCH   4  17
HETATM   17  C   UNL     1      -7.807   8.072  68.609  1.00  0.00    -0.118 A  
HETATM   18  C   UNL     1      -5.741   9.340  68.791  1.00  0.00    -0.040 A  
HETATM   19  C   UNL     1      -6.417  10.364  69.457  1.00  0.00    -0.065 A  
HETATM   20  C   UNL     1      -7.780  10.204  69.739  1.00  0.00    -0.176 A  
HETATM   21  C   UNL     1      -8.471   9.066  69.328  1.00  0.00    -0.128 A  
HETATM   22  C   UNL     1      -6.433   8.199  68.366  1.00  0.00    -0.058 A  
BRANCH  19  23
HETATM   23  O   UNL     1      -5.674  11.480  69.777  1.00  0.00    -0.070 OA 
BRANCH  23  24
HETATM   24  C   UNL     1      -6.359  12.709  69.517  1.00  0.00    -0.111 C  
BRANCH  24  25
HETATM   25  C   UNL     1      -6.309  13.128  68.043  1.00  0.00    -0.127 C  
BRANCH  25  26
HETATM   26  N   UNL     1      -7.558  13.810  67.628  1.00  0.00    -0.166 NA 
HETATM   27  C   UNL     1      -7.952  14.811  68.619  1.00  0.00    -0.143 C  
HETATM   28  C   UNL     1      -8.665  12.872  67.406  1.00  0.00    -0.197 C  
ENDBRANCH  25  26
ENDBRANCH  24  25
ENDBRANCH  23  24
ENDBRANCH  19  23
ENDBRANCH   4  17
TORSDOF 7
ENDMDL
MODEL      119
REMARK 921   NORMALIZED FREE ENERGY PREDICTED BY IDOCK:   -3.13 KCAL/MOL
REMARK 922        TOTAL FREE ENERGY PREDICTED BY IDOCK:   -6.41 KCAL/MOL
REMARK 923 INTER-LIGAND FREE ENERGY PREDICTED BY IDOCK:   -5.37 KCAL/MOL
REMARK 924 INTRA-LIGAND FREE ENERGY PREDICTED BY IDOCK:   -1.03 KCAL/MOL
REMARK 927      BINDING AFFINITY PREDICTED BY RF-SCORE:    0.00 PKD
ROOT
HETATM    1  C   UNL     1      -7.766   7.470  71.622  1.00  0.00    -0.085 C  
HETATM    2  C   UNL     1      -9.105   8.189  71.681  1.00  0.00    -0.214 C  
HETATM    3  C   UNL     1      -9.615   9.066  70.536  1.00  0.00    -0.264 C  
HETATM    4  C   UNL     1      -9.053   9.370  69.331  1.00  0.00    -0.162 C  
ENDROOT
BRANCH   3   5
HETATM    5  C   UNL     1     -10.965   9.597  70.907  1.00  0.00    -0.412 A  
HETATM    6  C   UNL     1     -11.941   8.731  71.421  1.00  0.00    -0.367 A  
HETATM    7  C   UNL     1     -11.252  10.966  70.813  1.00  0.00     0.225 A  
HETATM    8  C   UNL     1     -12.493  11.459  71.230  1.00  0.00    -0.423 A  
HETATM    9  C   UNL     1     -13.177   9.227  71.843  1.00  0.00    -0.493 A  
HETATM   10  C   UNL     1     -13.452  10.590  71.750  1.00  0.00    -0.345 A  
ENDBRANCH   3   5
BRANCH   4  11
HETATM   11  C   UNL     1      -7.711   8.876  68.947  1.00  0.00    -0.095 A  
HETATM   12  C   UNL     1      -7.567   7.711  68.180  1.00  0.00    -0.114 A  
HETATM   13  C   UNL     1      -6.298   7.275  67.792  1.00  0.00    -0.048 A  
HETATM   14  C   UNL     1      -5.297   9.120  68.989  1.00  0.00    -0.037 A  
HETATM   15  C   UNL     1      -6.564   9.558  69.376  1.00  0.00    -0.044 A  
HETATM   16  C   UNL     1      -5.165   7.986  68.188  1.00  0.00    -0.032 A  
ENDBRANCH   4  11
BRANCH   4  17
HETATM   17  C   UNL     1      -9.804  10.221  68.366  1.00  0.00    -0.168 A  
HETATM   18  C   UNL     1     -11.472  10.499  66.619  1.00  0.00     0.627 A  
HETATM   19  C   UNL     1     -11.290  11.882  66.653  1.00  0.00    -0.337 A  
HETATM   20  C   UNL     1     -10.322  12.418  67.511  1.00  0.00    -0.223 A  
HETATM   21  C   UNL     1      -9.578  11.598  68.356  1.00  0.00    -0.195 A  
HETATM   22  C   UNL     1     -10.733   9.670  67.474  1.00  0.00    -0.321 A  
BRANCH  19  23
HETATM   23  O   UNL     1     -12.108  12.626  65.828  1.00  0.00    -0.455 OA 
BRANCH  23  24
HETATM   24  C   UNL     1     -11.384  13.484  64.940  1.00  0.00    -0.334 C  
BRANCH  24  25
HETATM   25  C   UNL     1     -11.536  14.971  65.281  1.00  0.00    -0.308 C  
BRANCH  25  26
HETATM   26  N   UNL     1     -10.566  15.392  66.320  1.00  0.00    -0.302 NA 
HETATM   27  C   UNL     1     -11.264  15.892  67.504  1.00  0.00    -0.171 C  
HETATM   28  C   UNL     1      -9.625  16.408  65.834  1.00  0.00    -0.274 C  
ENDBRANCH  25  26
ENDBRANCH  24  25
ENDBRANCH  23  24
ENDBRANCH  19  23
ENDBRANCH   4  17
TORSDOF 7
ENDMDL
MODEL      120
REMARK 921   NORMALIZED FREE ENERGY PREDICTED BY IDOCK:   -3.12 KCAL/MOL
REMARK 922        TOTAL FREE ENERGY PREDICTED BY IDOCK:   -6.38 KCAL/MOL
REMARK 923 INTER-LIGAND FREE ENERGY PREDICTED BY IDOCK:   -5.15 KCAL/MOL
REMARK 924 INTRA-LIGAND FREE ENERGY PREDICTED BY IDOCK:   -1.24 KCAL/MOL
REMARK 927      BINDING AFFINITY PREDICTED BY RF-SCORE:    0.00 PKD
ROOT
HETATM    1  C   UNL     1     -10.862  10.051  66.579  1.00  0.00    -0.013 C  
HETATM    2  C   UNL     1      -9.525  10.170  67.294  1.00  0.00    -0.178 C  
HETATM    3  C   UNL     1      -8.849  11.519  67.548  1.00  0.00    -0.155 C  
HETATM    4  C   UNL     1      -9.244  12.785  67.230  1.00  0.00    -0.203 C  
ENDROOT
BRANCH   3   5
HETATM    5  C   UNL     1      -7.571  11.279  68.291  1.00  0.00    -0.114 A  
HETATM    6  C   UNL     1      -7.607  10.867  69.630  1.00  0.00     0.012 A  
HETATM    7  C   UNL     1      -6.330  11.395  67.648  1.00  0.00    -0.062 A  
HETATM    8  C   UNL     1      -5.147  11.099  68.333  1.00  0.00    -0.040 A  
HETATM    9  C   UNL     1      -6.424  10.566  70.311  1.00  0.00    -0.140 A  
HETATM   10  C   UNL     1      -5.196  10.679  69.662  1.00  0.00    -0.038 A  
ENDBRANCH   3   5
BRANCH   4  11
HETATM   11  C   UNL     1     -10.491  13.049  66.478  1.00  0.00    -0.284 A  
HETATM   12  C   UNL     1     -10.581  12.752  65.110  1.00  0.00    -0.324 A  
HETATM   13  C   UNL     1     -11.775  12.970  64.419  1.00  0.00    -0.426 A  
HETATM   14  C   UNL     1     -12.782  13.848  66.432  1.00  0.00    -0.170 A  
HETATM   15  C   UNL     1     -11.590  13.629  67.125  1.00  0.00    -0.392 A  
HETATM   16  C   UNL     1     -12.878  13.508  65.083  1.00  0.00    -0.381 A  
ENDBRANCH   4  11
BRANCH   4  17
HETATM   17  C   UNL     1      -8.404  13.942  67.650  1.00  0.00    -0.183 A  
HETATM   18  C   UNL     1      -7.080  15.913  67.129  1.00  0.00    -0.240 A  
HETATM   19  C   UNL     1      -6.933  16.186  68.490  1.00  0.00    -0.137 A  
HETATM   20  C   UNL     1      -7.484  15.297  69.422  1.00  0.00    -0.212 A  
HETATM   21  C   UNL     1      -8.206  14.179  69.010  1.00  0.00     0.070 A  
HETATM   22  C   UNL     1      -7.814  14.796  66.709  1.00  0.00     0.218 A  
BRANCH  19  23
HETATM   23  O   UNL     1      -6.255  17.342  68.812  1.00  0.00    -0.168 OA 
BRANCH  23  24
HETATM   24  C   UNL     1      -6.863  18.522  68.276  1.00  0.00    -0.235 C  
BRANCH  24  25
HETATM   25  C   UNL     1      -8.394  18.499  68.348  1.00  0.00    -0.332 C  
BRANCH  25  26
HETATM   26  N   UNL     1      -9.004  19.172  67.176  1.00  0.00    -0.283 NA 
HETATM   27  C   UNL     1      -8.007  19.974  66.467  1.00  0.00    -0.313 C  
HETATM   28  C   UNL     1     -10.148  20.014  67.542  1.00  0.00    -0.425 C  
ENDBRANCH  25  26
ENDBRANCH  24  25
ENDBRANCH  23  24
ENDBRANCH  19  23
ENDBRANCH   4  17
TORSDOF 7
ENDMDL
MODEL      121
REMARK 921   NORMALIZED FREE ENERGY PREDICTED BY IDOCK:   -3.11 KCAL/MOL
REMARK 922        TOTAL FREE ENERGY PREDICTED BY IDOCK:   -6.38 KCAL/MOL
REMARK 923 INTER-LIGAND FREE ENERGY PREDICTED BY IDOCK:   -4.66 KCAL/MOL
REMARK 924 INTRA-LIGAND FREE ENERGY PREDICTED BY IDOCK:   -1.72 KCAL/MOL
REMARK 927      BINDING AFFINITY PREDICTED BY RF-SCORE:    0.00 PKD
ROOT
HETATM    1  C   UNL     1     -11.642  13.582  65.855  1.00  0.00    -0.359 C  
HETATM    2  C   UNL     1     -11.227  12.119  65.836  1.00  0.00    -0.384 C  
HETATM    3  C   UNL     1     -10.074  11.583  66.687  1.00  0.00    -0.242 C  
HETATM    4  C   UNL     1      -9.246  12.220  67.564  1.00  0.00    -0.181 C  
ENDROOT
BRANCH   3   5
HETATM    5  C   UNL     1      -9.951  10.110  66.449  1.00  0.00    -0.295 A  
HETATM    6  C   UNL     1      -9.076   9.631  65.464  1.00  0.00    -0.252 A  
HETATM    7  C   UNL     1     -10.649   9.190  67.244  1.00  0.00    -0.303 A  
HETATM    8  C   UNL     1     -10.472   7.815  67.058  1.00  0.00    -0.419 A  
HETATM    9  C   UNL     1      -8.895   8.257  65.285  1.00  0.00    -0.074 A  
HETATM   10  C   UNL     1      -9.589   7.350  66.083  1.00  0.00    -0.032 A  
ENDBRANCH   3   5
BRANCH   4  11
HETATM   11  C   UNL     1      -9.333  13.678  67.802  1.00  0.00    -0.218 A  
HETATM   12  C   UNL     1     -10.171  14.195  68.800  1.00  0.00    -0.216 A  
HETATM   13  C   UNL     1     -10.216  15.570  69.041  1.00  0.00    -0.229 A  
HETATM   14  C   UNL     1      -8.641  15.937  67.247  1.00  0.00    -0.205 A  
HETATM   15  C   UNL     1      -8.593  14.563  67.007  1.00  0.00    -0.241 A  
HETATM   16  C   UNL     1      -9.443  16.439  68.272  1.00  0.00    -0.217 A  
ENDBRANCH   4  11
BRANCH   4  17
HETATM   17  C   UNL     1      -8.225  11.433  68.311  1.00  0.00    -0.150 A  
HETATM   18  C   UNL     1      -7.598   9.899  70.090  1.00  0.00    -0.185 A  
HETATM   19  C   UNL     1      -6.288   9.863  69.610  1.00  0.00    -0.049 A  
HETATM   20  C   UNL     1      -5.947  10.659  68.509  1.00  0.00    -0.039 A  
HETATM   21  C   UNL     1      -6.902  11.445  67.867  1.00  0.00    -0.072 A  
HETATM   22  C   UNL     1      -8.564  10.679  69.442  1.00  0.00    -0.046 A  
BRANCH  19  23
HETATM   23  O   UNL     1      -5.420   9.015  70.265  1.00  0.00    -0.027 OA 
BRANCH  23  24
HETATM   24  C   UNL     1      -5.217   7.775  69.581  1.00  0.00    -0.023 C  
BRANCH  24  25
HETATM   25  C   UNL     1      -6.525   7.095  69.160  1.00  0.00    -0.036 C  
BRANCH  25  26
HETATM   26  N   UNL     1      -6.549   5.667  69.559  1.00  0.00    -0.048 NA 
HETATM   27  C   UNL     1      -7.614   4.954  68.855  1.00  0.00    -0.069 C  
HETATM   28  C   UNL     1      -6.707   5.490  71.007  1.00  0.00    -0.045 C  
ENDBRANCH  25  26
ENDBRANCH  24  25
ENDBRANCH  23  24
ENDBRANCH  19  23
ENDBRANCH   4  17
TORSDOF 7
ENDMDL
MODEL      122
REMARK 921   NORMALIZED FREE ENERGY PREDICTED BY IDOCK:   -3.02 KCAL/MOL
REMARK 922        TOTAL FREE ENERGY PREDICTED BY IDOCK:   -6.24 KCAL/MOL
REMARK 923 INTER-LIGAND FREE ENERGY PREDICTED BY IDOCK:   -4.46 KCAL/MOL
REMARK 924 INTRA-LIGAND FREE ENERGY PREDICTED BY IDOCK:   -1.78 KCAL/MOL
REMARK 927      BINDING AFFINITY PREDICTED BY RF-SCORE:    0.00 PKD
ROOT
HETATM    1  C   UNL     1      -9.027  11.005  62.574  1.00  0.00    -0.366 C  
HETATM    2  C   UNL     1      -9.686  11.551  63.830  1.00  0.00    -0.298 C  
HETATM    3  C   UNL     1      -9.320  11.056  65.230  1.00  0.00    -0.245 C  
HETATM    4  C   UNL     1      -8.416  10.118  65.632  1.00  0.00    -0.159 C  
ENDROOT
BRANCH   3   5
HETATM    5  C   UNL     1     -10.133  11.816  66.232  1.00  0.00    -0.248 A  
HETATM    6  C   UNL     1      -9.969  13.202  66.360  1.00  0.00    -0.282 A  
HETATM    7  C   UNL     1     -11.110  11.173  67.005  1.00  0.00    -0.339 A  
HETATM    8  C   UNL     1     -11.911  11.905  67.887  1.00  0.00    -0.308 A  
HETATM    9  C   UNL     1     -10.775  13.934  67.236  1.00  0.00    -0.286 A  
HETATM   10  C   UNL     1     -11.747  13.286  67.997  1.00  0.00    -0.394 A  
ENDBRANCH   3   5
BRANCH   4  11
HETATM   11  C   UNL     1      -7.615   9.337  64.662  1.00  0.00    -0.106 A  
HETATM   12  C   UNL     1      -8.071   8.100  64.186  1.00  0.00    -0.128 A  
HETATM   13  C   UNL     1      -7.325   7.390  63.242  1.00  0.00    -0.086 A  
HETATM   14  C   UNL     1      -5.627   9.108  63.289  1.00  0.00    -0.068 A  
HETATM   15  C   UNL     1      -6.372   9.819  64.231  1.00  0.00    -0.117 A  
HETATM   16  C   UNL     1      -6.109   7.900  62.787  1.00  0.00    -0.072 A  
ENDBRANCH   4  11
BRANCH   4  17
HETATM   17  C   UNL     1      -8.220   9.865  67.088  1.00  0.00    -0.121 A  
HETATM   18  C   UNL     1      -8.561   8.514  69.080  1.00  0.00    -0.133 A  
HETATM   19  C   UNL     1      -7.719   9.357  69.807  1.00  0.00    -0.110 A  
HETATM   20  C   UNL     1      -7.175  10.482  69.173  1.00  0.00    -0.099 A  
HETATM   21  C   UNL     1      -7.428  10.742  67.828  1.00  0.00    -0.094 A  
HETATM   22  C   UNL     1      -8.810   8.765  67.725  1.00  0.00    -0.137 A  
BRANCH  19  23
HETATM   23  O   UNL     1      -7.474   8.997  71.115  1.00  0.00    -0.108 OA 
BRANCH  23  24
HETATM   24  C   UNL     1      -6.411   8.047  71.250  1.00  0.00    -0.038 C  
BRANCH  24  25
HETATM   25  C   UNL     1      -5.275   8.538  72.154  1.00  0.00    -0.039 C  
BRANCH  25  26
HETATM   26  N   UNL     1      -5.784   8.990  73.472  1.00  0.00    -0.199 NA 
HETATM   27  C   UNL     1      -5.246  10.307  73.807  1.00  0.00     0.196 C  
HETATM   28  C   UNL     1      -5.479   8.041  74.549  1.00  0.00    -0.074 C  
ENDBRANCH  25  26
ENDBRANCH  24  25
ENDBRANCH  23  24
ENDBRANCH  19  23
ENDBRANCH   4  17
TORSDOF 7
ENDMDL
MODEL      123
REMARK 921   NORMALIZED FREE ENERGY PREDICTED BY IDOCK:   -3.00 KCAL/MOL
REMARK 922        TOTAL FREE ENERGY PREDICTED BY IDOCK:   -6.22 KCAL/MOL
REMARK 923 INTER-LIGAND FREE ENERGY PREDICTED BY IDOCK:   -6.11 KCAL/MOL
REMARK 924 INTRA-LIGAND FREE ENERGY PREDICTED BY IDOCK:   -0.11 KCAL/MOL
REMARK 927      BINDING AFFINITY PREDICTED BY RF-SCORE:    0.00 PKD
ROOT
HETATM    1  C   UNL     1     -14.244   9.162  71.767  1.00  0.00    -0.248 C  
HETATM    2  C   UNL     1     -13.297   7.999  71.516  1.00  0.00    -0.324 C  
HETATM    3  C   UNL     1     -11.858   8.202  71.039  1.00  0.00    -0.279 C  
HETATM    4  C   UNL     1     -11.167   9.345  70.761  1.00  0.00    -0.367 C  
ENDROOT
BRANCH   3   5
HETATM    5  C   UNL     1     -11.202   6.861  70.918  1.00  0.00    -0.332 A  
HETATM    6  C   UNL     1     -10.951   6.099  72.068  1.00  0.00    -0.305 A  
HETATM    7  C   UNL     1     -10.892   6.321  69.663  1.00  0.00    -0.403 A  
HETATM    8  C   UNL     1     -10.344   5.038  69.560  1.00  0.00    -0.231 A  
HETATM    9  C   UNL     1     -10.411   4.815  71.963  1.00  0.00    -0.247 A  
HETATM   10  C   UNL     1     -10.110   4.284  70.710  1.00  0.00    -0.154 A  
ENDBRANCH   3   5
BRANCH   4  11
HETATM   11  C   UNL     1     -11.797  10.681  70.851  1.00  0.00    -0.433 A  
HETATM   12  C   UNL     1     -12.614  11.018  71.940  1.00  0.00    -0.189 A  
HETATM   13  C   UNL     1     -13.173  12.294  72.033  1.00  0.00    -0.508 A  
HETATM   14  C   UNL     1     -12.166  12.892  69.921  1.00  0.00    -0.258 A  
HETATM   15  C   UNL     1     -11.605  11.617  69.826  1.00  0.00    -0.389 A  
HETATM   16  C   UNL     1     -12.940  13.234  71.029  1.00  0.00    -0.233 A  
ENDBRANCH   4  11
BRANCH   4  17
HETATM   17  C   UNL     1      -9.736   9.255  70.356  1.00  0.00    -0.293 A  
HETATM   18  C   UNL     1      -7.396   8.851  70.877  1.00  0.00    -0.100 A  
HETATM   19  C   UNL     1      -7.065   8.969  69.526  1.00  0.00    -0.059 A  
HETATM   20  C   UNL     1      -8.074   9.283  68.606  1.00  0.00    -0.105 A  
HETATM   21  C   UNL     1      -9.397   9.434  69.015  1.00  0.00    -0.153 A  
HETATM   22  C   UNL     1      -8.727   8.991  71.291  1.00  0.00    -0.240 A  
BRANCH  19  23
HETATM   23  O   UNL     1      -5.744   8.747  69.199  1.00  0.00    -0.035 OA 
BRANCH  23  24
HETATM   24  C   UNL     1      -5.578   7.832  68.110  1.00  0.00    -0.032 C  
BRANCH  24  25
HETATM   25  C   UNL     1      -5.480   6.370  68.561  1.00  0.00    -0.011 C  
BRANCH  25  26
HETATM   26  N   UNL     1      -6.810   5.713  68.568  1.00  0.00    -0.057 NA 
HETATM   27  C   UNL     1      -6.683   4.299  68.920  1.00  0.00    -0.046 C  
HETATM   28  C   UNL     1      -7.509   5.844  67.285  1.00  0.00    -0.081 C  
ENDBRANCH  25  26
ENDBRANCH  24  25
ENDBRANCH  23  24
ENDBRANCH  19  23
ENDBRANCH   4  17
TORSDOF 7
ENDMDL
MODEL      124
REMARK 921   NORMALIZED FREE ENERGY PREDICTED BY IDOCK:   -2.99 KCAL/MOL
REMARK 922        TOTAL FREE ENERGY PREDICTED BY IDOCK:   -6.21 KCAL/MOL
REMARK 923 INTER-LIGAND FREE ENERGY PREDICTED BY IDOCK:   -4.24 KCAL/MOL
REMARK 924 INTRA-LIGAND FREE ENERGY PREDICTED BY IDOCK:   -1.97 KCAL/MOL
REMARK 927      BINDING AFFINITY PREDICTED BY RF-SCORE:    0.00 PKD
ROOT
HETATM    1  C   UNL     1      -9.339   8.725  68.912  1.00  0.00    -0.145 C  
HETATM    2  C   UNL     1     -10.069  10.014  68.570  1.00  0.00    -0.187 C  
HETATM    3  C   UNL     1      -9.355  11.364  68.484  1.00  0.00    -0.180 C  
HETATM    4  C   UNL     1      -8.044  11.688  68.673  1.00  0.00    -0.121 C  
ENDROOT
BRANCH   3   5
HETATM    5  C   UNL     1     -10.356  12.410  68.104  1.00  0.00    -0.231 A  
HETATM    6  C   UNL     1     -10.801  12.503  66.778  1.00  0.00    -0.281 A  
HETATM    7  C   UNL     1     -10.911  13.262  69.069  1.00  0.00    -0.249 A  
HETATM    8  C   UNL     1     -11.898  14.188  68.713  1.00  0.00    -0.384 A  
HETATM    9  C   UNL     1     -11.792  13.423  66.426  1.00  0.00    -0.441 A  
HETATM   10  C   UNL     1     -12.341  14.263  67.393  1.00  0.00    -0.110 A  
ENDBRANCH   3   5
BRANCH   4  11
HETATM   11  C   UNL     1      -7.037  10.678  69.070  1.00  0.00    -0.086 A  
HETATM   12  C   UNL     1      -6.824  10.370  70.421  1.00  0.00    -0.073 A  
HETATM   13  C   UNL     1      -5.899   9.388  70.783  1.00  0.00    -0.058 A  
HETATM   14  C   UNL     1      -5.338   9.058  68.457  1.00  0.00    -0.037 A  
HETATM   15  C   UNL     1      -6.263  10.037  68.093  1.00  0.00    -0.053 A  
HETATM   16  C   UNL     1      -5.165   8.725  69.799  1.00  0.00    -0.030 A  
ENDBRANCH   4  11
BRANCH   4  17
HETATM   17  C   UNL     1      -7.602  13.097  68.473  1.00  0.00    -0.122 A  
HETATM   18  C   UNL     1      -6.758  15.208  69.334  1.00  0.00    -0.162 A  
HETATM   19  C   UNL     1      -6.652  15.707  68.035  1.00  0.00    -0.139 A  
HETATM   20  C   UNL     1      -7.075  14.907  66.966  1.00  0.00     0.289 A  
HETATM   21  C   UNL     1      -7.554  13.616  67.179  1.00  0.00     0.048 A  
HETATM   22  C   UNL     1      -7.229  13.907  69.553  1.00  0.00     0.147 A  
BRANCH  19  23
HETATM   23  O   UNL     1      -6.114  16.970  67.907  1.00  0.00    -0.126 OA 
BRANCH  23  24
HETATM   24  C   UNL     1      -7.049  17.935  67.415  1.00  0.00    -0.187 C  
BRANCH  24  25
HETATM   25  C   UNL     1      -8.173  18.249  68.409  1.00  0.00    -0.311 C  
BRANCH  25  26
HETATM   26  N   UNL     1      -9.393  18.729  67.717  1.00  0.00    -0.289 NA 
HETATM   27  C   UNL     1      -9.675  17.907  66.542  1.00  0.00    -0.329 C  
HETATM   28  C   UNL     1      -9.299  20.140  67.323  1.00  0.00    -0.391 C  
ENDBRANCH  25  26
ENDBRANCH  24  25
ENDBRANCH  23  24
ENDBRANCH  19  23
ENDBRANCH   4  17
TORSDOF 7
ENDMDL
MODEL      125
REMARK 921   NORMALIZED FREE ENERGY PREDICTED BY IDOCK:   -2.96 KCAL/MOL
REMARK 922        TOTAL FREE ENERGY PREDICTED BY IDOCK:   -6.15 KCAL/MOL
REMARK 923 INTER-LIGAND FREE ENERGY PREDICTED BY IDOCK:   -4.23 KCAL/MOL
REMARK 924 INTRA-LIGAND FREE ENERGY PREDICTED BY IDOCK:   -1.92 KCAL/MOL
REMARK 927      BINDING AFFINITY PREDICTED BY RF-SCORE:    0.00 PKD
ROOT
HETATM    1  C   UNL     1      -8.455   6.645  65.474  1.00  0.00    -0.135 C  
HETATM    2  C   UNL     1      -8.815   7.129  66.870  1.00  0.00    -0.132 C  
HETATM    3  C   UNL     1      -8.529   8.556  67.343  1.00  0.00    -0.127 C  
HETATM    4  C   UNL     1      -7.952   9.608  66.694  1.00  0.00    -0.109 C  
ENDROOT
BRANCH   3   5
HETATM    5  C   UNL     1      -9.031   8.703  68.746  1.00  0.00    -0.138 A  
HETATM    6  C   UNL     1      -8.221   8.315  69.822  1.00  0.00    -0.121 A  
HETATM    7  C   UNL     1     -10.278   9.287  69.009  1.00  0.00    -0.217 A  
HETATM    8  C   UNL     1     -10.704   9.483  70.327  1.00  0.00    -0.315 A  
HETATM    9  C   UNL     1      -8.645   8.518  71.138  1.00  0.00    -0.207 A  
HETATM   10  C   UNL     1      -9.885   9.104  71.390  1.00  0.00    -0.354 A  
ENDBRANCH   3   5
BRANCH   4  11
HETATM   11  C   UNL     1      -7.429   9.484  65.315  1.00  0.00    -0.107 A  
HETATM   12  C   UNL     1      -8.259   9.715  64.209  1.00  0.00    -0.156 A  
HETATM   13  C   UNL     1      -7.745   9.633  62.912  1.00  0.00    -0.120 A  
HETATM   14  C   UNL     1      -5.586   9.019  63.806  1.00  0.00    -0.066 A  
HETATM   15  C   UNL     1      -6.097   9.103  65.102  1.00  0.00    -0.060 A  
HETATM   16  C   UNL     1      -6.406   9.295  62.713  1.00  0.00    -0.094 A  
ENDBRANCH   4  11
BRANCH   4  17
HETATM   17  C   UNL     1      -7.842  10.923  67.385  1.00  0.00    -0.113 A  
HETATM   18  C   UNL     1      -6.602  12.531  68.722  1.00  0.00    -0.089 A  
HETATM   19  C   UNL     1      -7.625  13.466  68.563  1.00  0.00    -0.127 A  
HETATM   20  C   UNL     1      -8.777  13.098  67.856  1.00  0.00    -0.192 A  
HETATM   21  C   UNL     1      -8.892  11.836  67.277  1.00  0.00    -0.167 A  
HETATM   22  C   UNL     1      -6.708  11.264  68.133  1.00  0.00    -0.058 A  
BRANCH  19  23
HETATM   23  O   UNL     1      -7.407  14.710  69.117  1.00  0.00    -0.130 OA 
BRANCH  23  24
HETATM   24  C   UNL     1      -6.234  15.356  68.612  1.00  0.00    -0.096 C  
BRANCH  24  25
HETATM   25  C   UNL     1      -6.006  16.749  69.210  1.00  0.00    -0.180 C  
BRANCH  25  26
HETATM   26  N   UNL     1      -6.307  17.818  68.227  1.00  0.00    -0.185 NA 
HETATM   27  C   UNL     1      -7.743  18.093  68.189  1.00  0.00    -0.274 C  
HETATM   28  C   UNL     1      -5.829  17.494  66.878  1.00  0.00    -0.159 C  
ENDBRANCH  25  26
ENDBRANCH  24  25
ENDBRANCH  23  24
ENDBRANCH  19  23
ENDBRANCH   4  17
TORSDOF 7
ENDMDL
MODEL      126
REMARK 921   NORMALIZED FREE ENERGY PREDICTED BY IDOCK:   -2.95 KCAL/MOL
REMARK 922        TOTAL FREE ENERGY PREDICTED BY IDOCK:   -6.15 KCAL/MOL
REMARK 923 INTER-LIGAND FREE ENERGY PREDICTED BY IDOCK:   -5.15 KCAL/MOL
REMARK 924 INTRA-LIGAND FREE ENERGY PREDICTED BY IDOCK:   -0.99 KCAL/MOL
REMARK 927      BINDING AFFINITY PREDICTED BY RF-SCORE:    0.00 PKD
ROOT
HETATM    1  C   UNL     1     -10.550  12.231  63.407  1.00  0.00    -0.427 C  
HETATM    2  C   UNL     1      -9.666  11.019  63.658  1.00  0.00    -0.364 C  
HETATM    3  C   UNL     1      -9.085  10.700  65.036  1.00  0.00    -0.229 C  
HETATM    4  C   UNL     1      -9.212  11.352  66.227  1.00  0.00    -0.220 C  
ENDROOT
BRANCH   3   5
HETATM    5  C   UNL     1      -8.289   9.435  64.937  1.00  0.00    -0.155 A  
HETATM    6  C   UNL     1      -8.658   8.315  65.696  1.00  0.00    -0.189 A  
HETATM    7  C   UNL     1      -7.215   9.327  64.043  1.00  0.00    -0.098 A  
HETATM    8  C   UNL     1      -6.524   8.118  63.908  1.00  0.00    -0.067 A  
HETATM    9  C   UNL     1      -7.971   7.107  65.555  1.00  0.00    -0.122 A  
HETATM   10  C   UNL     1      -6.907   7.007  64.660  1.00  0.00    -0.050 A  
ENDBRANCH   3   5
BRANCH   4  11
HETATM   11  C   UNL     1      -9.975  12.615  66.349  1.00  0.00    -0.262 A  
HETATM   12  C   UNL     1     -11.374  12.620  66.265  1.00  0.00    -0.376 A  
HETATM   13  C   UNL     1     -12.085  13.812  66.419  1.00  0.00    -0.483 A  
HETATM   14  C   UNL     1     -10.009  15.020  66.672  1.00  0.00    -0.266 A  
HETATM   15  C   UNL     1      -9.297  13.830  66.521  1.00  0.00    -0.249 A  
HETATM   16  C   UNL     1     -11.402  15.010  66.633  1.00  0.00    -0.289 A  
ENDBRANCH   4  11
BRANCH   4  17
HETATM   17  C   UNL     1      -8.571  10.784  67.446  1.00  0.00    -0.126 A  
HETATM   18  C   UNL     1      -8.706   9.642  69.588  1.00  0.00    -0.206 A  
HETATM   19  C   UNL     1      -7.313   9.609  69.668  1.00  0.00    -0.093 A  
HETATM   20  C   UNL     1      -6.561  10.215  68.654  1.00  0.00    -0.053 A  
HETATM   21  C   UNL     1      -7.181  10.805  67.555  1.00  0.00    -0.090 A  
HETATM   22  C   UNL     1      -9.334  10.226  68.481  1.00  0.00    -0.155 A  
BRANCH  19  23
HETATM   23  O   UNL     1      -6.779   8.954  70.758  1.00  0.00    -0.045 OA 
BRANCH  23  24
HETATM   24  C   UNL     1      -7.083   7.555  70.782  1.00  0.00    -0.059 C  
BRANCH  24  25
HETATM   25  C   UNL     1      -8.136   7.185  71.834  1.00  0.00    -0.097 C  
BRANCH  25  26
HETATM   26  N   UNL     1      -8.458   5.738  71.794  1.00  0.00    -0.130 NA 
HETATM   27  C   UNL     1      -9.863   5.514  72.131  1.00  0.00    -0.163 C  
HETATM   28  C   UNL     1      -7.603   4.947  72.686  1.00  0.00    -0.092 C  
ENDBRANCH  25  26
ENDBRANCH  24  25
ENDBRANCH  23  24
ENDBRANCH  19  23
ENDBRANCH   4  17
TORSDOF 7
ENDMDL
MODEL      127
REMARK 921   NORMALIZED FREE ENERGY PREDICTED BY IDOCK:   -2.94 KCAL/MOL
REMARK 922        TOTAL FREE ENERGY PREDICTED BY IDOCK:   -6.14 KCAL/MOL
REMARK 923 INTER-LIGAND FREE ENERGY PREDICTED BY IDOCK:   -5.20 KCAL/MOL
REMARK 924 INTRA-LIGAND FREE ENERGY PREDICTED BY IDOCK:   -0.94 KCAL/MOL
REMARK 927      BINDING AFFINITY PREDICTED BY RF-SCORE:    0.00 PKD
ROOT
HETATM    1  C   UNL     1     -10.580  11.364  65.820  1.00  0.00    -0.315 C  
HETATM    2  C   UNL     1      -9.857  10.060  66.119  1.00  0.00    -0.309 C  
HETATM    3  C   UNL     1      -9.448   9.656  67.536  1.00  0.00    -0.157 C  
HETATM    4  C   UNL     1      -9.619  10.298  68.727  1.00  0.00    -0.175 C  
ENDROOT
BRANCH   3   5
HETATM    5  C   UNL     1      -8.785   8.314  67.477  1.00  0.00    -0.129 A  
HETATM    6  C   UNL     1      -9.305   7.244  68.218  1.00  0.00    -0.135 A  
HETATM    7  C   UNL     1      -7.685   8.090  66.637  1.00  0.00    -0.094 A  
HETATM    8  C   UNL     1      -7.119   6.814  66.537  1.00  0.00    -0.071 A  
HETATM    9  C   UNL     1      -8.743   5.969  68.112  1.00  0.00    -0.113 A  
HETATM   10  C   UNL     1      -7.653   5.754  67.270  1.00  0.00    -0.096 A  
ENDBRANCH   3   5
BRANCH   4  11
HETATM   11  C   UNL     1     -10.251  11.634  68.812  1.00  0.00    -0.190 A  
HETATM   12  C   UNL     1     -11.550  11.782  69.317  1.00  0.00    -0.378 A  
HETATM   13  C   UNL     1     -12.123  13.052  69.428  1.00  0.00    -0.267 A  
HETATM   14  C   UNL     1     -10.136  14.033  68.466  1.00  0.00    -0.236 A  
HETATM   15  C   UNL     1      -9.561  12.766  68.357  1.00  0.00    -0.175 A  
HETATM   16  C   UNL     1     -11.411  14.177  69.012  1.00  0.00    -0.310 A  
ENDBRANCH   4  11
BRANCH   4  17
HETATM   17  C   UNL     1      -9.161   9.643  69.985  1.00  0.00    -0.269 A  
HETATM   18  C   UNL     1      -7.393   8.902  71.480  1.00  0.00    -0.081 A  
HETATM   19  C   UNL     1      -8.342   8.519  72.428  1.00  0.00    -0.109 A  
HETATM   20  C   UNL     1      -9.702   8.655  72.119  1.00  0.00    -0.383 A  
HETATM   21  C   UNL     1     -10.112   9.204  70.907  1.00  0.00    -0.356 A  
HETATM   22  C   UNL     1      -7.800   9.464  70.263  1.00  0.00    -0.165 A  
BRANCH  19  23
HETATM   23  O   UNL     1      -7.852   8.039  73.625  1.00  0.00    -0.152 OA 
BRANCH  23  24
HETATM   24  C   UNL     1      -6.875   7.007  73.462  1.00  0.00    -0.070 C  
BRANCH  24  25
HETATM   25  C   UNL     1      -7.384   5.622  73.878  1.00  0.00    -0.086 C  
BRANCH  25  26
HETATM   26  N   UNL     1      -8.836   5.475  73.615  1.00  0.00    -0.125 NA 
HETATM   27  C   UNL     1      -9.430   4.505  74.534  1.00  0.00    -0.123 C  
HETATM   28  C   UNL     1      -9.121   5.085  72.230  1.00  0.00    -0.131 C  
ENDBRANCH  25  26
ENDBRANCH  24  25
ENDBRANCH  23  24
ENDBRANCH  19  23
ENDBRANCH   4  17
TORSDOF 7
ENDMDL
MODEL      128
REMARK 921   NORMALIZED FREE ENERGY PREDICTED BY IDOCK:   -2.92 KCAL/MOL
REMARK 922        TOTAL FREE ENERGY PREDICTED BY IDOCK:   -6.10 KCAL/MOL
REMARK 923 INTER-LIGAND FREE ENERGY PREDICTED BY IDOCK:   -4.26 KCAL/MOL
REMARK 924 INTRA-LIGAND FREE ENERGY PREDICTED BY IDOCK:   -1.85 KCAL/MOL
REMARK 927      BINDING AFFINITY PREDICTED BY RF-SCORE:    0.00 PKD
ROOT
HETATM    1  C   UNL     1      -9.516   7.985  72.948  1.00  0.00    -0.346 C  
HETATM    2  C   UNL     1      -9.650   8.196  71.448  1.00  0.00    -0.212 C  
HETATM    3  C   UNL     1      -9.210   7.143  70.430  1.00  0.00    -0.156 C  
HETATM    4  C   UNL     1      -8.660   5.908  70.610  1.00  0.00    -0.133 C  
ENDROOT
BRANCH   3   5
HETATM    5  C   UNL     1      -9.504   7.658  69.054  1.00  0.00    -0.150 A  
HETATM    6  C   UNL     1      -8.673   8.629  68.479  1.00  0.00    -0.139 A  
HETATM    7  C   UNL     1     -10.563   7.135  68.300  1.00  0.00    -0.230 A  
HETATM    8  C   UNL     1     -10.784   7.574  66.990  1.00  0.00    -0.367 A  
HETATM    9  C   UNL     1      -8.891   9.061  67.168  1.00  0.00    -0.130 A  
HETATM   10  C   UNL     1      -9.944   8.532  66.423  1.00  0.00    -0.314 A  
ENDBRANCH   3   5
BRANCH   4  11
HETATM   11  C   UNL     1      -8.340   5.383  71.956  1.00  0.00    -0.122 A  
HETATM   12  C   UNL     1      -7.118   5.688  72.574  1.00  0.00    -0.085 A  
HETATM   13  C   UNL     1      -6.843   5.219  73.860  1.00  0.00    -0.077 A  
HETATM   14  C   UNL     1      -8.972   4.079  73.902  1.00  0.00    -0.091 A  
HETATM   15  C   UNL     1      -9.250   4.548  72.618  1.00  0.00    -0.145 A  
HETATM   16  C   UNL     1      -7.774   4.424  74.528  1.00  0.00    -0.080 A  
ENDBRANCH   4  11
BRANCH   4  17
HETATM   17  C   UNL     1      -8.372   5.054  69.423  1.00  0.00    -0.085 A  
HETATM   18  C   UNL     1      -8.921   3.202  67.947  1.00  0.00    -0.191 A  
HETATM   19  C   UNL     1      -7.864   3.550  67.103  1.00  0.00    -0.079 A  
HETATM   20  C   UNL     1      -7.036   4.621  67.460  1.00  0.00    -0.061 A  
HETATM   21  C   UNL     1      -7.279   5.364  68.613  1.00  0.00    -0.066 A  
HETATM   22  C   UNL     1      -9.176   3.953  69.102  1.00  0.00    -0.222 A  
BRANCH  19  23
HETATM   23  O   UNL     1      -7.729   2.801  65.953  1.00  0.00    -0.078 OA 
BRANCH  23  24
HETATM   24  C   UNL     1      -8.967   2.260  65.481  1.00  0.00    -0.122 C  
BRANCH  24  25
HETATM   25  C   UNL     1      -9.772   3.249  64.630  1.00  0.00    -0.149 C  
BRANCH  25  26
HETATM   26  N   UNL     1     -10.267   2.616  63.384  1.00  0.00    -0.148 NA 
HETATM   27  C   UNL     1      -9.272   1.687  62.848  1.00  0.00    -0.086 C  
HETATM   28  C   UNL     1     -10.628   3.601  62.357  1.00  0.00    -0.194 C  
ENDBRANCH  25  26
ENDBRANCH  24  25
ENDBRANCH  23  24
ENDBRANCH  19  23
ENDBRANCH   4  17
TORSDOF 7
ENDMDL
MODEL      129
REMARK 921   NORMALIZED FREE ENERGY PREDICTED BY IDOCK:   -2.92 KCAL/MOL
REMARK 922        TOTAL FREE ENERGY PREDICTED BY IDOCK:   -6.10 KCAL/MOL
REMARK 923 INTER-LIGAND FREE ENERGY PREDICTED BY IDOCK:   -4.06 KCAL/MOL
REMARK 924 INTRA-LIGAND FREE ENERGY PREDICTED BY IDOCK:   -2.04 KCAL/MOL
REMARK 927      BINDING AFFINITY PREDICTED BY RF-SCORE:    0.00 PKD
ROOT
HETATM    1  C   UNL     1     -10.015   8.091  72.971  1.00  0.00    -0.349 C  
HETATM    2  C   UNL     1      -9.897   8.573  71.533  1.00  0.00    -0.309 C  
HETATM    3  C   UNL     1      -9.415   7.664  70.401  1.00  0.00    -0.164 C  
HETATM    4  C   UNL     1      -9.025   6.357  70.416  1.00  0.00    -0.155 C  
ENDROOT
BRANCH   3   5
HETATM    5  C   UNL     1      -9.443   8.441  69.121  1.00  0.00    -0.155 A  
HETATM    6  C   UNL     1      -8.363   9.266  68.780  1.00  0.00    -0.117 A  
HETATM    7  C   UNL     1     -10.509   8.306  68.219  1.00  0.00    -0.211 A  
HETATM    8  C   UNL     1     -10.490   8.983  66.995  1.00  0.00    -0.316 A  
HETATM    9  C   UNL     1      -8.343   9.936  67.554  1.00  0.00    -0.114 A  
HETATM   10  C   UNL     1      -9.404   9.792  66.661  1.00  0.00    -0.200 A  
ENDBRANCH   3   5
BRANCH   4  11
HETATM   11  C   UNL     1      -8.967   5.573  71.670  1.00  0.00    -0.145 A  
HETATM   12  C   UNL     1     -10.091   4.874  72.132  1.00  0.00    -0.250 A  
HETATM   13  C   UNL     1     -10.014   4.106  73.296  1.00  0.00    -0.185 A  
HETATM   14  C   UNL     1      -7.713   4.780  73.590  1.00  0.00    -0.095 A  
HETATM   15  C   UNL     1      -7.787   5.546  72.426  1.00  0.00    -0.103 A  
HETATM   16  C   UNL     1      -8.822   4.051  74.018  1.00  0.00    -0.092 A  
ENDBRANCH   4  11
BRANCH   4  17
HETATM   17  C   UNL     1      -8.646   5.692  69.138  1.00  0.00    -0.105 A  
HETATM   18  C   UNL     1      -9.208   4.375  67.173  1.00  0.00    -0.157 A  
HETATM   19  C   UNL     1      -7.920   4.561  66.668  1.00  0.00    -0.102 A  
HETATM   20  C   UNL     1      -6.988   5.272  67.435  1.00  0.00    -0.065 A  
HETATM   21  C   UNL     1      -7.341   5.827  68.663  1.00  0.00    -0.084 A  
HETATM   22  C   UNL     1      -9.571   4.939  68.403  1.00  0.00    -0.201 A  
BRANCH  19  23
HETATM   23  O   UNL     1      -7.670   4.030  65.421  1.00  0.00    -0.084 OA 
BRANCH  23  24
HETATM   24  C   UNL     1      -8.277   4.772  64.358  1.00  0.00    -0.116 C  
BRANCH  24  25
HETATM   25  C   UNL     1      -7.731   6.198  64.229  1.00  0.00    -0.106 C  
BRANCH  25  26
HETATM   26  N   UNL     1      -6.662   6.281  63.204  1.00  0.00    -0.039 NA 
HETATM   27  C   UNL     1      -6.686   5.101  62.340  1.00  0.00    -0.026 C  
HETATM   28  C   UNL     1      -5.328   6.437  63.793  1.00  0.00    -0.018 C  
ENDBRANCH  25  26
ENDBRANCH  24  25
ENDBRANCH  23  24
ENDBRANCH  19  23
ENDBRANCH   4  17
TORSDOF 7
ENDMDL
MODEL      130
REMARK 921   NORMALIZED FREE ENERGY PREDICTED BY IDOCK:   -2.92 KCAL/MOL
REMARK 922        TOTAL FREE ENERGY PREDICTED BY IDOCK:   -6.10 KCAL/MOL
REMARK 923 INTER-LIGAND FREE ENERGY PREDICTED BY IDOCK:   -4.71 KCAL/MOL
REMARK 924 INTRA-LIGAND FREE ENERGY PREDICTED BY IDOCK:   -1.39 KCAL/MOL
REMARK 927      BINDING AFFINITY PREDICTED BY RF-SCORE:    0.00 PKD
ROOT
HETATM    1  C   UNL     1     -10.889  11.963  69.664  1.00  0.00     0.099 C  
HETATM    2  C   UNL     1     -10.550  11.722  68.201  1.00  0.00    -0.230 C  
HETATM    3  C   UNL     1     -10.200  10.335  67.658  1.00  0.00    -0.247 C  
HETATM    4  C   UNL     1     -10.123   9.128  68.289  1.00  0.00    -0.221 C  
ENDROOT
BRANCH   3   5
HETATM    5  C   UNL     1      -9.948  10.449  66.187  1.00  0.00    -0.290 A  
HETATM    6  C   UNL     1     -10.976  10.864  65.330  1.00  0.00    -0.032 A  
HETATM    7  C   UNL     1      -8.673  10.209  65.653  1.00  0.00    -0.173 A  
HETATM    8  C   UNL     1      -8.433  10.387  64.287  1.00  0.00    -0.159 A  
HETATM    9  C   UNL     1     -10.732  11.048  63.967  1.00  0.00    -0.331 A  
HETATM   10  C   UNL     1      -9.461  10.813  63.446  1.00  0.00    -0.345 A  
ENDBRANCH   3   5
BRANCH   4  11
HETATM   11  C   UNL     1     -10.347   8.991  69.745  1.00  0.00    -0.219 A  
HETATM   12  C   UNL     1     -11.645   8.898  70.266  1.00  0.00    -0.049 A  
HETATM   13  C   UNL     1     -11.844   8.731  71.639  1.00  0.00    -0.399 A  
HETATM   14  C   UNL     1      -9.456   8.816  71.996  1.00  0.00    -0.336 A  
HETATM   15  C   UNL     1      -9.256   8.981  70.624  1.00  0.00    -0.279 A  
HETATM   16  C   UNL     1     -10.748   8.679  72.501  1.00  0.00    -0.214 A  
ENDBRANCH   4  11
BRANCH   4  17
HETATM   17  C   UNL     1      -9.806   7.906  67.496  1.00  0.00    -0.221 A  
HETATM   18  C   UNL     1     -10.486   6.045  66.088  1.00  0.00     0.097 A  
HETATM   19  C   UNL     1      -9.151   5.684  65.904  1.00  0.00    -0.148 A  
HETATM   20  C   UNL     1      -8.154   6.412  66.567  1.00  0.00    -0.111 A  
HETATM   21  C   UNL     1      -8.476   7.509  67.363  1.00  0.00    -0.115 A  
HETATM   22  C   UNL     1     -10.814   7.154  66.879  1.00  0.00    -0.307 A  
BRANCH  19  23
HETATM   23  O   UNL     1      -8.915   4.623  65.055  1.00  0.00    -0.144 OA 
BRANCH  23  24
HETATM   24  C   UNL     1      -7.571   4.136  65.118  1.00  0.00    -0.081 C  
BRANCH  24  25
HETATM   25  C   UNL     1      -7.402   2.747  64.491  1.00  0.00    -0.066 C  
BRANCH  25  26
HETATM   26  N   UNL     1      -7.706   1.671  65.465  1.00  0.00    -0.069 NA 
HETATM   27  C   UNL     1      -9.150   1.541  65.655  1.00  0.00    -0.073 C  
HETATM   28  C   UNL     1      -7.052   1.883  66.762  1.00  0.00    -0.047 C  
ENDBRANCH  25  26
ENDBRANCH  24  25
ENDBRANCH  23  24
ENDBRANCH  19  23
ENDBRANCH   4  17
TORSDOF 7
ENDMDL
MODEL      131
REMARK 921   NORMALIZED FREE ENERGY PREDICTED BY IDOCK:   -2.85 KCAL/MOL
REMARK 922        TOTAL FREE ENERGY PREDICTED BY IDOCK:   -6.01 KCAL/MOL
REMARK 923 INTER-LIGAND FREE ENERGY PREDICTED BY IDOCK:   -6.46 KCAL/MOL
REMARK 924 INTRA-LIGAND FREE ENERGY PREDICTED BY IDOCK:    0.45 KCAL/MOL
REMARK 927      BINDING AFFINITY PREDICTED BY RF-SCORE:    0.00 PKD
ROOT
HETATM    1  C   UNL     1     -13.988   9.319  72.075  1.00  0.00    -0.392 C  
HETATM    2  C   UNL     1     -13.062   8.185  71.666  1.00  0.00    -0.358 C  
HETATM    3  C   UNL     1     -11.757   8.426  70.904  1.00  0.00    -0.269 C  
HETATM    4  C   UNL     1     -11.185   9.585  70.467  1.00  0.00    -0.345 C  
ENDROOT
BRANCH   3   5
HETATM    5  C   UNL     1     -11.082   7.108  70.685  1.00  0.00    -0.294 A  
HETATM    6  C   UNL     1     -10.488   6.438  71.764  1.00  0.00    -0.246 A  
HETATM    7  C   UNL     1     -11.090   6.494  69.425  1.00  0.00    -0.407 A  
HETATM    8  C   UNL     1     -10.517   5.230  69.249  1.00  0.00    -0.255 A  
HETATM    9  C   UNL     1      -9.923   5.173  71.588  1.00  0.00    -0.243 A  
HETATM   10  C   UNL     1      -9.940   4.568  70.333  1.00  0.00    -0.284 A  
ENDBRANCH   3   5
BRANCH   4  11
HETATM   11  C   UNL     1     -11.841  10.899  70.651  1.00  0.00    -0.453 A  
HETATM   12  C   UNL     1     -11.751  11.891  69.664  1.00  0.00    -0.413 A  
HETATM   13  C   UNL     1     -12.406  13.113  69.832  1.00  0.00    -0.201 A  
HETATM   14  C   UNL     1     -13.189  12.397  72.002  1.00  0.00    -0.514 A  
HETATM   15  C   UNL     1     -12.538  11.174  71.835  1.00  0.00    -0.163 A  
HETATM   16  C   UNL     1     -13.133  13.361  70.996  1.00  0.00    -0.185 A  
ENDBRANCH   4  11
BRANCH   4  17
HETATM   17  C   UNL     1      -9.861   9.536  69.785  1.00  0.00    -0.236 A  
HETATM   18  C   UNL     1      -7.433   9.438  69.852  1.00  0.00    -0.100 A  
HETATM   19  C   UNL     1      -7.391   9.313  68.462  1.00  0.00    -0.076 A  
HETATM   20  C   UNL     1      -8.591   9.355  67.741  1.00  0.00    -0.116 A  
HETATM   21  C   UNL     1      -9.817   9.473  68.393  1.00  0.00    -0.175 A  
HETATM   22  C   UNL     1      -8.663   9.546  70.512  1.00  0.00    -0.247 A  
BRANCH  19  23
HETATM   23  O   UNL     1      -6.143   9.141  67.902  1.00  0.00    -0.049 OA 
BRANCH  23  24
HETATM   24  C   UNL     1      -6.120   8.156  66.863  1.00  0.00    -0.054 C  
BRANCH  24  25
HETATM   25  C   UNL     1      -5.427   8.642  65.585  1.00  0.00    -0.035 C  
BRANCH  25  26
HETATM   26  N   UNL     1      -6.143   9.792  64.981  1.00  0.00    -0.085 NA 
HETATM   27  C   UNL     1      -7.358   9.342  64.303  1.00  0.00    -0.109 C  
HETATM   28  C   UNL     1      -5.305  10.549  64.045  1.00  0.00    -0.151 C  
ENDBRANCH  25  26
ENDBRANCH  24  25
ENDBRANCH  23  24
ENDBRANCH  19  23
ENDBRANCH   4  17
TORSDOF 7
ENDMDL
MODEL      132
REMARK 921   NORMALIZED FREE ENERGY PREDICTED BY IDOCK:   -2.37 KCAL/MOL
REMARK 922        TOTAL FREE ENERGY PREDICTED BY IDOCK:   -5.33 KCAL/MOL
REMARK 923 INTER-LIGAND FREE ENERGY PREDICTED BY IDOCK:   -3.19 KCAL/MOL
REMARK 924 INTRA-LIGAND FREE ENERGY PREDICTED BY IDOCK:   -2.14 KCAL/MOL
REMARK 927      BINDING AFFINITY PREDICTED BY RF-SCORE:    0.00 PKD
ROOT
HETATM    1  C   UNL     1      -8.364  10.854  62.782  1.00  0.00    -0.144 C  
HETATM    2  C   UNL     1      -9.009  11.204  64.114  1.00  0.00     0.029 C  
HETATM    3  C   UNL     1      -8.876  10.310  65.349  1.00  0.00    -0.192 C  
HETATM    4  C   UNL     1      -8.221   9.127  65.523  1.00  0.00    -0.124 C  
ENDROOT
BRANCH   3   5
HETATM    5  C   UNL     1      -9.604  10.957  66.486  1.00  0.00    -0.224 A  
HETATM    6  C   UNL     1      -8.926  11.839  67.339  1.00  0.00    -0.173 A  
HETATM    7  C   UNL     1     -10.977  10.748  66.676  1.00  0.00    -0.173 A  
HETATM    8  C   UNL     1     -11.660  11.414  67.700  1.00  0.00    -0.315 A  
HETATM    9  C   UNL     1      -9.612  12.509  68.356  1.00  0.00    -0.176 A  
HETATM   10  C   UNL     1     -10.978  12.298  68.535  1.00  0.00    -0.275 A  
ENDBRANCH   3   5
BRANCH   4  11
HETATM   11  C   UNL     1      -7.512   8.455  64.411  1.00  0.00    -0.104 A  
HETATM   12  C   UNL     1      -6.184   8.783  64.103  1.00  0.00    -0.071 A  
HETATM   13  C   UNL     1      -5.513   8.116  63.076  1.00  0.00    -0.060 A  
HETATM   14  C   UNL     1      -7.505   6.834  62.604  1.00  0.00    -0.080 A  
HETATM   15  C   UNL     1      -8.177   7.498  63.632  1.00  0.00     0.060 A  
HETATM   16  C   UNL     1      -6.171   7.135  62.335  1.00  0.00    -0.049 A  
ENDBRANCH   4  11
BRANCH   4  17
HETATM   17  C   UNL     1      -8.211   8.485  66.868  1.00  0.00    -0.106 A  
HETATM   18  C   UNL     1      -9.209   7.034  68.543  1.00  0.00    -0.137 A  
HETATM   19  C   UNL     1      -8.090   7.193  69.362  1.00  0.00    -0.130 A  
HETATM   20  C   UNL     1      -7.060   8.046  68.943  1.00  0.00    -0.067 A  
HETATM   21  C   UNL     1      -7.120   8.694  67.711  1.00  0.00    -0.079 A  
HETATM   22  C   UNL     1      -9.270   7.675  67.299  1.00  0.00    -0.154 A  
BRANCH  19  23
HETATM   23  O   UNL     1      -8.083   6.471  70.536  1.00  0.00    -0.113 OA 
BRANCH  23  24
HETATM   24  C   UNL     1      -7.382   5.227  70.431  1.00  0.00    -0.063 C  
BRANCH  24  25
HETATM   25  C   UNL     1      -8.277   4.065  69.988  1.00  0.00    -0.057 C  
BRANCH  25  26
HETATM   26  N   UNL     1      -7.735   3.389  68.784  1.00  0.00    -0.052 NA 
HETATM   27  C   UNL     1      -6.548   4.088  68.292  1.00  0.00    -0.046 C  
HETATM   28  C   UNL     1      -8.726   3.277  67.707  1.00  0.00    -0.112 C  
ENDBRANCH  25  26
ENDBRANCH  24  25
ENDBRANCH  23  24
ENDBRANCH  19  23
ENDBRANCH   4  17
TORSDOF 7
ENDMDL
MODEL      133
REMARK 921   NORMALIZED FREE ENERGY PREDICTED BY IDOCK:   -2.32 KCAL/MOL
REMARK 922        TOTAL FREE ENERGY PREDICTED BY IDOCK:   -5.26 KCAL/MOL
REMARK 923 INTER-LIGAND FREE ENERGY PREDICTED BY IDOCK:   -4.26 KCAL/MOL
REMARK 924 INTRA-LIGAND FREE ENERGY PREDICTED BY IDOCK:   -1.00 KCAL/MOL
REMARK 927      BINDING AFFINITY PREDICTED BY RF-SCORE:    0.00 PKD
ROOT
HETATM    1  C   UNL     1     -10.756  11.106  62.750  1.00  0.00     0.369 C  
HETATM    2  C   UNL     1      -9.603  10.291  63.315  1.00  0.00    -0.305 C  
HETATM    3  C   UNL     1      -8.965  10.603  64.669  1.00  0.00    -0.216 C  
HETATM    4  C   UNL     1      -9.250  11.574  65.583  1.00  0.00    -0.184 C  
ENDROOT
BRANCH   3   5
HETATM    5  C   UNL     1      -7.884   9.600  64.929  1.00  0.00    -0.123 A  
HETATM    6  C   UNL     1      -6.641   9.730  64.295  1.00  0.00    -0.119 A  
HETATM    7  C   UNL     1      -8.070   8.562  65.853  1.00  0.00    -0.116 A  
HETATM    8  C   UNL     1      -7.029   7.673  66.140  1.00  0.00    -0.065 A  
HETATM    9  C   UNL     1      -5.600   8.846  64.587  1.00  0.00    -0.062 A  
HETATM   10  C   UNL     1      -5.793   7.820  65.511  1.00  0.00    -0.038 A  
ENDBRANCH   3   5
BRANCH   4  11
HETATM   11  C   UNL     1     -10.298  12.591  65.342  1.00  0.00    -0.305 A  
HETATM   12  C   UNL     1     -11.657  12.256  65.428  1.00  0.00    -0.412 A  
HETATM   13  C   UNL     1     -12.637  13.232  65.236  1.00  0.00    -0.528 A  
HETATM   14  C   UNL     1     -10.919  14.874  64.801  1.00  0.00    -0.390 A  
HETATM   15  C   UNL     1      -9.938  13.900  64.995  1.00  0.00    -0.213 A  
HETATM   16  C   UNL     1     -12.267  14.543  64.933  1.00  0.00    -0.409 A  
ENDBRANCH   4  11
BRANCH   4  17
HETATM   17  C   UNL     1      -8.492  11.619  66.865  1.00  0.00    -0.168 A  
HETATM   18  C   UNL     1      -8.298  11.150  69.243  1.00  0.00     0.099 A  
HETATM   19  C   UNL     1      -6.978  11.605  69.234  1.00  0.00    -0.083 A  
HETATM   20  C   UNL     1      -6.445  12.115  68.043  1.00  0.00    -0.069 A  
HETATM   21  C   UNL     1      -7.194  12.131  66.869  1.00  0.00    -0.002 A  
HETATM   22  C   UNL     1      -9.052  11.155  68.063  1.00  0.00    -0.153 A  
BRANCH  19  23
HETATM   23  O   UNL     1      -6.287  11.501  70.423  1.00  0.00    -0.253 OA 
BRANCH  23  24
HETATM   24  C   UNL     1      -5.534  12.675  70.745  1.00  0.00    -0.175 C  
BRANCH  24  25
HETATM   25  C   UNL     1      -6.395  13.940  70.826  1.00  0.00     0.067 C  
BRANCH  25  26
HETATM   26  N   UNL     1      -6.433  14.657  69.529  1.00  0.00    -0.127 NA 
HETATM   27  C   UNL     1      -5.136  15.270  69.242  1.00  0.00    -0.092 C  
HETATM   28  C   UNL     1      -7.485  15.678  69.480  1.00  0.00    -0.192 C  
ENDBRANCH  25  26
ENDBRANCH  24  25
ENDBRANCH  23  24
ENDBRANCH  19  23
ENDBRANCH   4  17
TORSDOF 7
ENDMDL
MODEL      134
REMARK 921   NORMALIZED FREE ENERGY PREDICTED BY IDOCK:   -2.30 KCAL/MOL
REMARK 922        TOTAL FREE ENERGY PREDICTED BY IDOCK:   -5.23 KCAL/MOL
REMARK 923 INTER-LIGAND FREE ENERGY PREDICTED BY IDOCK:   -3.13 KCAL/MOL
REMARK 924 INTRA-LIGAND FREE ENERGY PREDICTED BY IDOCK:   -2.11 KCAL/MOL
REMARK 927      BINDING AFFINITY PREDICTED BY RF-SCORE:    0.00 PKD
ROOT
HETATM    1  C   UNL     1      -8.079   7.771  63.667  1.00  0.00    -0.053 C  
HETATM    2  C   UNL     1      -8.303   8.959  64.590  1.00  0.00    -0.179 C  
HETATM    3  C   UNL     1      -8.272   8.831  66.114  1.00  0.00    -0.117 C  
HETATM    4  C   UNL     1      -8.059   7.744  66.910  1.00  0.00    -0.116 C  
ENDROOT
BRANCH   3   5
HETATM    5  C   UNL     1      -8.503  10.185  66.711  1.00  0.00    -0.126 A  
HETATM    6  C   UNL     1      -9.790  10.559  67.121  1.00  0.00    -0.213 A  
HETATM    7  C   UNL     1      -7.435  11.067  66.931  1.00  0.00    -0.133 A  
HETATM    8  C   UNL     1      -7.653  12.300  67.555  1.00  0.00    -0.155 A  
HETATM    9  C   UNL     1     -10.004  11.788  67.750  1.00  0.00    -0.198 A  
HETATM   10  C   UNL     1      -8.936  12.656  67.969  1.00  0.00    -0.200 A  
ENDBRANCH   3   5
BRANCH   4  11
HETATM   11  C   UNL     1      -7.850   6.391  66.346  1.00  0.00    -0.104 A  
HETATM   12  C   UNL     1      -8.941   5.566  66.038  1.00  0.00    -0.154 A  
HETATM   13  C   UNL     1      -8.733   4.306  65.471  1.00  0.00    -0.121 A  
HETATM   14  C   UNL     1      -6.344   4.650  65.577  1.00  0.00    -0.035 A  
HETATM   15  C   UNL     1      -6.550   5.910  66.142  1.00  0.00    -0.047 A  
HETATM   16  C   UNL     1      -7.435   3.854  65.232  1.00  0.00    -0.080 A  
ENDBRANCH   4  11
BRANCH   4  17
HETATM   17  C   UNL     1      -8.032   7.914  68.390  1.00  0.00    -0.122 A  
HETATM   18  C   UNL     1      -9.085   7.741  70.574  1.00  0.00    -0.154 A  
HETATM   19  C   UNL     1      -7.893   8.126  71.190  1.00  0.00    -0.093 A  
HETATM   20  C   UNL     1      -6.791   8.453  70.389  1.00  0.00    -0.037 A  
HETATM   21  C   UNL     1      -6.858   8.357  69.000  1.00  0.00    -0.056 A  
HETATM   22  C   UNL     1      -9.154   7.633  69.179  1.00  0.00    -0.141 A  
BRANCH  19  23
HETATM   23  O   UNL     1      -7.894   8.138  72.568  1.00  0.00    -0.117 OA 
BRANCH  23  24
HETATM   24  C   UNL     1      -8.328   6.902  73.145  1.00  0.00    -0.113 C  
BRANCH  24  25
HETATM   25  C   UNL     1      -7.174   5.943  73.457  1.00  0.00    -0.086 C  
BRANCH  25  26
HETATM   26  N   UNL     1      -7.409   4.601  72.871  1.00  0.00    -0.082 NA 
HETATM   27  C   UNL     1      -7.999   3.703  73.863  1.00  0.00    -0.075 C  
HETATM   28  C   UNL     1      -6.185   4.002  72.327  1.00  0.00    -0.017 C  
ENDBRANCH  25  26
ENDBRANCH  24  25
ENDBRANCH  23  24
ENDBRANCH  19  23
ENDBRANCH   4  17
TORSDOF 7
ENDMDL
MODEL      135
REMARK 921   NORMALIZED FREE ENERGY PREDICTED BY IDOCK:   -1.88 KCAL/MOL
REMARK 922        TOTAL FREE ENERGY PREDICTED BY IDOCK:   -4.64 KCAL/MOL
REMARK 923 INTER-LIGAND FREE ENERGY PREDICTED BY IDOCK:   -4.15 KCAL/MOL
REMARK 924 INTRA-LIGAND FREE ENERGY PREDICTED BY IDOCK:   -0.49 KCAL/MOL
REMARK 927      BINDING AFFINITY PREDICTED BY RF-SCORE:    0.00 PKD
ROOT
HETATM    1  C   UNL     1     -12.526  14.281  64.141  1.00  0.00    -0.256 C  
HETATM    2  C   UNL     1     -12.128  15.568  64.847  1.00  0.00     0.152 C  
HETATM    3  C   UNL     1     -10.925  15.650  65.787  1.00  0.00    -0.250 C  
HETATM    4  C   UNL     1     -10.028  14.695  66.167  1.00  0.00    -0.323 C  
ENDROOT
BRANCH   3   5
HETATM    5  C   UNL     1     -10.803  17.057  66.286  1.00  0.00     0.034 A  
HETATM    6  C   UNL     1     -11.182  17.369  67.599  1.00  0.00     0.198 A  
HETATM    7  C   UNL     1     -10.252  18.062  65.479  1.00  0.00     0.220 A  
HETATM    8  C   UNL     1     -10.079  19.357  65.981  1.00  0.00    -0.488 A  
HETATM    9  C   UNL     1     -11.001  18.660  68.100  1.00  0.00     0.126 A  
HETATM   10  C   UNL     1     -10.448  19.653  67.293  1.00  0.00    -0.596 A  
ENDBRANCH   3   5
BRANCH   4  11
HETATM   11  C   UNL     1     -10.137  13.292  65.707  1.00  0.00    -0.293 A  
HETATM   12  C   UNL     1     -10.530  12.275  66.589  1.00  0.00    -0.247 A  
HETATM   13  C   UNL     1     -10.666  10.962  66.134  1.00  0.00    -0.225 A  
HETATM   14  C   UNL     1      -9.953  11.649  63.930  1.00  0.00    -0.358 A  
HETATM   15  C   UNL     1      -9.819  12.963  64.382  1.00  0.00    -0.025 A  
HETATM   16  C   UNL     1     -10.388  10.652  64.803  1.00  0.00    -0.353 A  
ENDBRANCH   4  11
BRANCH   4  17
HETATM   17  C   UNL     1      -8.902  15.065  67.070  1.00  0.00    -0.257 A  
HETATM   18  C   UNL     1      -6.728  16.081  67.458  1.00  0.00    -0.205 A  
HETATM   19  C   UNL     1      -6.859  15.861  68.830  1.00  0.00    -0.138 A  
HETATM   20  C   UNL     1      -7.996  15.193  69.303  1.00  0.00    -0.213 A  
HETATM   21  C   UNL     1      -9.007  14.790  68.434  1.00  0.00    -0.187 A  
HETATM   22  C   UNL     1      -7.746  15.687  66.581  1.00  0.00    -0.068 A  
BRANCH  19  23
HETATM   23  O   UNL     1      -5.842  16.343  69.627  1.00  0.00    -0.157 OA 
BRANCH  23  24
HETATM   24  C   UNL     1      -5.156  15.316  70.350  1.00  0.00    -0.120 C  
BRANCH  24  25
HETATM   25  C   UNL     1      -5.973  14.027  70.489  1.00  0.00    -0.177 C  
BRANCH  25  26
HETATM   26  N   UNL     1      -5.305  13.054  71.387  1.00  0.00    -0.289 NA 
HETATM   27  C   UNL     1      -5.756  11.693  71.098  1.00  0.00     0.148 C  
HETATM   28  C   UNL     1      -5.521  13.356  72.806  1.00  0.00     0.201 C  
ENDBRANCH  25  26
ENDBRANCH  24  25
ENDBRANCH  23  24
ENDBRANCH  19  23
ENDBRANCH   4  17
TORSDOF 7
ENDMDL
MODEL      136
REMARK 921   NORMALIZED FREE ENERGY PREDICTED BY IDOCK:   -1.77 KCAL/MOL
REMARK 922        TOTAL FREE ENERGY PREDICTED BY IDOCK:   -4.48 KCAL/MOL
REMARK 923 INTER-LIGAND FREE ENERGY PREDICTED BY IDOCK:   -6.38 KCAL/MOL
REMARK 924 INTRA-LIGAND FREE ENERGY PREDICTED BY IDOCK:    1.91 KCAL/MOL
REMARK 927      BINDING AFFINITY PREDICTED BY RF-SCORE:    0.00 PKD
ROOT
HETATM    1  C   UNL     1     -13.605  10.059  72.303  1.00  0.00    -0.282 C  
HETATM    2  C   UNL     1     -12.890   8.778  71.901  1.00  0.00    -0.423 C  
HETATM    3  C   UNL     1     -11.775   8.755  70.854  1.00  0.00    -0.299 C  
HETATM    4  C   UNL     1     -11.224   9.765  70.121  1.00  0.00    -0.324 C  
ENDROOT
BRANCH   3   5
HETATM    5  C   UNL     1     -11.276   7.350  70.720  1.00  0.00    -0.293 A  
HETATM    6  C   UNL     1     -11.401   6.677  69.496  1.00  0.00    -0.358 A  
HETATM    7  C   UNL     1     -10.621   6.713  71.783  1.00  0.00    -0.242 A  
HETATM    8  C   UNL     1     -10.096   5.426  71.622  1.00  0.00    -0.259 A  
HETATM    9  C   UNL     1     -10.870   5.395  69.336  1.00  0.00    -0.103 A  
HETATM   10  C   UNL     1     -10.216   4.771  70.397  1.00  0.00    -0.261 A  
ENDBRANCH   3   5
BRANCH   4  11
HETATM   11  C   UNL     1     -11.713  11.159  70.218  1.00  0.00    -0.431 A  
HETATM   12  C   UNL     1     -11.560  12.050  69.146  1.00  0.00    -0.370 A  
HETATM   13  C   UNL     1     -12.059  13.351  69.235  1.00  0.00    -0.312 A  
HETATM   14  C   UNL     1     -12.807  12.912  71.490  1.00  0.00    -0.380 A  
HETATM   15  C   UNL     1     -12.311  11.611  71.402  1.00  0.00    -0.201 A  
HETATM   16  C   UNL     1     -12.691  13.778  70.403  1.00  0.00    -0.245 A  
ENDBRANCH   4  11
BRANCH   4  17
HETATM   17  C   UNL     1     -10.096   9.466  69.194  1.00  0.00    -0.200 A  
HETATM   18  C   UNL     1      -7.734   9.082  68.767  1.00  0.00    -0.095 A  
HETATM   19  C   UNL     1      -8.016   8.772  67.435  1.00  0.00    -0.098 A  
HETATM   20  C   UNL     1      -9.338   8.865  66.983  1.00  0.00    -0.194 A  
HETATM   21  C   UNL     1     -10.371   9.216  67.849  1.00  0.00    -0.285 A  
HETATM   22  C   UNL     1      -8.771   9.426  69.644  1.00  0.00    -0.172 A  
BRANCH  19  23
HETATM   23  O   UNL     1      -6.946   8.377  66.661  1.00  0.00    -0.070 OA 
BRANCH  23  24
HETATM   24  C   UNL     1      -6.796   6.955  66.586  1.00  0.00    -0.064 C  
BRANCH  24  25
HETATM   25  C   UNL     1      -7.929   6.192  67.281  1.00  0.00    -0.102 C  
BRANCH  25  26
HETATM   26  N   UNL     1      -8.578   5.226  66.362  1.00  0.00    -0.113 NA 
HETATM   27  C   UNL     1      -7.942   3.913  66.463  1.00  0.00    -0.097 C  
HETATM   28  C   UNL     1      -8.561   5.678  64.967  1.00  0.00    -0.108 C  
ENDBRANCH  25  26
ENDBRANCH  24  25
ENDBRANCH  23  24
ENDBRANCH  19  23
ENDBRANCH   4  17
TORSDOF 7
ENDMDL
MODEL      137
REMARK 921   NORMALIZED FREE ENERGY PREDICTED BY IDOCK:   -1.63 KCAL/MOL
REMARK 922        TOTAL FREE ENERGY PREDICTED BY IDOCK:   -4.29 KCAL/MOL
REMARK 923 INTER-LIGAND FREE ENERGY PREDICTED BY IDOCK:   -2.47 KCAL/MOL
REMARK 924 INTRA-LIGAND FREE ENERGY PREDICTED BY IDOCK:   -1.82 KCAL/MOL
REMARK 927      BINDING AFFINITY PREDICTED BY RF-SCORE:    0.00 PKD
ROOT
HETATM    1  C   UNL     1     -10.590  10.796  62.539  1.00  0.00     0.886 C  
HETATM    2  C   UNL     1      -9.452   9.991  63.146  1.00  0.00    -0.229 C  
HETATM    3  C   UNL     1      -8.873  10.302  64.527  1.00  0.00    -0.223 C  
HETATM    4  C   UNL     1      -9.207  11.264  65.435  1.00  0.00    -0.202 C  
ENDROOT
BRANCH   3   5
HETATM    5  C   UNL     1      -7.792   9.310  64.825  1.00  0.00    -0.118 A  
HETATM    6  C   UNL     1      -8.112   8.087  65.431  1.00  0.00    -0.135 A  
HETATM    7  C   UNL     1      -6.464   9.555  64.446  1.00  0.00    -0.095 A  
HETATM    8  C   UNL     1      -5.475   8.590  64.667  1.00  0.00    -0.043 A  
HETATM    9  C   UNL     1      -7.124   7.122  65.645  1.00  0.00    -0.068 A  
HETATM   10  C   UNL     1      -5.808   7.372  65.260  1.00  0.00    -0.037 A  
ENDBRANCH   3   5
BRANCH   4  11
HETATM   11  C   UNL     1     -10.257  12.270  65.157  1.00  0.00    -0.305 A  
HETATM   12  C   UNL     1      -9.917  13.575  64.774  1.00  0.00    -0.156 A  
HETATM   13  C   UNL     1     -10.916  14.505  64.477  1.00  0.00    -0.264 A  
HETATM   14  C   UNL     1     -12.606  12.862  65.008  1.00  0.00    -0.538 A  
HETATM   15  C   UNL     1     -11.609  11.931  65.303  1.00  0.00    -0.278 A  
HETATM   16  C   UNL     1     -12.259  14.145  64.585  1.00  0.00    -0.465 A  
ENDBRANCH   4  11
BRANCH   4  17
HETATM   17  C   UNL     1      -8.503  11.309  66.747  1.00  0.00    -0.161 A  
HETATM   18  C   UNL     1      -8.352  10.735  69.104  1.00  0.00    -0.111 A  
HETATM   19  C   UNL     1      -7.080  11.308  69.171  1.00  0.00    -0.122 A  
HETATM   20  C   UNL     1      -6.554  11.925  68.029  1.00  0.00    -0.063 A  
HETATM   21  C   UNL     1      -7.259  11.935  66.828  1.00  0.00    -0.007 A  
HETATM   22  C   UNL     1      -9.060  10.734  67.896  1.00  0.00    -0.150 A  
BRANCH  19  23
HETATM   23  O   UNL     1      -6.426  11.203  70.381  1.00  0.00    -0.269 OA 
BRANCH  23  24
HETATM   24  C   UNL     1      -5.853  12.438  70.822  1.00  0.00    -0.002 C  
BRANCH  24  25
HETATM   25  C   UNL     1      -5.129  12.321  72.168  1.00  0.00     0.145 C  
BRANCH  25  26
HETATM   26  N   UNL     1      -5.787  13.143  73.212  1.00  0.00     0.375 NA 
HETATM   27  C   UNL     1      -5.724  14.562  72.865  1.00  0.00     0.139 C  
HETATM   28  C   UNL     1      -5.207  12.933  74.543  1.00  0.00     0.029 C  
ENDBRANCH  25  26
ENDBRANCH  24  25
ENDBRANCH  23  24
ENDBRANCH  19  23
ENDBRANCH   4  17
TORSDOF 7
ENDMDL
MODEL      138
REMARK 921   NORMALIZED FREE ENERGY PREDICTED BY IDOCK:   -1.41 KCAL/MOL
REMARK 922        TOTAL FREE ENERGY PREDICTED BY IDOCK:   -3.97 KCAL/MOL
REMARK 923 INTER-LIGAND FREE ENERGY PREDICTED BY IDOCK:   -2.18 KCAL/MOL
REMARK 924 INTRA-LIGAND FREE ENERGY PREDICTED BY IDOCK:   -1.79 KCAL/MOL
REMARK 927      BINDING AFFINITY PREDICTED BY RF-SCORE:    0.00 PKD
ROOT
HETATM    1  C   UNL     1     -11.036  15.114  69.325  1.00  0.00    -0.260 C  
HETATM    2  C   UNL     1     -10.881  13.601  69.314  1.00  0.00    -0.123 C  
HETATM    3  C   UNL     1     -10.064  12.868  68.248  1.00  0.00    -0.242 C  
HETATM    4  C   UNL     1      -9.362  13.348  67.181  1.00  0.00    -0.240 C  
ENDROOT
BRANCH   3   5
HETATM    5  C   UNL     1     -10.098  11.401  68.547  1.00  0.00    -0.211 A  
HETATM    6  C   UNL     1      -9.178  10.850  69.449  1.00  0.00     0.087 A  
HETATM    7  C   UNL     1     -11.082  10.574  67.987  1.00  0.00    -0.361 A  
HETATM    8  C   UNL     1     -11.146   9.219  68.329  1.00  0.00     0.058 A  
HETATM    9  C   UNL     1      -9.248   9.498  69.795  1.00  0.00    -0.224 A  
HETATM   10  C   UNL     1     -10.233   8.684  69.238  1.00  0.00    -0.215 A  
ENDBRANCH   3   5
BRANCH   4  11
HETATM   11  C   UNL     1      -9.330  14.790  66.851  1.00  0.00    -0.256 A  
HETATM   12  C   UNL     1     -10.112  15.306  65.807  1.00  0.00    -0.384 A  
HETATM   13  C   UNL     1     -10.102  16.674  65.529  1.00  0.00    -0.163 A  
HETATM   14  C   UNL     1      -8.479  17.021  67.284  1.00  0.00    -0.210 A  
HETATM   15  C   UNL     1      -8.489  15.654  67.565  1.00  0.00    -0.182 A  
HETATM   16  C   UNL     1      -9.294  17.532  66.275  1.00  0.00    -0.231 A  
ENDBRANCH   4  11
BRANCH   4  17
HETATM   17  C   UNL     1      -8.602  12.400  66.319  1.00  0.00     0.170 A  
HETATM   18  C   UNL     1      -8.272  11.231  64.213  1.00  0.00     0.683 A  
HETATM   19  C   UNL     1      -7.066  10.707  64.682  1.00  0.00     0.184 A  
HETATM   20  C   UNL     1      -6.666  10.996  65.993  1.00  0.00    -0.024 A  
HETATM   21  C   UNL     1      -7.428  11.828  66.810  1.00  0.00    -0.057 A  
HETATM   22  C   UNL     1      -9.037  12.076  65.027  1.00  0.00     0.388 A  
BRANCH  19  23
HETATM   23  O   UNL     1      -6.345   9.941  63.791  1.00  0.00    -0.112 OA 
BRANCH  23  24
HETATM   24  C   UNL     1      -6.744   8.567  63.773  1.00  0.00    -0.080 C  
BRANCH  24  25
HETATM   25  C   UNL     1      -5.636   7.610  64.225  1.00  0.00    -0.033 C  
BRANCH  25  26
HETATM   26  N   UNL     1      -6.080   6.758  65.355  1.00  0.00    -0.035 NA 
HETATM   27  C   UNL     1      -7.519   6.896  65.569  1.00  0.00    -0.086 C  
HETATM   28  C   UNL     1      -5.363   7.056  66.600  1.00  0.00    -0.022 C  
ENDBRANCH  25  26
ENDBRANCH  24  25
ENDBRANCH  23  24
ENDBRANCH  19  23
ENDBRANCH   4  17
TORSDOF 7
ENDMDL
MODEL      139
REMARK 921   NORMALIZED FREE ENERGY PREDICTED BY IDOCK:   -0.27 KCAL/MOL
REMARK 922        TOTAL FREE ENERGY PREDICTED BY IDOCK:   -2.37 KCAL/MOL
REMARK 923 INTER-LIGAND FREE ENERGY PREDICTED BY IDOCK:   -3.22 KCAL/MOL
REMARK 924 INTRA-LIGAND FREE ENERGY PREDICTED BY IDOCK:    0.84 KCAL/MOL
REMARK 927      BINDING AFFINITY PREDICTED BY RF-SCORE:    0.00 PKD
ROOT
HETATM    1  C   UNL     1     -10.023  18.061  66.537  1.00  0.00    -0.371 C  
HETATM    2  C   UNL     1     -10.637  16.791  67.105  1.00  0.00    -0.256 C  
HETATM    3  C   UNL     1      -9.807  15.541  67.405  1.00  0.00    -0.224 C  
HETATM    4  C   UNL     1      -8.473  15.303  67.252  1.00  0.00    -0.216 C  
ENDROOT
BRANCH   3   5
HETATM    5  C   UNL     1     -10.712  14.493  67.974  1.00  0.00    -0.243 A  
HETATM    6  C   UNL     1     -11.068  13.380  67.199  1.00  0.00    -0.303 A  
HETATM    7  C   UNL     1     -11.161  14.569  69.300  1.00  0.00    -0.296 A  
HETATM    8  C   UNL     1     -11.948  13.547  69.841  1.00  0.00    -0.416 A  
HETATM    9  C   UNL     1     -11.848  12.357  67.744  1.00  0.00    -0.362 A  
HETATM   10  C   UNL     1     -12.285  12.439  69.064  1.00  0.00    -0.033 A  
ENDBRANCH   3   5
BRANCH   4  11
HETATM   11  C   UNL     1      -7.560  16.314  66.673  1.00  0.00    -0.268 A  
HETATM   12  C   UNL     1      -8.041  17.297  65.795  1.00  0.00     0.205 A  
HETATM   13  C   UNL     1      -7.177  18.269  65.285  1.00  0.00     0.485 A  
HETATM   14  C   UNL     1      -5.331  17.250  66.462  1.00  0.00    -0.206 A  
HETATM   15  C   UNL     1      -6.192  16.279  66.975  1.00  0.00    -0.105 A  
HETATM   16  C   UNL     1      -5.825  18.251  65.627  1.00  0.00    -0.254 A  
ENDBRANCH   4  11
BRANCH   4  17
HETATM   17  C   UNL     1      -7.909  13.992  67.679  1.00  0.00    -0.185 A  
HETATM   18  C   UNL     1      -7.282  12.406  69.411  1.00  0.00     0.231 A  
HETATM   19  C   UNL     1      -6.960  11.457  68.439  1.00  0.00    -0.075 A  
HETATM   20  C   UNL     1      -7.068  11.809  67.087  1.00  0.00    -0.146 A  
HETATM   21  C   UNL     1      -7.530  13.067  66.707  1.00  0.00     0.526 A  
HETATM   22  C   UNL     1      -7.757  13.668  69.034  1.00  0.00     0.087 A  
BRANCH  19  23
HETATM   23  O   UNL     1      -6.567  10.218  68.899  1.00  0.00    -0.051 OA 
BRANCH  23  24
HETATM   24  C   UNL     1      -7.332   9.141  68.348  1.00  0.00    -0.078 C  
BRANCH  24  25
HETATM   25  C   UNL     1      -8.788   9.128  68.826  1.00  0.00    -0.132 C  
BRANCH  25  26
HETATM   26  N   UNL     1      -8.926   8.434  70.129  1.00  0.00    -0.140 NA 
HETATM   27  C   UNL     1      -9.728   7.220  69.983  1.00  0.00    -0.175 C  
HETATM   28  C   UNL     1      -9.512   9.293  71.165  1.00  0.00    -0.217 C  
ENDBRANCH  25  26
ENDBRANCH  24  25
ENDBRANCH  23  24
ENDBRANCH  19  23
ENDBRANCH   4  17
TORSDOF 7
ENDMDL
MODEL      140
REMARK 921   NORMALIZED FREE ENERGY PREDICTED BY IDOCK:    0.51 KCAL/MOL
REMARK 922        TOTAL FREE ENERGY PREDICTED BY IDOCK:   -1.28 KCAL/MOL
REMARK 923 INTER-LIGAND FREE ENERGY PREDICTED BY IDOCK:   -1.51 KCAL/MOL
REMARK 924 INTRA-LIGAND FREE ENERGY PREDICTED BY IDOCK:    0.23 KCAL/MOL
REMARK 927      BINDING AFFINITY PREDICTED BY RF-SCORE:    0.00 PKD
ROOT
HETATM    1  C   UNL     1     -10.296  14.854  63.718  1.00  0.00     3.205 C  
HETATM    2  C   UNL     1     -10.167  15.719  64.962  1.00  0.00    -0.146 C  
HETATM    3  C   UNL     1     -10.714  15.284  66.323  1.00  0.00    -0.315 C  
HETATM    4  C   UNL     1     -11.369  14.147  66.695  1.00  0.00    -0.352 C  
ENDROOT
BRANCH   3   5
HETATM    5  C   UNL     1     -10.397  16.349  67.327  1.00  0.00    -0.287 A  
HETATM    6  C   UNL     1     -11.033  17.595  67.250  1.00  0.00    -0.024 A  
HETATM    7  C   UNL     1      -9.518  16.098  68.391  1.00  0.00    -0.210 A  
HETATM    8  C   UNL     1      -9.284  17.078  69.362  1.00  0.00     0.191 A  
HETATM    9  C   UNL     1     -10.804  18.570  68.224  1.00  0.00     0.053 A  
HETATM   10  C   UNL     1      -9.933  18.310  69.281  1.00  0.00    -0.086 A  
ENDBRANCH   3   5
BRANCH   4  11
HETATM   11  C   UNL     1     -11.714  13.088  65.720  1.00  0.00    -0.427 A  
HETATM   12  C   UNL     1     -12.930  13.124  65.022  1.00  0.00    -0.221 A  
HETATM   13  C   UNL     1     -13.228  12.140  64.076  1.00  0.00     0.027 A  
HETATM   14  C   UNL     1     -11.135  11.036  64.561  1.00  0.00    -0.034 A  
HETATM   15  C   UNL     1     -10.834  12.019  65.505  1.00  0.00    -0.336 A  
HETATM   16  C   UNL     1     -12.326  11.103  63.839  1.00  0.00     1.012 A  
ENDBRANCH   4  11
BRANCH   4  17
HETATM   17  C   UNL     1     -11.750  13.955  68.123  1.00  0.00    -0.388 A  
HETATM   18  C   UNL     1     -11.699  12.672  70.187  1.00  0.00    -0.247 A  
HETATM   19  C   UNL     1     -12.381  13.694  70.850  1.00  0.00    -0.371 A  
HETATM   20  C   UNL     1     -12.788  14.819  70.122  1.00  0.00    -0.191 A  
HETATM   21  C   UNL     1     -12.485  14.949  68.769  1.00  0.00     0.137 A  
HETATM   22  C   UNL     1     -11.382  12.802  68.829  1.00  0.00    -0.332 A  
BRANCH  19  23
HETATM   23  O   UNL     1     -12.590  13.514  72.201  1.00  0.00    -0.154 OA 
BRANCH  23  24
HETATM   24  C   UNL     1     -13.824  14.074  72.662  1.00  0.00    -0.405 C  
BRANCH  24  25
HETATM   25  C   UNL     1     -13.879  15.600  72.534  1.00  0.00    -0.555 C  
BRANCH  25  26
HETATM   26  N   UNL     1     -12.866  16.255  73.396  1.00  0.00    -0.482 NA 
HETATM   27  C   UNL     1     -11.799  16.840  72.584  1.00  0.00    -0.009 C  
HETATM   28  C   UNL     1     -12.289  15.337  74.384  1.00  0.00    -0.561 C  
ENDBRANCH  25  26
ENDBRANCH  24  25
ENDBRANCH  23  24
ENDBRANCH  19  23
ENDBRANCH   4  17
TORSDOF 7
ENDMDL
MODEL      141
REMARK 921   NORMALIZED FREE ENERGY PREDICTED BY IDOCK:    0.85 KCAL/MOL
REMARK 922        TOTAL FREE ENERGY PREDICTED BY IDOCK:   -0.79 KCAL/MOL
REMARK 923 INTER-LIGAND FREE ENERGY PREDICTED BY IDOCK:   -2.59 KCAL/MOL
REMARK 924 INTRA-LIGAND FREE ENERGY PREDICTED BY IDOCK:    1.81 KCAL/MOL
REMARK 927      BINDING AFFINITY PREDICTED BY RF-SCORE:    0.00 PKD
ROOT
HETATM    1  C   UNL     1      -9.873  13.065  66.775  1.00  0.00    -0.243 C  
HETATM    2  C   UNL     1     -10.158  11.574  66.870  1.00  0.00    -0.241 C  
HETATM    3  C   UNL     1      -9.535  10.687  67.949  1.00  0.00    -0.168 C  
HETATM    4  C   UNL     1      -8.677  10.993  68.965  1.00  0.00    -0.072 C  
ENDROOT
BRANCH   3   5
HETATM    5  C   UNL     1     -10.043   9.290  67.769  1.00  0.00    -0.253 A  
HETATM    6  C   UNL     1      -9.884   8.641  66.537  1.00  0.00    -0.348 A  
HETATM    7  C   UNL     1     -10.619   8.589  68.839  1.00  0.00    -0.166 A  
HETATM    8  C   UNL     1     -11.025   7.260  68.677  1.00  0.00    -0.033 A  
HETATM    9  C   UNL     1     -10.284   7.311  66.380  1.00  0.00    -0.004 A  
HETATM   10  C   UNL     1     -10.851   6.621  67.450  1.00  0.00    -0.434 A  
ENDBRANCH   3   5
BRANCH   4  11
HETATM   11  C   UNL     1      -8.144  12.361  69.152  1.00  0.00     0.450 A  
HETATM   12  C   UNL     1      -8.948  13.484  68.914  1.00  0.00     0.221 A  
HETATM   13  C   UNL     1      -8.446  14.769  69.130  1.00  0.00    -0.096 A  
HETATM   14  C   UNL     1      -6.310  13.830  69.757  1.00  0.00    -0.112 A  
HETATM   15  C   UNL     1      -6.811  12.546  69.544  1.00  0.00     0.089 A  
HETATM   16  C   UNL     1      -7.130  14.941  69.562  1.00  0.00    -0.184 A  
ENDBRANCH   4  11
BRANCH   4  17
HETATM   17  C   UNL     1      -8.263   9.927  69.919  1.00  0.00    -0.199 A  
HETATM   18  C   UNL     1      -8.640   8.586  71.912  1.00  0.00    -0.254 A  
HETATM   19  C   UNL     1      -7.510   7.821  71.623  1.00  0.00    -0.075 A  
HETATM   20  C   UNL     1      -6.733   8.154  70.505  1.00  0.00    -0.037 A  
HETATM   21  C   UNL     1      -7.098   9.202  69.663  1.00  0.00    -0.059 A  
HETATM   22  C   UNL     1      -9.018   9.634  71.062  1.00  0.00     0.269 A  
BRANCH  19  23
HETATM   23  O   UNL     1      -7.251   6.766  72.473  1.00  0.00    -0.075 OA 
BRANCH  23  24
HETATM   24  C   UNL     1      -7.645   5.499  71.937  1.00  0.00    -0.099 C  
BRANCH  24  25
HETATM   25  C   UNL     1      -8.630   5.617  70.769  1.00  0.00    -0.128 C  
BRANCH  25  26
HETATM   26  N   UNL     1      -9.363   4.347  70.545  1.00  0.00    -0.128 NA 
HETATM   27  C   UNL     1      -9.626   3.674  71.817  1.00  0.00    -0.151 C  
HETATM   28  C   UNL     1      -8.651   3.438  69.641  1.00  0.00    -0.064 C  
ENDBRANCH  25  26
ENDBRANCH  24  25
ENDBRANCH  23  24
ENDBRANCH  19  23
ENDBRANCH   4  17
TORSDOF 7
ENDMDL
MODEL      142
REMARK 921   NORMALIZED FREE ENERGY PREDICTED BY IDOCK:    0.94 KCAL/MOL
REMARK 922        TOTAL FREE ENERGY PREDICTED BY IDOCK:   -0.67 KCAL/MOL
REMARK 923 INTER-LIGAND FREE ENERGY PREDICTED BY IDOCK:   -1.21 KCAL/MOL
REMARK 924 INTRA-LIGAND FREE ENERGY PREDICTED BY IDOCK:    0.54 KCAL/MOL
REMARK 927      BINDING AFFINITY PREDICTED BY RF-SCORE:    0.00 PKD
ROOT
HETATM    1  C   UNL     1      -7.276   5.375  65.217  1.00  0.00    -0.067 C  
HETATM    2  C   UNL     1      -7.178   5.673  66.705  1.00  0.00    -0.074 C  
HETATM    3  C   UNL     1      -7.392   7.076  67.275  1.00  0.00    -0.091 C  
HETATM    4  C   UNL     1      -7.690   8.252  66.653  1.00  0.00    -0.093 C  
ENDROOT
BRANCH   3   5
HETATM    5  C   UNL     1      -7.250   7.011  68.765  1.00  0.00    -0.091 A  
HETATM    6  C   UNL     1      -5.974   6.991  69.345  1.00  0.00    -0.026 A  
HETATM    7  C   UNL     1      -8.377   7.039  69.599  1.00  0.00    -0.133 A  
HETATM    8  C   UNL     1      -8.228   7.049  70.990  1.00  0.00    -0.117 A  
HETATM    9  C   UNL     1      -5.828   7.009  70.735  1.00  0.00    -0.027 A  
HETATM   10  C   UNL     1      -6.953   7.041  71.556  1.00  0.00    -0.065 A  
ENDBRANCH   3   5
BRANCH   4  11
HETATM   11  C   UNL     1      -7.815   8.348  65.181  1.00  0.00    -0.118 A  
HETATM   12  C   UNL     1      -8.996   8.823  64.591  1.00  0.00     0.032 A  
HETATM   13  C   UNL     1      -9.089   8.945  63.202  1.00  0.00     0.397 A  
HETATM   14  C   UNL     1      -6.854   8.056  62.972  1.00  0.00    -0.085 A  
HETATM   15  C   UNL     1      -6.758   7.935  64.359  1.00  0.00    -0.056 A  
HETATM   16  C   UNL     1      -8.014   8.571  62.395  1.00  0.00    -0.148 A  
ENDBRANCH   4  11
BRANCH   4  17
HETATM   17  C   UNL     1      -7.899   9.481  67.470  1.00  0.00    -0.102 A  
HETATM   18  C   UNL     1      -7.204  11.021  69.218  1.00  0.00    -0.124 A  
HETATM   19  C   UNL     1      -8.261  11.875  68.899  1.00  0.00     0.093 A  
HETATM   20  C   UNL     1      -9.162  11.492  67.897  1.00  0.00    -0.168 A  
HETATM   21  C   UNL     1      -8.991  10.303  67.192  1.00  0.00    -0.145 A  
HETATM   22  C   UNL     1      -7.021   9.829  68.505  1.00  0.00    -0.064 A  
BRANCH  19  23
HETATM   23  O   UNL     1      -8.325  13.058  69.604  1.00  0.00     1.174 OA 
BRANCH  23  24
HETATM   24  C   UNL     1      -7.961  14.201  68.823  1.00  0.00    -0.102 C  
BRANCH  24  25
HETATM   25  C   UNL     1      -8.759  15.459  69.185  1.00  0.00    -0.242 C  
BRANCH  25  26
HETATM   26  N   UNL     1      -9.975  15.593  68.346  1.00  0.00    -0.208 NA 
HETATM   27  C   UNL     1      -9.654  16.241  67.075  1.00  0.00    -0.231 C  
HETATM   28  C   UNL     1     -11.047  16.332  69.022  1.00  0.00    -0.331 C  
ENDBRANCH  25  26
ENDBRANCH  24  25
ENDBRANCH  23  24
ENDBRANCH  19  23
ENDBRANCH   4  17
TORSDOF 7
ENDMDL
MODEL      143
REMARK 921   NORMALIZED FREE ENERGY PREDICTED BY IDOCK:    4.37 KCAL/MOL
REMARK 922        TOTAL FREE ENERGY PREDICTED BY IDOCK:    4.17 KCAL/MOL
REMARK 923 INTER-LIGAND FREE ENERGY PREDICTED BY IDOCK:    0.38 KCAL/MOL
REMARK 924 INTRA-LIGAND FREE ENERGY PREDICTED BY IDOCK:    3.79 KCAL/MOL
REMARK 927      BINDING AFFINITY PREDICTED BY RF-SCORE:    0.00 PKD
ROOT
HETATM    1  C   UNL     1      -9.091  20.527  66.910  1.00  0.00    -0.364 C  
HETATM    2  C   UNL     1      -9.816  19.347  66.282  1.00  0.00    -0.477 C  
HETATM    3  C   UNL     1      -9.413  17.897  66.556  1.00  0.00    -0.307 C  
HETATM    4  C   UNL     1      -8.422  17.384  67.340  1.00  0.00    -0.215 C  
ENDROOT
BRANCH   3   5
HETATM    5  C   UNL     1     -10.342  16.994  65.806  1.00  0.00    -0.275 A  
HETATM    6  C   UNL     1     -10.925  15.896  66.454  1.00  0.00    -0.115 A  
HETATM    7  C   UNL     1     -10.695  17.265  64.476  1.00  0.00     1.475 A  
HETATM    8  C   UNL     1     -11.619  16.454  63.810  1.00  0.00     1.333 A  
HETATM    9  C   UNL     1     -11.853  15.091  65.789  1.00  0.00    -0.029 A  
HETATM   10  C   UNL     1     -12.202  15.371  64.469  1.00  0.00    -0.130 A  
ENDBRANCH   3   5
BRANCH   4  11
HETATM   11  C   UNL     1      -7.476  18.254  68.074  1.00  0.00    -0.247 A  
HETATM   12  C   UNL     1      -7.179  19.543  67.611  1.00  0.00    -0.273 A  
HETATM   13  C   UNL     1      -6.314  20.370  68.332  1.00  0.00    -0.350 A  
HETATM   14  C   UNL     1      -5.978  18.608  69.951  1.00  0.00    -0.237 A  
HETATM   15  C   UNL     1      -6.844  17.782  69.232  1.00  0.00    -0.186 A  
HETATM   16  C   UNL     1      -5.723  19.905  69.507  1.00  0.00    -0.297 A  
ENDBRANCH   4  11
BRANCH   4  17
HETATM   17  C   UNL     1      -8.281  15.906  67.469  1.00  0.00    -0.177 A  
HETATM   18  C   UNL     1      -7.912  13.708  66.498  1.00  0.00     0.860 A  
HETATM   19  C   UNL     1      -7.892  13.138  67.772  1.00  0.00    -0.152 A  
HETATM   20  C   UNL     1      -8.120  13.958  68.884  1.00  0.00     0.033 A  
HETATM   21  C   UNL     1      -8.322  15.329  68.738  1.00  0.00    -0.179 A  
HETATM   22  C   UNL     1      -8.104  15.087  66.346  1.00  0.00     0.437 A  
BRANCH  19  23
HETATM   23  O   UNL     1      -7.628  11.786  67.832  1.00  0.00    -0.107 OA 
BRANCH  23  24
HETATM   24  C   UNL     1      -6.727  11.340  66.813  1.00  0.00    -0.140 C  
BRANCH  24  25
HETATM   25  C   UNL     1      -7.371  11.274  65.424  1.00  0.00     0.598 C  
BRANCH  25  26
HETATM   26  N   UNL     1      -6.560  10.462  64.486  1.00  0.00    -0.074 NA 
HETATM   27  C   UNL     1      -5.144  10.812  64.594  1.00  0.00    -0.129 C  
HETATM   28  C   UNL     1      -7.000  10.603  63.093  1.00  0.00     0.101 C  
ENDBRANCH  25  26
ENDBRANCH  24  25
ENDBRANCH  23  24
ENDBRANCH  19  23
ENDBRANCH   4  17
TORSDOF 7
ENDMDL
MODEL      144
REMARK 921   NORMALIZED FREE ENERGY PREDICTED BY IDOCK:    6.51 KCAL/MOL
REMARK 922        TOTAL FREE ENERGY PREDICTED BY IDOCK:    7.18 KCAL/MOL
REMARK 923 INTER-LIGAND FREE ENERGY PREDICTED BY IDOCK:    4.87 KCAL/MOL
REMARK 924 INTRA-LIGAND FREE ENERGY PREDICTED BY IDOCK:    2.31 KCAL/MOL
REMARK 927      BINDING AFFINITY PREDICTED BY RF-SCORE:    0.00 PKD
ROOT
HETATM    1  C   UNL     1      -6.428  11.927  66.250  1.00  0.00     0.578 C  
HETATM    2  C   UNL     1      -7.893  11.905  65.842  1.00  0.00     0.707 C  
HETATM    3  C   UNL     1      -8.973  12.652  66.625  1.00  0.00    -0.164 C  
HETATM    4  C   UNL     1      -8.884  13.427  67.744  1.00  0.00    -0.199 C  
ENDROOT
BRANCH   3   5
HETATM    5  C   UNL     1     -10.289  12.441  65.943  1.00  0.00    -0.282 A  
HETATM    6  C   UNL     1     -11.096  11.352  66.300  1.00  0.00    -0.281 A  
HETATM    7  C   UNL     1     -10.764  13.357  64.993  1.00  0.00    -0.354 A  
HETATM    8  C   UNL     1     -12.026  13.186  64.414  1.00  0.00    -0.454 A  
HETATM    9  C   UNL     1     -12.359  11.188  65.726  1.00  0.00     2.727 A  
HETATM   10  C   UNL     1     -12.825  12.105  64.786  1.00  0.00     0.099 A  
ENDBRANCH   3   5
BRANCH   4  11
HETATM   11  C   UNL     1      -7.600  13.634  68.451  1.00  0.00    -0.132 A  
HETATM   12  C   UNL     1      -7.117  14.928  68.699  1.00  0.00    -0.111 A  
HETATM   13  C   UNL     1      -5.923  15.112  69.400  1.00  0.00    -0.108 A  
HETATM   14  C   UNL     1      -5.642  12.718  69.554  1.00  0.00    -0.090 A  
HETATM   15  C   UNL     1      -6.836  12.531  68.856  1.00  0.00    -0.098 A  
HETATM   16  C   UNL     1      -5.192  14.007  69.836  1.00  0.00    -0.093 A  
ENDBRANCH   4  11
BRANCH   4  17
HETATM   17  C   UNL     1     -10.108  14.089  68.277  1.00  0.00    -0.246 A  
HETATM   18  C   UNL     1     -11.195  15.872  69.521  1.00  0.00    -0.325 A  
HETATM   19  C   UNL     1     -12.448  15.379  69.152  1.00  0.00     0.076 A  
HETATM   20  C   UNL     1     -12.516  14.207  68.387  1.00  0.00     0.217 A  
HETATM   21  C   UNL     1     -11.359  13.560  67.959  1.00  0.00    -0.318 A  
HETATM   22  C   UNL     1     -10.029  15.232  69.084  1.00  0.00    -0.238 A  
BRANCH  19  23
HETATM   23  O   UNL     1     -13.540  16.110  69.568  1.00  0.00     1.394 OA 
BRANCH  23  24
HETATM   24  C   UNL     1     -14.107  15.633  70.792  1.00  0.00     0.602 C  
BRANCH  24  25
HETATM   25  C   UNL     1     -13.062  15.384  71.885  1.00  0.00    -0.429 C  
BRANCH  25  26
HETATM   26  N   UNL     1     -13.198  14.028  72.470  1.00  0.00    -0.484 NA 
HETATM   27  C   UNL     1     -11.908  13.550  72.966  1.00  0.00     2.669 C  
HETATM   28  C   UNL     1     -13.752  13.058  71.518  1.00  0.00     0.202 C  
ENDBRANCH  25  26
ENDBRANCH  24  25
ENDBRANCH  23  24
ENDBRANCH  19  23
ENDBRANCH   4  17
TORSDOF 7
ENDMDL
MODEL      145
REMARK 921   NORMALIZED FREE ENERGY PREDICTED BY IDOCK:   12.32 KCAL/MOL
REMARK 922        TOTAL FREE ENERGY PREDICTED BY IDOCK:   15.37 KCAL/MOL
REMARK 923 INTER-LIGAND FREE ENERGY PREDICTED BY IDOCK:   15.60 KCAL/MOL
REMARK 924 INTRA-LIGAND FREE ENERGY PREDICTED BY IDOCK:   -0.23 KCAL/MOL
REMARK 927      BINDING AFFINITY PREDICTED BY RF-SCORE:    0.00 PKD
ROOT
HETATM    1  C   UNL     1     -13.183  18.510  67.875  1.00  0.00     8.523 C  
HETATM    2  C   UNL     1     -13.032  17.283  68.761  1.00  0.00     5.992 C  
HETATM    3  C   UNL     1     -11.756  16.441  68.785  1.00  0.00    -0.037 C  
HETATM    4  C   UNL     1     -10.587  16.579  68.096  1.00  0.00    -0.329 C  
ENDROOT
BRANCH   3   5
HETATM    5  C   UNL     1     -11.934  15.333  69.777  1.00  0.00    -0.374 A  
HETATM    6  C   UNL     1     -12.737  14.229  69.457  1.00  0.00     0.158 A  
HETATM    7  C   UNL     1     -11.254  15.347  71.003  1.00  0.00    -0.408 A  
HETATM    8  C   UNL     1     -11.373  14.273  71.891  1.00  0.00     1.097 A  
HETATM    9  C   UNL     1     -12.849  13.154  70.342  1.00  0.00     0.048 A  
HETATM   10  C   UNL     1     -12.165  13.175  71.556  1.00  0.00     0.154 A  
ENDBRANCH   3   5
BRANCH   4  11
HETATM   11  C   UNL     1     -10.392  17.652  67.094  1.00  0.00    -0.343 A  
HETATM   12  C   UNL     1     -10.210  17.344  65.739  1.00  0.00    -0.204 A  
HETATM   13  C   UNL     1     -10.065  18.365  64.797  1.00  0.00     3.263 A  
HETATM   14  C   UNL     1     -10.213  20.012  66.559  1.00  0.00    -0.598 A  
HETATM   15  C   UNL     1     -10.360  18.993  67.500  1.00  0.00    -0.503 A  
HETATM   16  C   UNL     1     -10.078  19.699  65.207  1.00  0.00     0.565 A  
ENDBRANCH   4  11
BRANCH   4  17
HETATM   17  C   UNL     1      -9.467  15.631  68.354  1.00  0.00    -0.196 A  
HETATM   18  C   UNL     1      -7.504  14.944  69.611  1.00  0.00    -0.126 A  
HETATM   19  C   UNL     1      -7.448  13.750  68.890  1.00  0.00    -0.056 A  
HETATM   20  C   UNL     1      -8.379  13.533  67.866  1.00  0.00    -0.175 A  
HETATM   21  C   UNL     1      -9.376  14.466  67.592  1.00  0.00    -0.200 A  
HETATM   22  C   UNL     1      -8.511  15.881  69.346  1.00  0.00    -0.191 A  
BRANCH  19  23
HETATM   23  O   UNL     1      -6.467  12.855  69.264  1.00  0.00    -0.101 OA 
BRANCH  23  24
HETATM   24  C   UNL     1      -5.320  12.884  68.408  1.00  0.00    -0.067 C  
BRANCH  24  25
HETATM   25  C   UNL     1      -5.257  11.696  67.443  1.00  0.00    -0.069 C  
BRANCH  25  26
HETATM   26  N   UNL     1      -6.609  11.295  66.984  1.00  0.00    -0.105 NA 
HETATM   27  C   UNL     1      -7.175  10.281  67.873  1.00  0.00    -0.085 C  
HETATM   28  C   UNL     1      -6.611  10.800  65.603  1.00  0.00    -0.026 C  
ENDBRANCH  25  26
ENDBRANCH  24  25
ENDBRANCH  23  24
ENDBRANCH  19  23
ENDBRANCH   4  17
TORSDOF 7
ENDMDL
MODEL      146
REMARK 921   NORMALIZED FREE ENERGY PREDICTED BY IDOCK:   17.91 KCAL/MOL
REMARK 922        TOTAL FREE ENERGY PREDICTED BY IDOCK:   23.26 KCAL/MOL
REMARK 923 INTER-LIGAND FREE ENERGY PREDICTED BY IDOCK:   19.45 KCAL/MOL
REMARK 924 INTRA-LIGAND FREE ENERGY PREDICTED BY IDOCK:    3.80 KCAL/MOL
REMARK 927      BINDING AFFINITY PREDICTED BY RF-SCORE:    0.00 PKD
ROOT
HETATM    1  C   UNL     1      -7.695  18.107  71.675  1.00  0.00     8.481 C  
HETATM    2  C   UNL     1      -8.667  18.293  70.520  1.00  0.00     3.965 C  
HETATM    3  C   UNL     1      -8.898  17.215  69.461  1.00  0.00     0.549 C  
HETATM    4  C   UNL     1      -8.349  15.974  69.322  1.00  0.00    -0.217 C  
ENDROOT
BRANCH   3   5
HETATM    5  C   UNL     1      -9.927  17.710  68.493  1.00  0.00    -0.368 A  
HETATM    6  C   UNL     1     -11.285  17.444  68.719  1.00  0.00     0.418 A  
HETATM    7  C   UNL     1      -9.562  18.497  67.391  1.00  0.00    -0.307 A  
HETATM    8  C   UNL     1     -10.540  19.012  66.534  1.00  0.00    -0.495 A  
HETATM    9  C   UNL     1     -12.261  17.965  67.865  1.00  0.00     3.467 A  
HETATM   10  C   UNL     1     -11.889  18.751  66.776  1.00  0.00     2.324 A  
ENDBRANCH   3   5
BRANCH   4  11
HETATM   11  C   UNL     1      -7.314  15.469  70.252  1.00  0.00     0.478 A  
HETATM   12  C   UNL     1      -7.485  14.249  70.922  1.00  0.00     1.986 A  
HETATM   13  C   UNL     1      -6.485  13.764  71.768  1.00  0.00     1.463 A  
HETATM   14  C   UNL     1      -5.162  15.739  71.340  1.00  0.00    -0.029 A  
HETATM   15  C   UNL     1      -6.159  16.225  70.493  1.00  0.00     0.223 A  
HETATM   16  C   UNL     1      -5.320  14.504  71.968  1.00  0.00    -0.138 A  
ENDBRANCH   4  11
BRANCH   4  17
HETATM   17  C   UNL     1      -8.799  15.094  68.207  1.00  0.00    -0.173 A  
HETATM   18  C   UNL     1      -8.679  13.016  66.952  1.00  0.00    -0.158 A  
HETATM   19  C   UNL     1      -9.767  13.413  66.172  1.00  0.00    -0.250 A  
HETATM   20  C   UNL     1     -10.327  14.679  66.386  1.00  0.00    -0.293 A  
HETATM   21  C   UNL     1      -9.846  15.518  67.388  1.00  0.00    -0.224 A  
HETATM   22  C   UNL     1      -8.198  13.852  67.967  1.00  0.00    -0.161 A  
BRANCH  19  23
HETATM   23  O   UNL     1     -10.219  12.500  65.243  1.00  0.00    -0.279 OA 
BRANCH  23  24
HETATM   24  C   UNL     1      -9.916  11.144  65.589  1.00  0.00    -0.249 C  
BRANCH  24  25
HETATM   25  C   UNL     1      -8.428  10.911  65.875  1.00  0.00    -0.158 C  
BRANCH  25  26
HETATM   26  N   UNL     1      -8.195   9.584  66.493  1.00  0.00    -0.118 NA 
HETATM   27  C   UNL     1      -8.512   8.513  65.549  1.00  0.00    -0.167 C  
HETATM   28  C   UNL     1      -8.961   9.396  67.730  1.00  0.00    -0.122 C  
ENDBRANCH  25  26
ENDBRANCH  24  25
ENDBRANCH  23  24
ENDBRANCH  19  23
ENDBRANCH   4  17
TORSDOF 7
ENDMDL
MODEL      147
REMARK 921   NORMALIZED FREE ENERGY PREDICTED BY IDOCK:   39.74 KCAL/MOL
REMARK 922        TOTAL FREE ENERGY PREDICTED BY IDOCK:   54.01 KCAL/MOL
REMARK 923 INTER-LIGAND FREE ENERGY PREDICTED BY IDOCK:   53.10 KCAL/MOL
REMARK 924 INTRA-LIGAND FREE ENERGY PREDICTED BY IDOCK:    0.92 KCAL/MOL
REMARK 927      BINDING AFFINITY PREDICTED BY RF-SCORE:    0.00 PKD
ROOT
HETATM    1  C   UNL     1      -8.227  17.922  72.281  1.00  0.00    14.570 C  
HETATM    2  C   UNL     1      -8.753  18.595  71.023  1.00  0.00     5.626 C  
HETATM    3  C   UNL     1      -9.127  17.808  69.766  1.00  0.00     1.193 C  
HETATM    4  C   UNL     1      -9.083  16.468  69.511  1.00  0.00     0.177 C  
ENDROOT
BRANCH   3   5
HETATM    5  C   UNL     1      -9.628  18.768  68.733  1.00  0.00    -0.411 A  
HETATM    6  C   UNL     1     -11.000  19.037  68.635  1.00  0.00     0.797 A  
HETATM    7  C   UNL     1      -8.738  19.459  67.898  1.00  0.00    -0.359 A  
HETATM    8  C   UNL     1      -9.214  20.406  66.985  1.00  0.00    -0.483 A  
HETATM    9  C   UNL     1     -11.473  19.989  67.727  1.00  0.00     1.002 A  
HETATM   10  C   UNL     1     -10.581  20.674  66.905  1.00  0.00     0.423 A  
ENDBRANCH   3   5
BRANCH   4  11
HETATM   11  C   UNL     1      -8.572  15.499  70.507  1.00  0.00     1.548 A  
HETATM   12  C   UNL     1      -9.452  14.686  71.235  1.00  0.00     3.444 A  
HETATM   13  C   UNL     1      -8.957  13.749  72.144  1.00  0.00    11.881 A  
HETATM   14  C   UNL     1      -6.703  14.471  71.663  1.00  0.00     1.282 A  
HETATM   15  C   UNL     1      -7.196  15.407  70.753  1.00  0.00     1.180 A  
HETATM   16  C   UNL     1      -7.582  13.635  72.349  1.00  0.00     7.994 A  
ENDBRANCH   4  11
BRANCH   4  17
HETATM   17  C   UNL     1      -9.563  15.956  68.197  1.00  0.00    -0.208 A  
HETATM   18  C   UNL     1      -9.810  14.169  66.568  1.00  0.00    -0.298 A  
HETATM   19  C   UNL     1     -10.599  14.995  65.767  1.00  0.00    -0.339 A  
HETATM   20  C   UNL     1     -10.819  16.319  66.168  1.00  0.00    -0.105 A  
HETATM   21  C   UNL     1     -10.300  16.802  67.368  1.00  0.00    -0.302 A  
HETATM   22  C   UNL     1      -9.295  14.646  67.780  1.00  0.00    -0.197 A  
BRANCH  19  23
HETATM   23  O   UNL     1     -11.122  14.423  64.626  1.00  0.00    -0.381 OA 
BRANCH  23  24
HETATM   24  C   UNL     1     -11.089  12.992  64.646  1.00  0.00    -0.332 C  
BRANCH  24  25
HETATM   25  C   UNL     1     -12.265  12.351  63.901  1.00  0.00    -0.513 C  
BRANCH  25  26
HETATM   26  N   UNL     1     -11.982  10.938  63.552  1.00  0.00     1.165 NA 
HETATM   27  C   UNL     1     -11.326  10.254  64.665  1.00  0.00     2.505 C  
HETATM   28  C   UNL     1     -11.165  10.810  62.340  1.00  0.00     2.241 C  
ENDBRANCH  25  26
ENDBRANCH  24  25
ENDBRANCH  23  24
ENDBRANCH  19  23
ENDBRANCH   4  17
TORSDOF 7
ENDMDL
MODEL      148
REMARK 921   NORMALIZED FREE ENERGY PREDICTED BY IDOCK:   48.73 KCAL/MOL
REMARK 922        TOTAL FREE ENERGY PREDICTED BY IDOCK:   66.69 KCAL/MOL
REMARK 923 INTER-LIGAND FREE ENERGY PREDICTED BY IDOCK:   57.97 KCAL/MOL
REMARK 924 INTRA-LIGAND FREE ENERGY PREDICTED BY IDOCK:    8.72 KCAL/MOL
REMARK 927      BINDING AFFINITY PREDICTED BY RF-SCORE:    0.00 PKD
ROOT
HETATM    1  C   UNL     1     -13.232  12.939  62.990  1.00  0.00     1.370 C  
HETATM    2  C   UNL     1     -12.462  13.861  63.923  1.00  0.00    -0.221 C  
HETATM    3  C   UNL     1     -11.489  13.332  64.978  1.00  0.00    -0.329 C  
HETATM    4  C   UNL     1     -11.125  12.055  65.291  1.00  0.00    -0.367 C  
ENDROOT
BRANCH   3   5
HETATM    5  C   UNL     1     -10.889  14.498  65.700  1.00  0.00    -0.329 A  
HETATM    6  C   UNL     1     -10.319  14.318  66.968  1.00  0.00    -0.267 A  
HETATM    7  C   UNL     1     -10.825  15.763  65.099  1.00  0.00    -0.444 A  
HETATM    8  C   UNL     1     -10.198  16.828  65.755  1.00  0.00    -0.311 A  
HETATM    9  C   UNL     1      -9.687  15.381  67.619  1.00  0.00    -0.211 A  
HETATM   10  C   UNL     1      -9.624  16.634  67.012  1.00  0.00    -0.250 A  
ENDBRANCH   3   5
BRANCH   4  11
HETATM   11  C   UNL     1     -11.719  10.884  64.608  1.00  0.00     1.121 A  
HETATM   12  C   UNL     1     -12.032   9.718  65.323  1.00  0.00     7.067 A  
HETATM   13  C   UNL     1     -12.627   8.633  64.675  1.00  0.00    20.171 A  
HETATM   14  C   UNL     1     -12.540   9.833  62.580  1.00  0.00    10.093 A  
HETATM   15  C   UNL     1     -11.947  10.919  63.226  1.00  0.00     1.557 A  
HETATM   16  C   UNL     1     -12.890   8.696  63.307  1.00  0.00    21.267 A  
ENDBRANCH   4  11
BRANCH   4  17
HETATM   17  C   UNL     1     -10.100  11.823  66.347  1.00  0.00    -0.239 A  
HETATM   18  C   UNL     1      -8.116  12.504  67.576  1.00  0.00    -0.176 A  
HETATM   19  C   UNL     1      -8.262  11.412  68.434  1.00  0.00    -0.151 A  
HETATM   20  C   UNL     1      -9.302  10.503  68.203  1.00  0.00    -0.150 A  
HETATM   21  C   UNL     1     -10.210  10.699  67.165  1.00  0.00    -0.261 A  
HETATM   22  C   UNL     1      -9.033  12.711  66.537  1.00  0.00    -0.115 A  
BRANCH  19  23
HETATM   23  O   UNL     1      -7.357  11.324  69.471  1.00  0.00    -0.081 OA 
BRANCH  23  24
HETATM   24  C   UNL     1      -7.481  10.117  70.229  1.00  0.00    -0.062 C  
BRANCH  24  25
HETATM   25  C   UNL     1      -8.860   9.459  70.095  1.00  0.00    -0.223 C  
BRANCH  25  26
HETATM   26  N   UNL     1      -8.917   8.164  70.815  1.00  0.00    -0.142 NA 
HETATM   27  C   UNL     1     -10.304   7.774  71.064  1.00  0.00    -0.202 C  
HETATM   28  C   UNL     1      -8.175   8.191  72.081  1.00  0.00    -0.149 C  
ENDBRANCH  25  26
ENDBRANCH  24  25
ENDBRANCH  23  24
ENDBRANCH  19  23
ENDBRANCH   4  17
TORSDOF 7
ENDMDL
MODEL      149
REMARK 921   NORMALIZED FREE ENERGY PREDICTED BY IDOCK:   50.23 KCAL/MOL
REMARK 922        TOTAL FREE ENERGY PREDICTED BY IDOCK:   68.80 KCAL/MOL
REMARK 923 INTER-LIGAND FREE ENERGY PREDICTED BY IDOCK:   53.94 KCAL/MOL
REMARK 924 INTRA-LIGAND FREE ENERGY PREDICTED BY IDOCK:   14.86 KCAL/MOL
REMARK 927      BINDING AFFINITY PREDICTED BY RF-SCORE:    0.00 PKD
ROOT
HETATM    1  C   UNL     1      -6.425  10.555  68.948  1.00  0.00    -0.048 C  
HETATM    2  C   UNL     1      -7.602  11.342  69.501  1.00  0.00     0.200 C  
HETATM    3  C   UNL     1      -8.657  10.709  70.410  1.00  0.00     1.500 C  
HETATM    4  C   UNL     1      -8.773   9.435  70.883  1.00  0.00    -0.145 C  
ENDROOT
BRANCH   3   5
HETATM    5  C   UNL     1      -9.652  11.762  70.790  1.00  0.00     6.407 A  
HETATM    6  C   UNL     1      -9.311  12.738  71.737  1.00  0.00    17.981 A  
HETATM    7  C   UNL     1     -10.905  11.830  70.164  1.00  0.00     0.727 A  
HETATM    8  C   UNL     1     -11.798  12.860  70.478  1.00  0.00    -0.152 A  
HETATM    9  C   UNL     1     -10.201  13.770  72.043  1.00  0.00     7.533 A  
HETATM   10  C   UNL     1     -11.443  13.832  71.413  1.00  0.00     1.181 A  
ENDBRANCH   3   5
BRANCH   4  11
HETATM   11  C   UNL     1      -7.817   8.371  70.506  1.00  0.00    -0.089 A  
HETATM   12  C   UNL     1      -8.103   7.488  69.454  1.00  0.00    -0.128 A  
HETATM   13  C   UNL     1      -7.176   6.512  69.082  1.00  0.00    -0.091 A  
HETATM   14  C   UNL     1      -5.697   7.240  70.848  1.00  0.00    -0.027 A  
HETATM   15  C   UNL     1      -6.621   8.217  71.220  1.00  0.00    -0.048 A  
HETATM   16  C   UNL     1      -5.969   6.395  69.773  1.00  0.00    -0.018 A  
ENDBRANCH   4  11
BRANCH   4  17
HETATM   17  C   UNL     1      -9.891   9.097  71.809  1.00  0.00    -0.219 A  
HETATM   18  C   UNL     1     -11.887   9.711  73.053  1.00  0.00     2.700 A  
HETATM   19  C   UNL     1     -12.056   8.384  73.454  1.00  0.00     1.676 A  
HETATM   20  C   UNL     1     -11.104   7.433  73.067  1.00  0.00    -0.390 A  
HETATM   21  C   UNL     1     -10.025   7.783  72.259  1.00  0.00    -0.259 A  
HETATM   22  C   UNL     1     -10.809  10.066  72.232  1.00  0.00     2.562 A  
BRANCH  19  23
HETATM   23  O   UNL     1     -13.182   8.111  74.203  1.00  0.00     4.102 OA 
BRANCH  23  24
HETATM   24  C   UNL     1     -13.807   6.872  73.852  1.00  0.00     7.004 C  
BRANCH  24  25
HETATM   25  C   UNL     1     -12.811   5.803  73.388  1.00  0.00     2.697 C  
BRANCH  25  26
HETATM   26  N   UNL     1     -11.897   6.328  72.345  1.00  0.00    -0.268 NA 
HETATM   27  C   UNL     1     -12.657   6.887  71.228  1.00  0.00    -0.345 C  
HETATM   28  C   UNL     1     -10.965   5.309  71.848  1.00  0.00    -0.098 C  
ENDBRANCH  25  26
ENDBRANCH  24  25
ENDBRANCH  23  24
ENDBRANCH  19  23
ENDBRANCH   4  17
TORSDOF 7
ENDMDL
